REMARK  Name = ZINC05384328
REMARK  9 active torsions:
REMARK  status: ('A' for Active; 'I' for Inactive)
REMARK    1  A    between atoms: C_1  and  C_2
REMARK    2  A    between atoms: C_2  and  C_3
REMARK    3  A    between atoms: C_2  and  C_4
REMARK    4  A    between atoms: C_4  and  C_5
REMARK    5  A    between atoms: C_5  and  C_7
REMARK    6  A    between atoms: C_5  and  N_53
REMARK    7  A    between atoms: C_7  and  O_9
REMARK    8  A    between atoms: O_9  and  C_10
REMARK    9  A    between atoms: C_18  and  C_21
REMARK                            x       y       z     vdW  Elec       q    Type
REMARK                         _______ _______ _______ _____ _____    ______ ____
ROOT
ATOM      1  C   UNL     1      -8.257  -2.814   0.748  0.00  0.00    +0.135 A 
ATOM      2  C   UNL     1      -8.135  -1.892   1.785  0.00  0.00    +0.047 A 
ATOM      3  C   UNL     1      -7.010  -1.127   1.899  0.00  0.00    +0.019 A 
ATOM      4  C   UNL     1      -5.978  -1.271   0.970  0.00  0.00    +0.065 A 
ATOM      5  C   UNL     1      -6.091  -2.197  -0.080  0.00  0.00    +0.142 A 
ATOM      6  C   UNL     1      -7.243  -2.967  -0.182  0.00  0.00    +0.093 A 
ATOM      7  O   UNL     1      -5.094  -2.336  -0.976  0.00  0.00    -0.462 OA
ATOM      8  C   UNL     1      -3.964  -1.625  -0.930  0.00  0.00    +0.208 A 
ATOM      9  C   UNL     1      -3.723  -0.696   0.030  0.00  0.00    +0.064 A 
ATOM     10  C   UNL     1      -4.746  -0.467   1.065  0.00  0.00    +0.200 A 
ATOM     11  O   UNL     1      -4.583   0.350   1.955  0.00  0.00    -0.286 OA
ENDROOT
BRANCH   9  12
ATOM     12  C   UNL     1      -2.453   0.070   0.041  0.00  0.00    -0.008 A 
ATOM     13  C   UNL     1      -2.475   1.459   0.148  0.00  0.00    +0.012 A 
ATOM     14  C   UNL     1      -1.293   2.170   0.151  0.00  0.00    +0.050 A 
ATOM     15  C   UNL     1      -0.078   1.506   0.056  0.00  0.00    +0.162 A 
ATOM     16  C   UNL     1      -0.049   0.119  -0.049  0.00  0.00    +0.163 A 
ATOM     17  C   UNL     1      -1.234  -0.598  -0.058  0.00  0.00    +0.058 A 
ATOM     18  O   UNL     1       1.133  -0.548  -0.143  0.00  0.00    -0.485 OA
ATOM     19  C   UNL     1       2.282   0.225  -0.508  0.00  0.00    +0.270 C 
ATOM     20  C   UNL     1       2.284   1.507   0.336  0.00  0.00    +0.270 C 
ATOM     21  O   UNL     1       1.077   2.227   0.061  0.00  0.00    -0.485 OA
ENDBRANCH   9  12
BRANCH   1  22
ATOM     22  O   UNL     1      -9.382  -3.569   0.647  0.00  0.00    -0.427 OA
BRANCH  22  23
ATOM     23  C   UNL     1     -10.515  -2.932   0.309  0.00  0.00    +0.298 C 
ATOM     24  O   UNL     1     -10.484  -1.762   0.008  0.00  0.00    -0.252 OA
BRANCH  23  25
ATOM     25  C   UNL     1     -11.825  -3.677   0.305  0.00  0.00    +0.037 C 
BRANCH  25  28
ATOM     26  H   UNL     1     -12.955  -2.023  -0.170  0.00  0.00    -0.089 HD
ATOM     27  H   UNL     1     -12.499  -2.926  -1.490  0.00  0.00    -0.089 HD
ATOM     28  N   UNL     1     -12.817  -2.968  -0.523  0.00  0.00    +0.387 N 
ATOM     29  H   UNL     1     -13.710  -3.473  -0.486  0.00  0.00    -0.089 HD
ENDBRANCH  25  28
BRANCH  25  30
ATOM     30  C   UNL     1     -12.356  -3.783   1.736  0.00  0.00    -0.002 C 
BRANCH  30  32
ATOM     31  C   UNL     1     -13.265  -6.076   1.341  0.00  0.00    +0.007 C 
ATOM     32  C   UNL     1     -13.620  -4.644   1.748  0.00  0.00    -0.018 C 
ATOM     33  C   UNL     1     -14.221  -4.648   3.155  0.00  0.00    +0.007 C 
ENDBRANCH  30  32
ENDBRANCH  25  30
ENDBRANCH  23  25
ENDBRANCH  22  23
ENDBRANCH   1  22
TORSDOF 7
