REMARK  Name = ZINC08811216
REMARK  7 active torsions:
REMARK  status: ('A' for Active; 'I' for Inactive)
REMARK    1  A    between atoms: C_1  and  C_2
REMARK    2  A    between atoms: C_5  and  S_25
REMARK    3  A    between atoms: C_10  and  C_11
REMARK    4  A    between atoms: N_13  and  C_14
REMARK    5  A    between atoms: C_19  and  C_24
REMARK    6  A    between atoms: C_21  and  C_23
REMARK    7  A    between atoms: S_25  and  N_28
REMARK                            x       y       z     vdW  Elec       q    Type
REMARK                         _______ _______ _______ _____ _____    ______ ____
ROOT
ATOM      1  C   UNL     1       2.596   5.543   2.826  0.00  0.00    +0.048 C 
ATOM      2  C   UNL     1       1.285   5.992   2.234  0.00  0.00    +0.008 A 
ATOM      3  C   UNL     1       0.832   7.369   2.044  0.00  0.00    +0.026 A 
ATOM      4  C   UNL     1       1.387   8.623   2.311  0.00  0.00    +0.040 A 
ATOM      5  C   UNL     1       0.685   9.754   2.004  0.00  0.00    +0.106 A 
ATOM      6  C   UNL     1      -0.576   9.665   1.430  0.00  0.00    +0.032 A 
ATOM      7  C   UNL     1      -1.141   8.438   1.159  0.00  0.00    +0.049 A 
ATOM      8  C   UNL     1      -0.446   7.273   1.462  0.00  0.00    +0.136 A 
ATOM      9  O   UNL     1      -0.728   5.965   1.312  0.00  0.00    -0.450 OA
ATOM     10  C   UNL     1       0.285   5.199   1.770  0.00  0.00    +0.193 A 
ENDROOT
BRANCH  10  11
ATOM     11  C   UNL     1       0.305   3.730   1.762  0.00  0.00    +0.280 C 
ATOM     12  O   UNL     1       1.272   3.132   2.195  0.00  0.00    -0.267 OA
ATOM     13  N   UNL     1      -0.749   3.044   1.275  0.00  0.00    -0.306 N 
ATOM     14  H   UNL     1      -1.520   3.521   0.930  0.00  0.00    +0.149 HD
BRANCH  13  15
ATOM     15  C   UNL     1      -0.729   1.579   1.267  0.00  0.00    +0.076 C 
ATOM     16  C   UNL     1      -0.013   1.086   0.008  0.00  0.00    +0.022 C 
ATOM     17  C   UNL     1      -0.753   1.593  -1.232  0.00  0.00    +0.002 C 
ATOM     18  C   UNL     1      -2.188   1.063  -1.221  0.00  0.00    +0.003 C 
ATOM     19  C   UNL     1      -2.904   1.556   0.038  0.00  0.00    -0.009 C 
ATOM     20  C   UNL     1      -2.164   1.050   1.278  0.00  0.00    +0.009 C 
ATOM     21  C   UNL     1      -2.880   1.543   2.537  0.00  0.00    +0.009 C 
ATOM     22  C   UNL     1      -4.340   1.027   0.049  0.00  0.00    +0.008 C 
ENDBRANCH  13  15
ENDBRANCH  10  11
BRANCH   5  23
ATOM     23  S   UNL     1       1.384  11.336   2.341  0.00  0.00    +0.061 S 
ATOM     24  O   UNL     1       2.794  11.159   2.374  0.00  0.00    -0.153 OA
ATOM     25  O   UNL     1       0.753  12.255   1.459  0.00  0.00    -0.153 OA
BRANCH  23  26
ATOM     26  N   UNL     1       0.924  11.759   3.874  0.00  0.00    -0.177 NA
ATOM     27  C   UNL     1      -0.317  12.512   4.102  0.00  0.00    +0.109 C 
ATOM     28  C   UNL     1      -1.170  11.749   5.128  0.00  0.00    +0.017 C 
ATOM     29  C   UNL     1      -0.341  11.506   6.391  0.00  0.00    +0.003 C 
ATOM     30  C   UNL     1       0.878  10.648   6.046  0.00  0.00    +0.017 C 
ATOM     31  C   UNL     1       1.751  11.394   5.032  0.00  0.00    +0.109 C 
ENDBRANCH  23  26
ENDBRANCH   5  23
TORSDOF 4
