REMARK  Name = ZINC28466119
REMARK  2 active torsions:
REMARK  status: ('A' for Active; 'I' for Inactive)
REMARK    1  A    between atoms: C_4  and  C_7
REMARK    2  A    between atoms: C_10  and  C_21
REMARK                            x       y       z     vdW  Elec       q    Type
REMARK                         _______ _______ _______ _____ _____    ______ ____
ROOT
ATOM      1  C   UNL     1      -4.999   3.870   0.074  0.00  0.00    +0.082 C 
ATOM      2  C   UNL     1      -3.663   3.187   0.047  0.00  0.00    +0.014 C 
ATOM      3  C   UNL     1      -2.525   3.870   0.045  0.00  0.00    +0.070 C 
ATOM      4  N   UNL     1      -2.529   5.265   0.052  0.00  0.00    -0.232 NA
ATOM      5  C   UNL     1      -3.665   5.948  -0.299  0.00  0.00    +0.136 C 
ATOM      6  C   UNL     1      -4.874   5.317  -0.309  0.00  0.00    +0.066 C 
ATOM      7  C   UNL     1      -6.018   6.043  -0.682  0.00  0.00    +0.252 C 
ATOM      8  O   UNL     1      -7.110   5.501  -0.701  0.00  0.00    -0.270 OA
ATOM      9  N   UNL     1      -5.901   7.343  -1.018  0.00  0.00    -0.236 N 
ATOM     10  H   UNL     1      -6.791   7.917  -1.314  0.00  0.00    +0.159 HD
ATOM     11  C   UNL     1      -4.700   7.950  -0.998  0.00  0.00    +0.311 C 
ATOM     12  O   UNL     1      -4.618   9.124  -1.302  0.00  0.00    -0.252 OA
ATOM     13  N   UNL     1      -3.590   7.277  -0.645  0.00  0.00    -0.253 N 
ATOM     14  H   UNL     1      -2.619   7.794  -0.633  0.00  0.00    +0.158 HD
ENDROOT
BRANCH   1  18
ATOM     15  C   UNL     1      -6.641   3.601   4.009  0.00  0.00    +0.000 A 
ATOM     16  C   UNL     1      -7.304   3.024   2.942  0.00  0.00    +0.000 A 
ATOM     17  C   UNL     1      -6.773   3.111   1.669  0.00  0.00    +0.004 A 
ATOM     18  C   UNL     1      -5.579   3.775   1.462  0.00  0.00    -0.036 A 
ATOM     19  C   UNL     1      -4.913   4.348   2.530  0.00  0.00    +0.004 A 
ATOM     20  C   UNL     1      -5.446   4.264   3.803  0.00  0.00    +0.000 A 
ENDBRANCH   1  18
BRANCH   3  21
ATOM     21  C   UNL     1      -1.235   3.142   0.029  0.00  0.00    +0.000 A 
ATOM     22  C   UNL     1      -1.218   1.748   0.017  0.00  0.00    +0.010 A 
ATOM     23  C   UNL     1      -0.013   1.076   0.008  0.00  0.00    +0.001 A 
ATOM     24  C   UNL     1       1.177   1.782   0.000  0.00  0.00    +0.000 A 
ATOM     25  C   UNL     1       1.166   3.166   0.007  0.00  0.00    +0.001 A 
ATOM     26  C   UNL     1      -0.033   3.849   0.021  0.00  0.00    +0.010 A 
ENDBRANCH   3  21
TORSDOF 2
