REMARK  Name = ZINC40346584
REMARK  4 active torsions:
REMARK  status: ('A' for Active; 'I' for Inactive)
REMARK    1  A    between atoms: C_3  and  C_6
REMARK    2  A    between atoms: N_11  and  S_12
REMARK    3  A    between atoms: S_12  and  C_15
REMARK    4  A    between atoms: C_20  and  N_21
REMARK                            x       y       z     vdW  Elec       q    Type
REMARK                         _______ _______ _______ _____ _____    ______ ____
ROOT
ATOM      1  S   UNL     1       4.743   0.915  -2.124  0.00  0.00    +0.063 S 
ATOM      2  O   UNL     1       5.508  -0.239  -2.443  0.00  0.00    -0.153 OA
ATOM      3  O   UNL     1       3.325   0.937  -2.211  0.00  0.00    -0.153 OA
ENDROOT
BRANCH   1   4
ATOM      4  C   UNL     1       5.331   2.211  -3.163  0.00  0.00    +0.126 A 
ATOM      5  C   UNL     1       6.343   1.964  -4.071  0.00  0.00    +0.033 A 
ATOM      6  C   UNL     1       6.805   2.980  -4.887  0.00  0.00    +0.040 A 
ATOM      7  C   UNL     1       6.255   4.248  -4.798  0.00  0.00    +0.125 A 
ATOM      8  C   UNL     1       5.242   4.501  -3.891  0.00  0.00    +0.063 A 
ATOM      9  C   UNL     1       4.773   3.480  -3.075  0.00  0.00    +0.054 A 
ATOM     10  F   UNL     1       6.709   5.239  -5.597  0.00  0.00    -0.205 F 
BRANCH   9  11
ATOM     11  N   UNL     1       3.746   3.730  -2.162  0.00  0.00    -0.356 N 
ATOM     12  H   UNL     1       3.349   2.997  -1.666  0.00  0.00    +0.142 HD
ATOM     13  H   UNL     1       3.429   4.637  -2.024  0.00  0.00    +0.142 HD
ENDBRANCH   9  11
ENDBRANCH   1   4
BRANCH   1  18
ATOM     14  C   UNL     1       4.230   1.979   0.395  0.00  0.00    +0.116 C 
ATOM     15  C   UNL     1       5.025   2.186   1.702  0.00  0.00    +0.027 C 
ATOM     16  C   UNL     1       6.500   2.147   1.222  0.00  0.00    +0.019 C 
ATOM     17  C   UNL     1       6.431   1.090   0.092  0.00  0.00    +0.110 C 
ATOM     18  N   UNL     1       5.129   1.323  -0.567  0.00  0.00    -0.169 NA
BRANCH  14  21
ATOM     19  C   UNL     1       0.793   0.471   1.045  0.00  0.00    +0.008 A 
ATOM     20  C   UNL     1       1.733   1.457   0.810  0.00  0.00    +0.013 A 
ATOM     21  C   UNL     1       3.033   1.103   0.657  0.00  0.00    +0.009 A 
ATOM     22  S   UNL     1       2.957  -0.671   0.844  0.00  0.00    -0.100 S 
ATOM     23  C   UNL     1       1.199  -0.821   1.115  0.00  0.00    +0.045 A 
ENDBRANCH  14  21
ENDBRANCH   1  18
TORSDOF 4
