REMARK  Name = ZINC05173973
REMARK  6 active torsions:
REMARK  status: ('A' for Active; 'I' for Inactive)
REMARK    1  A    between atoms: C_2  and  C_3
REMARK    2  A    between atoms: C_3  and  C_4
REMARK    3  A    between atoms: C_8  and  C_11
REMARK    4  A    between atoms: C_9  and  O_10
REMARK    5  A    between atoms: N_12  and  N_13
REMARK    6  A    between atoms: C_14  and  C_16
REMARK                            x       y       z     vdW  Elec       q    Type
REMARK                         _______ _______ _______ _____ _____    ______ ____
ROOT
ATOM      1  C   UNL     1       3.702  -0.672  -0.037  0.00  0.00    +0.142 C 
ATOM      2  N   UNL     1       3.728  -1.970  -0.045  0.00  0.00    -0.187 NA
ENDROOT
BRANCH   1   7
ATOM      3  C   UNL     1       0.002  -0.004   0.002  0.00  0.00    -0.002 A 
ATOM      4  C   UNL     1      -0.017   1.378   0.010  0.00  0.00    +0.007 A 
ATOM      5  C   UNL     1       1.168   2.095   0.002  0.00  0.00    +0.001 A 
ATOM      6  C   UNL     1       2.379   1.435  -0.013  0.00  0.00    +0.013 A 
ATOM      7  C   UNL     1       2.412   0.039  -0.021  0.00  0.00    +0.036 A 
ATOM      8  C   UNL     1       1.210  -0.682  -0.013  0.00  0.00    +0.129 A 
BRANCH   8   9
ATOM      9  O   UNL     1       1.229  -2.040  -0.020  0.00  0.00    -0.506 OA
ATOM     10  H   UNL     1       1.226  -2.429  -0.906  0.00  0.00    +0.292 HD
ENDBRANCH   8   9
BRANCH   3  11
ATOM     11  C   UNL     1      -1.293  -0.774   0.010  0.00  0.00    +0.065 C 
BRANCH  11  13
ATOM     12  C   UNL     1      -2.815  -0.807   1.919  0.00  0.00    +0.004 C 
ATOM     13  C   UNL     1      -1.649  -1.145   1.427  0.00  0.00    -0.030 C 
ENDBRANCH  11  13
ENDBRANCH   3  11
ENDBRANCH   1   7
BRANCH   2  14
ATOM     14  N   UNL     1       4.955  -2.646  -0.061  0.00  0.00    -0.200 N 
ATOM     15  C   UNL     1       4.982  -3.994  -0.069  0.00  0.00    +0.302 C 
ATOM     16  O   UNL     1       3.942  -4.622  -0.062  0.00  0.00    -0.265 OA
ATOM     17  H   UNL     1       5.785  -2.144  -0.066  0.00  0.00    +0.178 HD
BRANCH  15  18
ATOM     18  C   UNL     1       6.277  -4.707  -0.086  0.00  0.00    +0.239 A 
ATOM     19  N   UNL     1       6.434  -6.041  -0.095  0.00  0.00    -0.189 NA
ATOM     20  C   UNL     1       7.713  -6.334  -0.109  0.00  0.00    +0.209 A 
ATOM     21  N   UNL     1       8.411  -5.175  -0.109  0.00  0.00    -0.246 N 
ATOM     22  H   UNL     1       9.376  -5.079  -0.118  0.00  0.00    +0.192 HD
ATOM     23  N   UNL     1       7.463  -4.139  -0.100  0.00  0.00    -0.146 NA
ATOM     24  N   UNL     1       8.254  -7.607  -0.122  0.00  0.00    -0.328 N 
ATOM     25  H   UNL     1       7.670  -8.382  -0.121  0.00  0.00    +0.145 HD
ATOM     26  H   UNL     1       9.216  -7.725  -0.131  0.00  0.00    +0.145 HD
ENDBRANCH  15  18
ENDBRANCH   2  14
TORSDOF 6
