REMARK  Name = ZINC03872833
REMARK  7 active torsions:
REMARK  status: ('A' for Active; 'I' for Inactive)
REMARK    1  A    between atoms: C_1  and  C_2
REMARK    2  A    between atoms: C_15  and  O_30
REMARK    3  A    between atoms: C_18  and  C_29
REMARK    4  A    between atoms: C_23  and  C_24
REMARK    5  A    between atoms: C_23  and  O_28
REMARK    6  A    between atoms: C_24  and  C_26
REMARK    7  A    between atoms: C_26  and  O_27
REMARK                            x       y       z     vdW  Elec       q    Type
REMARK                         _______ _______ _______ _____ _____    ______ ____
ROOT
ATOM      1  C   UNL     1      -0.019   1.525   0.010  0.00  0.00    +0.016 C 
ATOM      2  C   UNL     1       0.002  -0.004   0.002  0.00  0.00    -0.005 C 
ATOM      3  C   UNL     1      -1.448  -0.428   0.027  0.00  0.00    +0.019 C 
ATOM      4  C   UNL     1      -1.645  -1.841   0.572  0.00  0.00    +0.080 C 
ATOM      5  C   UNL     1      -1.092  -1.860   1.985  0.00  0.00    +0.156 C 
ATOM      6  O   UNL     1      -1.708  -2.355   2.907  0.00  0.00    -0.293 OA
ATOM      7  C   UNL     1       0.228  -1.249   2.169  0.00  0.00    +0.046 C 
ATOM      8  C   UNL     1       0.743  -0.450   1.244  0.00  0.00    -0.060 C 
ATOM      9  C   UNL     1       2.195  -0.029   1.402  0.00  0.00    +0.032 C 
ATOM     10  C   UNL     1       2.944  -0.565   0.162  0.00  0.00    +0.008 C 
ATOM     11  C   UNL     1       2.260   0.015  -1.060  0.00  0.00    -0.001 C 
ATOM     12  C   UNL     1       0.808  -0.491  -1.182  0.00  0.00    +0.031 C 
ATOM     13  C   UNL     1       0.336  -0.129  -2.580  0.00  0.00    +0.119 C 
ATOM     14  C   UNL     1       0.987  -1.137  -3.562  0.00  0.00    +0.041 C 
ATOM     15  C   UNL     1       2.444  -1.304  -3.221  0.00  0.00    +0.009 C 
ATOM     16  C   UNL     1       2.972  -0.135  -2.368  0.00  0.00    +0.002 C 
ATOM     17  C   UNL     1       4.477  -0.435  -2.303  0.00  0.00    +0.008 C 
ATOM     18  C   UNL     1       4.801  -1.002  -3.711  0.00  0.00    +0.043 C 
ATOM     19  C   UNL     1       3.439  -1.294  -4.394  0.00  0.00    +0.131 C 
ATOM     20  C   UNL     1       2.648  -2.645  -2.494  0.00  0.00    +0.015 C 
ENDROOT
BRANCH  19  21
ATOM     21  C   UNL     1       3.128  -0.218  -5.393  0.00  0.00    +0.190 C 
ATOM     22  O   UNL     1       2.600   0.807  -5.032  0.00  0.00    -0.292 OA
BRANCH  21  23
ATOM     23  C   UNL     1       3.474  -0.415  -6.846  0.00  0.00    +0.233 C 
BRANCH  23  24
ATOM     24  O   UNL     1       3.083   0.740  -7.590  0.00  0.00    -0.387 OA
ATOM     25  H   UNL     1       3.277   0.683  -8.536  0.00  0.00    +0.210 HD
ENDBRANCH  23  24
ENDBRANCH  21  23
ENDBRANCH  19  21
BRANCH  19  26
ATOM     26  O   UNL     1       3.466  -2.575  -5.022  0.00  0.00    -0.380 OA
ATOM     27  H   UNL     1       4.076  -2.633  -5.771  0.00  0.00    +0.211 HD
ENDBRANCH  19  26
BRANCH  13  28
ATOM     28  O   UNL     1      -1.075  -0.203  -2.731  0.00  0.00    -0.391 OA
ATOM     29  H   UNL     1      -1.388   0.026  -3.618  0.00  0.00    +0.210 HD
ENDBRANCH  13  28
TORSDOF 5
