REMARK  Name = ZINC06631408
REMARK  15 active torsions:
REMARK  status: ('A' for Active; 'I' for Inactive)
REMARK    1  A    between atoms: C_1  and  C_2
REMARK    2  A    between atoms: C_2  and  O_3
REMARK    3  A    between atoms: O_3  and  C_4
REMARK    4  A    between atoms: C_9  and  N_10
REMARK    5  A    between atoms: N_10  and  C_11
REMARK    6  A    between atoms: C_11  and  C_13
REMARK    7  A    between atoms: C_11  and  C_20
REMARK    8  A    between atoms: C_16  and  O_19
REMARK    9  A    between atoms: N_22  and  C_23
REMARK   10  A    between atoms: C_23  and  C_24
REMARK   11  A    between atoms: C_24  and  O_25
REMARK   12  A    between atoms: O_25  and  C_26
REMARK   13  A    between atoms: C_27  and  C_29
REMARK   14  A    between atoms: C_30  and  N_37
REMARK   15  A    between atoms: C_31  and  C_34
REMARK                            x       y       z     vdW  Elec       q    Type
REMARK                         _______ _______ _______ _____ _____    ______ ____
ROOT
ATOM      1  N   UNL     1      -5.940   2.660   0.037  0.00  0.00    -0.247 N 
ATOM      2  C   UNL     1      -5.059   1.707  -0.323  0.00  0.00    +0.262 C 
ATOM      3  O   UNL     1      -5.443   0.573  -0.540  0.00  0.00    -0.269 OA
ENDROOT
BRANCH   1   9
ATOM      4  C   UNL     1      -5.125   4.341   1.576  0.00  0.00    +0.142 A 
ATOM      5  C   UNL     1      -4.682   5.632   1.817  0.00  0.00    +0.047 A 
ATOM      6  C   UNL     1      -4.622   6.546   0.782  0.00  0.00    +0.004 A 
ATOM      7  C   UNL     1      -4.998   6.176  -0.496  0.00  0.00    +0.002 A 
ATOM      8  C   UNL     1      -5.435   4.889  -0.746  0.00  0.00    +0.027 A 
ATOM      9  C   UNL     1      -5.498   3.965   0.288  0.00  0.00    +0.079 A 
BRANCH   4  10
ATOM     10  O   UNL     1      -5.189   3.442   2.594  0.00  0.00    -0.490 OA
BRANCH  10  12
ATOM     11  C   UNL     1      -4.931   2.755   4.897  0.00  0.00    +0.048 C 
ATOM     12  C   UNL     1      -4.791   3.897   3.889  0.00  0.00    +0.226 C 
ENDBRANCH  10  12
ENDBRANCH   4  10
ENDBRANCH   1   9
BRANCH   2  13
ATOM     13  C   UNL     1      -3.638   2.035  -0.452  0.00  0.00    +0.116 A 
ATOM     14  C   UNL     1      -2.568   1.213  -0.813  0.00  0.00    +0.076 A 
ATOM     15  C   UNL     1      -1.351   1.893  -0.822  0.00  0.00    +0.155 A 
ATOM     16  N   UNL     1      -1.326   3.172  -0.517  0.00  0.00    -0.203 NA
ATOM     17  S   UNL     1      -2.811   3.592  -0.198  0.00  0.00    +0.019 S 
BRANCH  15  18
ATOM     18  C   UNL     1      -0.106   1.188  -1.175  0.00  0.00    +0.262 C 
ATOM     19  O   UNL     1      -0.136   0.005  -1.457  0.00  0.00    -0.269 OA
ATOM     20  N   UNL     1       1.065   1.854  -1.192  0.00  0.00    -0.324 N 
ATOM     21  H   UNL     1       1.884   1.391  -1.429  0.00  0.00    +0.145 HD
ATOM     22  H   UNL     1       1.090   2.798  -0.968  0.00  0.00    +0.145 HD
ENDBRANCH  15  18
BRANCH  14  23
ATOM     23  N   UNL     1      -2.702  -0.134  -1.124  0.00  0.00    -0.355 N 
ATOM     24  H   UNL     1      -1.921  -0.655  -1.365  0.00  0.00    +0.142 HD
ATOM     25  H   UNL     1      -3.577  -0.552  -1.101  0.00  0.00    +0.142 HD
ENDBRANCH  14  23
ENDBRANCH   2  13
BRANCH   1  26
ATOM     26  C   UNL     1      -7.362   2.332   0.167  0.00  0.00    +0.198 C 
BRANCH  26  27
ATOM     27  C   UNL     1      -7.856   2.763   1.524  0.00  0.00    -0.018 A 
ATOM     28  C   UNL     1      -8.258   1.815   2.446  0.00  0.00    +0.009 A 
ATOM     29  C   UNL     1      -8.706   2.208   3.692  0.00  0.00    +0.046 A 
ATOM     30  C   UNL     1      -8.763   3.556   4.014  0.00  0.00    +0.117 A 
ATOM     31  C   UNL     1      -8.365   4.506   3.085  0.00  0.00    +0.046 A 
ATOM     32  C   UNL     1      -7.912   4.108   1.842  0.00  0.00    +0.009 A 
BRANCH  30  33
ATOM     33  O   UNL     1      -9.209   3.945   5.237  0.00  0.00    -0.507 OA
ATOM     34  H   UNL     1     -10.164   4.097   5.278  0.00  0.00    +0.292 HD
ENDBRANCH  30  33
ENDBRANCH  26  27
BRANCH  26  35
ATOM     35  C   UNL     1      -8.143   3.050  -0.904  0.00  0.00    +0.239 C 
ATOM     36  O   UNL     1      -7.569   3.765  -1.697  0.00  0.00    -0.273 OA
ATOM     37  N   UNL     1      -9.480   2.896  -0.980  0.00  0.00    -0.311 N 
ATOM     38  H   UNL     1      -9.940   2.324  -0.346  0.00  0.00    +0.149 HD
BRANCH  37  39
ATOM     39  C   UNL     1     -10.239   3.594  -2.021  0.00  0.00    +0.132 C 
BRANCH  39  40
ATOM     40  C   UNL     1     -11.724   3.251  -1.886  0.00  0.00    +0.178 C 
BRANCH  40  41
ATOM     41  O   UNL     1     -12.221   3.763  -0.647  0.00  0.00    -0.381 OA
ATOM     42  C   UNL     1     -13.606   3.496  -0.422  0.00  0.00    +0.194 C 
ENDBRANCH  40  41
ENDBRANCH  39  40
ENDBRANCH  37  39
ENDBRANCH  26  35
ENDBRANCH   1  26
TORSDOF 13
