REMARK  Name = ZINC64227822
REMARK  5 active torsions:
REMARK  status: ('A' for Active; 'I' for Inactive)
REMARK    1  A    between atoms: C_3  and  C_15
REMARK    2  A    between atoms: C_5  and  N_7
REMARK    3  A    between atoms: C_8  and  C_10
REMARK    4  A    between atoms: C_15  and  N_16
REMARK    5  A    between atoms: N_23  and  C_26
REMARK                            x       y       z     vdW  Elec       q    Type
REMARK                         _______ _______ _______ _____ _____    ______ ____
ROOT
ATOM      1  C   UNL     1       3.497   2.112   0.120  0.00  0.00    +0.141 C 
ENDROOT
BRANCH   1   2
ATOM      2  N   UNL     1       3.780   2.232   1.553  0.00  0.00    -0.295 N 
ATOM      3  C   UNL     1       4.912   2.834   1.968  0.00  0.00    +0.302 C 
ATOM      4  O   UNL     1       5.652   3.362   1.161  0.00  0.00    -0.253 OA
ATOM      5  N   UNL     1       5.223   2.853   3.280  0.00  0.00    -0.287 N 
ATOM      6  C   UNL     1       6.517   3.430   3.696  0.00  0.00    +0.107 C 
ATOM      7  C   UNL     1       6.358   4.287   4.966  0.00  0.00    +0.000 C 
ATOM      8  C   UNL     1       5.072   5.079   4.881  0.00  0.00    -0.077 C 
ATOM      9  N   UNL     1       4.002   4.333   5.540  0.00  0.00    +0.383 N 
ATOM     10  C   UNL     1       3.315   3.418   4.711  0.00  0.00    -0.059 C 
ATOM     11  C   UNL     1       4.274   2.311   4.230  0.00  0.00    +0.091 C 
ATOM     12  H   UNL     1       3.153   1.876   2.202  0.00  0.00    +0.151 HD
ATOM     13  H   UNL     1       4.400   3.823   6.315  0.00  0.00    -0.081 HD
BRANCH   9  14
ATOM     14  C   UNL     1       3.029   5.294   6.076  0.00  0.00    -0.069 C 
ATOM     15  C   UNL     1       2.929   5.425   7.597  0.00  0.00    -0.017 C 
ATOM     16  C   UNL     1       1.813   4.731   6.815  0.00  0.00    -0.017 C 
ENDBRANCH   9  14
ENDBRANCH   1   2
BRANCH   1  19
ATOM     17  C   UNL     1      -0.202   1.487  -0.318  0.00  0.00    +0.002 A 
ATOM     18  C   UNL     1       1.008   2.133  -0.139  0.00  0.00    +0.005 A 
ATOM     19  C   UNL     1       2.181   1.404  -0.074  0.00  0.00    -0.029 A 
ATOM     20  C   UNL     1       2.149   0.028  -0.189  0.00  0.00    +0.028 A 
ATOM     21  C   UNL     1       0.936  -0.624  -0.369  0.00  0.00    +0.034 A 
ATOM     22  C   UNL     1      -0.241   0.111  -0.433  0.00  0.00    +0.023 A 
BRANCH  21  23
ATOM     23  N   UNL     1       0.900  -2.017  -0.486  0.00  0.00    -0.283 N 
ATOM     24  C   UNL     1      -0.137  -2.710   0.025  0.00  0.00    +0.246 C 
ATOM     25  O   UNL     1      -1.079  -2.120   0.512  0.00  0.00    -0.273 OA
ATOM     26  H   UNL     1       1.621  -2.485  -0.936  0.00  0.00    +0.155 HD
BRANCH  24  27
ATOM     27  C   UNL     1      -0.127  -4.216  -0.008  0.00  0.00    +0.204 C 
ATOM     28  C   UNL     1       0.974  -4.768   0.933  0.00  0.00    +0.043 C 
ATOM     29  C   UNL     1       0.412  -6.181   1.248  0.00  0.00    +0.031 C 
ATOM     30  C   UNL     1      -1.112  -5.933   1.259  0.00  0.00    +0.161 C 
ATOM     31  O   UNL     1      -1.361  -4.735   0.513  0.00  0.00    -0.367 OA
ENDBRANCH  24  27
ENDBRANCH  21  23
ENDBRANCH   1  19
TORSDOF 5
