REMARK  Name = ZINC36151384
REMARK  5 active torsions:
REMARK  status: ('A' for Active; 'I' for Inactive)
REMARK    1  A    between atoms: C_1  and  C_2
REMARK    2  A    between atoms: C_2  and  C_3
REMARK    3  A    between atoms: C_2  and  C_4
REMARK    4  A    between atoms: C_2  and  C_5
REMARK    5  A    between atoms: C_12  and  C_15
REMARK                            x       y       z     vdW  Elec       q    Type
REMARK                         _______ _______ _______ _____ _____    ______ ____
ROOT
ATOM      1  C   UNL     1       0.531  -0.285  -1.562  0.00  0.00    +0.103 C 
ATOM      2  C   UNL     1       0.466  -1.819  -1.498  0.00  0.00    +0.101 C 
ATOM      3  S   UNL     1       1.201  -2.450  -3.047  0.00  0.00    -0.083 S 
ATOM      4  C   UNL     1       2.580  -1.357  -3.222  0.00  0.00    +0.209 A 
ATOM      5  N   UNL     1       3.587  -1.429  -4.041  0.00  0.00    -0.121 NA
ATOM      6  N   UNL     1       4.369  -0.421  -3.854  0.00  0.00    -0.127 NA
ATOM      7  C   UNL     1       3.895   0.346  -2.896  0.00  0.00    +0.183 A 
ATOM      8  N   UNL     1       2.734  -0.235  -2.451  0.00  0.00    -0.221 N 
ATOM      9  N   UNL     1       1.913   0.183  -1.456  0.00  0.00    -0.277 N 
ATOM     10  H   UNL     1       1.948   1.186  -1.356  0.00  0.00    +0.167 HD
ENDROOT
BRANCH   7  11
ATOM     11  C   UNL     1       4.499   1.598  -2.394  0.00  0.00    +0.039 A 
ATOM     12  C   UNL     1       4.634   1.810  -1.022  0.00  0.00    +0.013 A 
ATOM     13  C   UNL     1       5.199   2.981  -0.560  0.00  0.00    +0.001 A 
ATOM     14  C   UNL     1       5.632   3.944  -1.454  0.00  0.00    +0.001 A 
ATOM     15  C   UNL     1       5.501   3.742  -2.816  0.00  0.00    +0.021 A 
ATOM     16  C   UNL     1       4.942   2.572  -3.292  0.00  0.00    +0.052 A 
ATOM     17 CL   UNL     1       4.785   2.316  -5.002  0.00  0.00    -0.083 Cl
ENDBRANCH   7  11
BRANCH   1  19
ATOM     18  C   UNL     1      -0.242   1.829  -0.478  0.00  0.00    +0.012 C 
ATOM     19  C   UNL     1      -0.288   0.301  -0.411  0.00  0.00    -0.017 C 
ATOM     20  C   UNL     1       0.297  -0.168   0.923  0.00  0.00    +0.012 C 
ATOM     21  C   UNL     1      -1.739  -0.170  -0.526  0.00  0.00    +0.012 C 
ENDBRANCH   1  19
TORSDOF 2
