REMARK  Name = ZINC05130058
REMARK  4 active torsions:
REMARK  status: ('A' for Active; 'I' for Inactive)
REMARK    1  A    between atoms: C_1  and  C_2
REMARK    2  A    between atoms: C_2  and  C_3
REMARK    3  A    between atoms: C_10  and  N_25
REMARK    4  A    between atoms: C_11  and  C_23
REMARK                            x       y       z     vdW  Elec       q    Type
REMARK                         _______ _______ _______ _____ _____    ______ ____
ROOT
ATOM      1  C   UNL     1       0.731  -0.503   1.223  0.00  0.00    +0.044 A 
ATOM      2  C   UNL     1       0.198  -0.697   2.438  0.00  0.00    +0.061 A 
ATOM      3  C   UNL     1       1.220  -1.170   3.295  0.00  0.00    +0.245 A 
ATOM      4  N   UNL     1       2.318  -1.252   2.602  0.00  0.00    -0.135 NA
ATOM      5  N   UNL     1       2.039  -0.842   1.289  0.00  0.00    -0.278 N 
ATOM      6  H   UNL     1       2.674  -0.806   0.556  0.00  0.00    +0.189 HD
ATOM      7  O   UNL     1       0.985  -1.459   4.602  0.00  0.00    -0.421 OA
ATOM      8  C   UNL     1      -0.178  -1.040   5.139  0.00  0.00    +0.201 C 
ATOM      9  C   UNL     1      -1.228  -0.580   4.423  0.00  0.00    +0.110 C 
ATOM     10  C   UNL     1      -1.209  -0.486   2.923  0.00  0.00    +0.145 C 
ATOM     11  C   UNL     1      -2.149  -1.471   2.306  0.00  0.00    -0.000 A 
ATOM     12  C   UNL     1      -2.197  -2.848   2.358  0.00  0.00    +0.027 A 
ATOM     13  C   UNL     1      -3.224  -3.471   1.655  0.00  0.00    +0.041 A 
ATOM     14  C   UNL     1      -4.151  -2.740   0.939  0.00  0.00    +0.022 A 
ATOM     15  C   UNL     1      -4.109  -1.355   0.883  0.00  0.00    +0.025 A 
ATOM     16  C   UNL     1      -3.084  -0.718   1.584  0.00  0.00    +0.038 A 
ATOM     17  N   UNL     1      -2.808   0.633   1.702  0.00  0.00    -0.284 N 
ATOM     18  C   UNL     1      -1.724   0.863   2.472  0.00  0.00    +0.238 C 
ATOM     19  O   UNL     1      -1.252   1.945   2.750  0.00  0.00    -0.274 OA
ATOM     20 CL   UNL     1      -3.341  -5.203   1.679  0.00  0.00    -0.084 Cl
ATOM     21  H   UNL     1      -3.332   1.332   1.280  0.00  0.00    +0.155 HD
ENDROOT
BRANCH   8  22
ATOM     22  N   UNL     1      -0.305  -1.084   6.505  0.00  0.00    -0.328 N 
ATOM     23  H   UNL     1       0.429  -1.409   7.050  0.00  0.00    +0.145 HD
ATOM     24  H   UNL     1      -1.128  -0.790   6.926  0.00  0.00    +0.145 HD
ENDBRANCH   8  22
BRANCH   1  26
ATOM     25  C   UNL     1      -0.019   1.526   0.010  0.00  0.00    +0.010 C 
ATOM     26  C   UNL     1       0.002  -0.004   0.002  0.00  0.00    +0.052 C 
ENDBRANCH   1  26
BRANCH   9  27
ATOM     27  C   UNL     1      -2.407  -0.165   5.122  0.00  0.00    +0.102 C 
ATOM     28  N   UNL     1      -3.342   0.165   5.677  0.00  0.00    -0.191 NA
ENDBRANCH   9  27
TORSDOF 3
