REMARK  Name = ZINC42349841
REMARK  5 active torsions:
REMARK  status: ('A' for Active; 'I' for Inactive)
REMARK    1  A    between atoms: C_1  and  N_2
REMARK    2  A    between atoms: C_6  and  S_7
REMARK    3  A    between atoms: S_7  and  C_8
REMARK    4  A    between atoms: C_8  and  C_9
REMARK    5  A    between atoms: N_14  and  C_15
REMARK                            x       y       z     vdW  Elec       q    Type
REMARK                         _______ _______ _______ _____ _____    ______ ____
ROOT
ATOM      1  C   UNL     1       0.071  -1.503   5.207  0.00  0.00    +0.231 C 
ATOM      2  O   UNL     1       0.059  -0.349   5.578  0.00  0.00    -0.274 OA
ATOM      3  N   UNL     1       0.093  -2.501   6.113  0.00  0.00    -0.239 N 
ATOM      4  C   UNL     1       0.102  -2.216   7.430  0.00  0.00    +0.306 C 
ATOM      5  O   UNL     1       0.089  -1.059   7.801  0.00  0.00    -0.252 OA
ATOM      6  N   UNL     1       0.124  -3.214   8.335  0.00  0.00    -0.296 N 
ATOM      7  H   UNL     1       0.103  -3.425   5.816  0.00  0.00    +0.159 HD
ATOM      8  H   UNL     1       0.134  -4.138   8.039  0.00  0.00    +0.151 HD
ENDROOT
BRANCH   6   9
ATOM      9  C   UNL     1       0.133  -2.904   9.767  0.00  0.00    +0.074 C 
ATOM     10  C   UNL     1       1.571  -2.654  10.226  0.00  0.00    +0.022 C 
ATOM     11  C   UNL     1       1.581  -2.330  11.721  0.00  0.00    +0.002 C 
ATOM     12  C   UNL     1       0.994  -3.508  12.502  0.00  0.00    +0.000 C 
ATOM     13  C   UNL     1      -0.444  -3.759  12.043  0.00  0.00    +0.002 C 
ATOM     14  C   UNL     1      -0.453  -4.082  10.548  0.00  0.00    +0.022 C 
ENDBRANCH   6   9
BRANCH   1  15
ATOM     15  C   UNL     1       0.062  -1.822   3.735  0.00  0.00    +0.173 C 
BRANCH  15  16
ATOM     16  S   UNL     1       0.032  -0.278   2.782  0.00  0.00    -0.077 S 
BRANCH  16  22
ATOM     17  C   UNL     1      -0.018   1.461   0.010  0.00  0.00    +0.154 C 
ATOM     18  N   UNL     1       0.002  -0.004   0.002  0.00  0.00    -0.294 N 
ATOM     19  C   UNL     1       0.008  -0.801  -1.108  0.00  0.00    +0.215 A 
ATOM     20  N   UNL     1       0.028  -2.049  -0.710  0.00  0.00    -0.113 NA
ATOM     21  N   UNL     1       0.034  -2.058   0.691  0.00  0.00    -0.121 NA
ATOM     22  C   UNL     1       0.024  -0.813   1.103  0.00  0.00    +0.193 A 
ATOM     23  N   UNL     1      -0.004  -0.364  -2.426  0.00  0.00    -0.328 N 
ATOM     24  H   UNL     1      -0.019   0.586  -2.622  0.00  0.00    +0.145 HD
ATOM     25  H   UNL     1       0.002  -1.009  -3.151  0.00  0.00    +0.145 HD
ENDBRANCH  16  22
ENDBRANCH  15  16
ENDBRANCH   1  15
TORSDOF 4
