REMARK  Name = ZINC50565994
REMARK  10 active torsions:
REMARK  status: ('A' for Active; 'I' for Inactive)
REMARK    1  A    between atoms: C_1  and  C_2
REMARK    2  A    between atoms: C_8  and  C_10
REMARK    3  A    between atoms: C_11  and  C_13
REMARK    4  A    between atoms: C_13  and  C_15
REMARK    5  A    between atoms: C_13  and  N_16
REMARK    6  A    between atoms: C_17  and  O_19
REMARK    7  A    between atoms: O_19  and  C_20
REMARK    8  A    between atoms: C_20  and  C_21
REMARK    9  A    between atoms: C_20  and  C_22
REMARK   10  A    between atoms: C_20  and  C_23
REMARK                            x       y       z     vdW  Elec       q    Type
REMARK                         _______ _______ _______ _____ _____    ______ ____
ROOT
ATOM      1  C   UNL     1       0.422  -4.279   1.836  0.00  0.00    +0.159 C 
ATOM      2  C   UNL     1       1.867  -4.764   1.704  0.00  0.00    +0.038 C 
ENDROOT
BRANCH   1  11
ATOM      3  C   UNL     1      -0.453   1.559   0.157  0.00  0.00    +0.009 C 
ATOM      4  C   UNL     1      -0.407   0.031   0.088  0.00  0.00    +0.006 C 
ATOM      5  C   UNL     1       0.120  -0.403  -1.282  0.00  0.00    +0.006 C 
ATOM      6  C   UNL     1       0.136  -1.931  -1.363  0.00  0.00    +0.019 C 
ATOM      7  C   UNL     1       1.074  -2.486  -0.286  0.00  0.00    +0.108 C 
ATOM      8  N   UNL     1       0.660  -1.956   1.020  0.00  0.00    -0.297 N 
ATOM      9  C   UNL     1       0.524  -0.502   1.182  0.00  0.00    +0.076 C 
ATOM     10  C   UNL     1      -0.070  -0.191   2.557  0.00  0.00    +0.028 C 
ATOM     11  C   UNL     1       0.410  -2.787   2.051  0.00  0.00    +0.236 C 
ATOM     12  O   UNL     1       0.176  -2.335   3.152  0.00  0.00    -0.274 OA
ENDBRANCH   1  11
BRANCH   1  13
ATOM     13  N   UNL     1      -0.213  -4.942   2.978  0.00  0.00    -0.270 N 
ATOM     14  C   UNL     1      -0.772  -6.159   2.825  0.00  0.00    +0.401 C 
ATOM     15  O   UNL     1      -0.749  -6.706   1.740  0.00  0.00    -0.226 OA
ATOM     16  H   UNL     1      -0.232  -4.505   3.843  0.00  0.00    +0.153 HD
BRANCH  14  17
ATOM     17  O   UNL     1      -1.356  -6.768   3.874  0.00  0.00    -0.445 OA
BRANCH  17  18
ATOM     18  C   UNL     1      -1.928  -8.056   3.640  0.00  0.00    +0.107 C 
ATOM     19  C   UNL     1      -0.839  -9.018   3.160  0.00  0.00    +0.055 C 
ATOM     20  C   UNL     1      -2.540  -8.586   4.938  0.00  0.00    +0.055 C 
ATOM     21  C   UNL     1      -3.017  -7.944   2.571  0.00  0.00    +0.055 C 
ENDBRANCH  17  18
ENDBRANCH  14  17
ENDBRANCH   1  13
TORSDOF 4
