REMARK  Name = ZINC67556405
REMARK  6 active torsions:
REMARK  status: ('A' for Active; 'I' for Inactive)
REMARK    1  A    between atoms: C_1  and  C_2
REMARK    2  A    between atoms: C_5  and  N_11
REMARK    3  A    between atoms: C_7  and  C_8
REMARK    4  A    between atoms: C_12  and  C_14
REMARK    5  A    between atoms: C_19  and  C_22
REMARK    6  A    between atoms: C_25  and  O_28
REMARK                            x       y       z     vdW  Elec       q    Type
REMARK                         _______ _______ _______ _____ _____    ______ ____
ROOT
ATOM      1  N   UNL     1       0.161  -4.215  -0.313  0.00  0.00    -0.278 N 
ATOM      2  C   UNL     1       0.146  -4.770  -1.541  0.00  0.00    +0.303 C 
ATOM      3  O   UNL     1       0.005  -4.069  -2.522  0.00  0.00    -0.265 OA
ATOM      4  H   UNL     1       0.194  -4.781   0.475  0.00  0.00    +0.155 HD
ENDROOT
BRANCH   2   5
ATOM      5  C   UNL     1       0.302  -6.248  -1.695  0.00  0.00    +0.302 C 
ATOM      6  O   UNL     1       0.333  -6.960  -0.713  0.00  0.00    -0.265 OA
ATOM      7  N   UNL     1       0.410  -6.789  -2.924  0.00  0.00    -0.290 N 
ATOM      8  C   UNL     1       0.461  -8.249  -3.116  0.00  0.00    +0.113 C 
ATOM      9  C   UNL     1      -0.758  -8.659  -3.946  0.00  0.00    +0.054 C 
ATOM     10  C   UNL     1      -0.933  -7.731  -5.111  0.00  0.00    -0.041 C 
ATOM     11  C   UNL     1      -0.398  -6.537  -5.194  0.00  0.00    -0.004 C 
ATOM     12  C   UNL     1       0.476  -5.948  -4.127  0.00  0.00    +0.135 C 
BRANCH  10  13
ATOM     13  C   UNL     1      -1.764  -8.194  -6.242  0.00  0.00    -0.022 A 
ATOM     14  C   UNL     1      -3.129  -8.420  -6.062  0.00  0.00    +0.012 A 
ATOM     15  C   UNL     1      -3.900  -8.852  -7.120  0.00  0.00    +0.046 A 
ATOM     16  C   UNL     1      -3.321  -9.063  -8.363  0.00  0.00    +0.117 A 
ATOM     17  C   UNL     1      -1.962  -8.841  -8.547  0.00  0.00    +0.046 A 
ATOM     18  C   UNL     1      -1.185  -8.402  -7.496  0.00  0.00    +0.012 A 
BRANCH  16  19
ATOM     19  O   UNL     1      -4.084  -9.489  -9.403  0.00  0.00    -0.507 OA
ATOM     20  H   UNL     1      -4.473  -8.774  -9.925  0.00  0.00    +0.292 HD
ENDBRANCH  16  19
ENDBRANCH  10  13
ENDBRANCH   2   5
BRANCH   1  25
ATOM     21  C   UNL     1       0.016   1.433   0.281  0.00  0.00    +0.044 C 
ATOM     22  C   UNL     1       0.055  -0.065   0.120  0.00  0.00    -0.038 A 
ATOM     23  C   UNL     1      -0.449  -0.879   1.115  0.00  0.00    +0.006 A 
ATOM     24  C   UNL     1      -0.414  -2.253   0.972  0.00  0.00    +0.023 A 
ATOM     25  C   UNL     1       0.128  -2.825  -0.174  0.00  0.00    +0.035 A 
ATOM     26  C   UNL     1       0.636  -2.016  -1.178  0.00  0.00    +0.036 A 
ATOM     27  C   UNL     1       0.597  -0.629  -1.036  0.00  0.00    +0.041 A 
BRANCH  27  28
ATOM     28  C   UNL     1       1.131   0.242  -2.105  0.00  0.00    +0.242 C 
ATOM     29  O   UNL     1       1.168   1.446  -1.947  0.00  0.00    -0.270 OA
ATOM     30  N   UNL     1       1.579  -0.300  -3.255  0.00  0.00    -0.325 N 
ATOM     31  H   UNL     1       1.550  -1.262  -3.381  0.00  0.00    +0.145 HD
ATOM     32  H   UNL     1       1.930   0.271  -3.956  0.00  0.00    +0.145 HD
ENDBRANCH  27  28
ENDBRANCH   1  25
TORSDOF 5
