REMARK  Name = ZINC15290667
REMARK  3 active torsions:
REMARK  status: ('A' for Active; 'I' for Inactive)
REMARK    1  A    between atoms: C_3  and  N_9
REMARK    2  A    between atoms: N_9  and  C_10
REMARK    3  A    between atoms: C_10  and  C_11
REMARK                            x       y       z     vdW  Elec       q    Type
REMARK                         _______ _______ _______ _____ _____    ______ ____
ROOT
ATOM      1  N   UNL     1      -1.236   2.068   0.019  0.00  0.00    -0.334 N 
ATOM      2  H   UNL     1      -1.248   3.038   0.025  0.00  0.00    +0.147 HD
ENDROOT
BRANCH   1   5
ATOM      3  C   UNL     1       1.208  -0.677  -0.013  0.00  0.00    +0.022 A 
ATOM      4  C   UNL     1       0.002  -0.004   0.002  0.00  0.00    +0.026 A 
ATOM      5  C   UNL     1      -0.017   1.384   0.010  0.00  0.00    +0.046 A 
ATOM      6  C   UNL     1       1.179   2.093   0.002  0.00  0.00    +0.063 A 
ATOM      7  C   UNL     1       2.382   1.414  -0.013  0.00  0.00    +0.041 A 
ATOM      8  C   UNL     1       2.397   0.030  -0.021  0.00  0.00    +0.042 A 
ATOM      9 CL   UNL     1       3.911  -0.820  -0.041  0.00  0.00    -0.083 Cl
ATOM     10 CL   UNL     1       1.161   3.829   0.011  0.00  0.00    -0.082 Cl
ENDBRANCH   1   5
BRANCH   1  11
ATOM     11  C   UNL     1      -2.496   1.320   0.021  0.00  0.00    +0.198 C 
BRANCH  11  12
ATOM     12  C   UNL     1      -3.653   2.285   0.032  0.00  0.00    +0.237 C 
ATOM     13  O   UNL     1      -3.446   3.479   0.037  0.00  0.00    -0.274 OA
ATOM     14  N   UNL     1      -4.918   1.820   0.035  0.00  0.00    -0.239 N 
ATOM     15  C   UNL     1      -5.953   2.683   0.045  0.00  0.00    +0.303 C 
ATOM     16  O   UNL     1      -5.746   3.880   0.050  0.00  0.00    -0.253 OA
ATOM     17  N   UNL     1      -7.218   2.217   0.048  0.00  0.00    -0.313 N 
ATOM     18  H   UNL     1      -5.084   0.864   0.031  0.00  0.00    +0.159 HD
ATOM     19  H   UNL     1      -7.384   1.262   0.044  0.00  0.00    +0.146 HD
ATOM     20  H   UNL     1      -7.963   2.839   0.055  0.00  0.00    +0.146 HD
ENDBRANCH  11  12
ENDBRANCH   1  11
TORSDOF 3
