REMARK  Name = ZINC65181660
REMARK  11 active torsions:
REMARK  status: ('A' for Active; 'I' for Inactive)
REMARK    1  A    between atoms: C_1  and  C_2
REMARK    2  A    between atoms: C_6  and  N_9
REMARK    3  A    between atoms: C_7  and  C_8
REMARK    4  A    between atoms: C_13  and  S_14
REMARK    5  A    between atoms: S_14  and  C_15
REMARK    6  A    between atoms: C_15  and  C_16
REMARK    7  A    between atoms: N_18  and  N_19
REMARK    8  A    between atoms: N_22  and  C_23
REMARK    9  A    between atoms: C_23  and  C_24
REMARK   10  A    between atoms: C_24  and  C_25
REMARK   11  A    between atoms: C_24  and  C_26
REMARK                            x       y       z     vdW  Elec       q    Type
REMARK                         _______ _______ _______ _____ _____    ______ ____
ROOT
ATOM      1  C   UNL     1      -3.321  -2.406   4.780  0.00  0.00    +0.174 C 
ENDROOT
BRANCH   1   2
ATOM      2  C   UNL     1      -4.665  -1.725   4.827  0.00  0.00    +0.239 C 
ATOM      3  O   UNL     1      -5.015  -1.010   3.912  0.00  0.00    -0.273 OA
ATOM      4  N   UNL     1      -5.478  -1.912   5.886  0.00  0.00    -0.233 N 
ATOM      5  H   UNL     1      -5.197  -2.484   6.617  0.00  0.00    +0.173 HD
BRANCH   4   6
ATOM      6  N   UNL     1      -6.727  -1.279   5.930  0.00  0.00    -0.218 N 
ATOM      7  C   UNL     1      -7.540  -1.466   6.989  0.00  0.00    +0.316 C 
ATOM      8  O   UNL     1      -8.624  -0.916   7.027  0.00  0.00    -0.251 OA
ATOM      9  N   UNL     1      -7.151  -2.260   8.005  0.00  0.00    -0.298 N 
ATOM     10  H   UNL     1      -7.007  -0.707   5.198  0.00  0.00    +0.174 HD
ATOM     11  H   UNL     1      -6.286  -2.699   7.975  0.00  0.00    +0.150 HD
BRANCH   9  12
ATOM     12  C   UNL     1      -8.034  -2.463   9.156  0.00  0.00    +0.108 C 
BRANCH  12  13
ATOM     13  C   UNL     1      -7.359  -3.401  10.159  0.00  0.00    -0.000 C 
ATOM     14  C   UNL     1      -8.225  -3.514  11.415  0.00  0.00    +0.009 C 
ATOM     15  C   UNL     1      -7.190  -4.785   9.529  0.00  0.00    +0.009 C 
ENDBRANCH  12  13
ENDBRANCH   9  12
ENDBRANCH   4   6
ENDBRANCH   1   2
BRANCH   1  16
ATOM     16  S   UNL     1      -2.471  -1.960   3.240  0.00  0.00    -0.078 S 
BRANCH  16  21
ATOM     17  N   UNL     1       0.051  -2.798   2.395  0.00  0.00    -0.294 N 
ATOM     18  C   UNL     1       1.070  -3.600   2.864  0.00  0.00    +0.113 A 
ATOM     19  C   UNL     1       0.672  -4.083   4.053  0.00  0.00    +0.131 A 
ATOM     20  N   UNL     1      -0.553  -3.601   4.319  0.00  0.00    -0.230 NA
ATOM     21  C   UNL     1      -0.938  -2.823   3.334  0.00  0.00    +0.174 A 
BRANCH  17  27
ATOM     22  C   UNL     1      -0.018   1.503   0.010  0.00  0.00    +0.044 C 
ATOM     23  C   UNL     1       0.002  -0.004   0.002  0.00  0.00    -0.046 A 
ATOM     24  C   UNL     1       0.006  -0.688  -1.200  0.00  0.00    +0.004 A 
ATOM     25  C   UNL     1       0.024  -2.071  -1.212  0.00  0.00    +0.002 A 
ATOM     26  C   UNL     1       0.039  -2.773  -0.022  0.00  0.00    +0.026 A 
ATOM     27  C   UNL     1       0.036  -2.089   1.186  0.00  0.00    +0.052 A 
ATOM     28  C   UNL     1       0.023  -0.700   1.194  0.00  0.00    -0.024 A 
ATOM     29  C   UNL     1       0.025   0.046   2.504  0.00  0.00    +0.046 C 
ENDBRANCH  17  27
ENDBRANCH  16  21
ENDBRANCH   1  16
TORSDOF 7
