REMARK  Name = ZINC61463278
REMARK  7 active torsions:
REMARK  status: ('A' for Active; 'I' for Inactive)
REMARK    1  A    between atoms: C_1  and  N_2
REMARK    2  A    between atoms: N_2  and  C_3
REMARK    3  A    between atoms: C_8  and  C_9
REMARK    4  A    between atoms: N_11  and  N_12
REMARK    5  A    between atoms: C_13  and  C_15
REMARK    6  A    between atoms: C_18  and  C_21
REMARK    7  A    between atoms: C_23  and  C_25
REMARK                            x       y       z     vdW  Elec       q    Type
REMARK                         _______ _______ _______ _____ _____    ______ ____
ROOT
ATOM      1  C   UNL     1       2.517  -0.661   1.159  0.00  0.00    +0.262 C 
ATOM      2  O   UNL     1       2.507  -0.048   0.109  0.00  0.00    -0.269 OA
ATOM      3  N   UNL     1       3.690  -0.989   1.736  0.00  0.00    -0.230 N 
ATOM      4  H   UNL     1       3.699  -1.478   2.574  0.00  0.00    +0.173 HD
ENDROOT
BRANCH   1  10
ATOM      5  C   UNL     1       0.023  -0.707   1.204  0.00  0.00    +0.048 A 
ATOM      6  C   UNL     1      -1.167  -1.080   1.815  0.00  0.00    +0.024 A 
ATOM      7  C   UNL     1      -1.144  -1.776   3.007  0.00  0.00    +0.002 A 
ATOM      8  C   UNL     1       0.063  -2.108   3.602  0.00  0.00    +0.001 A 
ATOM      9  C   UNL     1       1.254  -1.746   3.010  0.00  0.00    +0.015 A 
ATOM     10  C   UNL     1       1.246  -1.046   1.801  0.00  0.00    +0.059 A 
BRANCH   5  12
ATOM     11  C   UNL     1      -0.018   1.461   0.010  0.00  0.00    +0.138 C 
ATOM     12  N   UNL     1       0.002  -0.004   0.002  0.00  0.00    -0.274 N 
ATOM     13  C   UNL     1       0.000  -0.672  -1.169  0.00  0.00    +0.223 C 
ATOM     14  O   UNL     1       0.017  -1.884  -1.175  0.00  0.00    -0.275 OA
BRANCH  13  15
ATOM     15  C   UNL     1      -0.023   0.089  -2.470  0.00  0.00    +0.076 C 
ATOM     16  C   UNL     1      -1.293   0.001  -3.317  0.00  0.00    +0.013 C 
ATOM     17  C   UNL     1      -0.024  -0.726  -3.764  0.00  0.00    +0.013 C 
ENDBRANCH  13  15
ENDBRANCH   5  12
ENDBRANCH   1  10
BRANCH   3  18
ATOM     18  N   UNL     1       4.897  -0.623   1.126  0.00  0.00    -0.230 N 
ATOM     19  C   UNL     1       6.070  -0.951   1.704  0.00  0.00    +0.260 C 
ATOM     20  O   UNL     1       6.081  -1.564   2.753  0.00  0.00    -0.269 OA
ATOM     21  H   UNL     1       4.889  -0.134   0.289  0.00  0.00    +0.173 HD
BRANCH  19  22
ATOM     22  C   UNL     1       7.345  -0.565   1.060  0.00  0.00    +0.038 A 
ATOM     23  C   UNL     1       7.332   0.144  -0.143  0.00  0.00    +0.014 A 
ATOM     24  C   UNL     1       8.519   0.504  -0.742  0.00  0.00    +0.019 A 
ATOM     25  C   UNL     1       9.735   0.160  -0.147  0.00  0.00    +0.052 A 
ATOM     26  C   UNL     1       9.747  -0.549   1.056  0.00  0.00    +0.019 A 
ATOM     27  C   UNL     1       8.560  -0.905   1.658  0.00  0.00    +0.014 A 
BRANCH  25  28
ATOM     28  C   UNL     1      10.969   0.534  -0.770  0.00  0.00    +0.099 C 
ATOM     29  N   UNL     1      11.947   0.830  -1.265  0.00  0.00    -0.191 NA
ENDBRANCH  25  28
ENDBRANCH  19  22
ENDBRANCH   3  18
TORSDOF 6
