REMARK  Name = ZINC32066617
REMARK  5 active torsions:
REMARK  status: ('A' for Active; 'I' for Inactive)
REMARK    1  A    between atoms: C_4  and  O_23
REMARK    2  A    between atoms: C_5  and  C_7
REMARK    3  A    between atoms: C_7  and  C_9
REMARK    4  A    between atoms: C_7  and  N_11
REMARK    5  A    between atoms: C_9  and  N_10
REMARK                            x       y       z     vdW  Elec       q    Type
REMARK                         _______ _______ _______ _____ _____    ______ ____
ROOT
ATOM      1  C   UNL     1       2.257   4.045   0.096  0.00  0.00    +0.073 C 
ENDROOT
BRANCH   1   2
ATOM      2  N   UNL     1       3.295   3.069   0.457  0.00  0.00    -0.294 NA
ATOM      3  C   UNL     1       3.163   2.654   1.860  0.00  0.00    +0.104 C 
ATOM      4  C   UNL     1       4.210   1.582   2.172  0.00  0.00    +0.123 C 
ATOM      5  N   UNL     1       5.552   2.119   1.909  0.00  0.00    -0.297 N 
ATOM      6  C   UNL     1       5.684   2.535   0.505  0.00  0.00    +0.123 C 
ATOM      7  C   UNL     1       4.637   3.607   0.193  0.00  0.00    +0.104 C 
ATOM      8  C   UNL     1       6.530   1.201   2.248  0.00  0.00    +0.218 A 
ATOM      9  N   UNL     1       7.408   0.822   1.331  0.00  0.00    -0.223 NA
ATOM     10  C   UNL     1       8.358  -0.050   1.624  0.00  0.00    +0.116 A 
ATOM     11  C   UNL     1       8.421  -0.577   2.905  0.00  0.00    +0.039 A 
ATOM     12  C   UNL     1       7.483  -0.164   3.838  0.00  0.00    +0.116 A 
ATOM     13  N   UNL     1       6.562   0.716   3.481  0.00  0.00    -0.223 NA
ENDBRANCH   1   2
BRANCH   1  18
ATOM     14  C   UNL     1       2.630   3.283  -3.583  0.00  0.00    +0.001 A 
ATOM     15  C   UNL     1       1.445   3.781  -4.093  0.00  0.00    +0.004 A 
ATOM     16  C   UNL     1       0.516   4.357  -3.248  0.00  0.00    +0.046 A 
ATOM     17  C   UNL     1       0.778   4.445  -1.888  0.00  0.00    +0.121 A 
ATOM     18  C   UNL     1       1.970   3.950  -1.380  0.00  0.00    +0.009 A 
ATOM     19  C   UNL     1       2.893   3.370  -2.228  0.00  0.00    +0.009 A 
BRANCH  17  20
ATOM     20  O   UNL     1      -0.132   5.016  -1.056  0.00  0.00    -0.506 OA
ATOM     21  H   UNL     1       0.076   5.085   0.022  0.00  0.00    +0.292 HD
ENDBRANCH  17  20
ENDBRANCH   1  18
BRANCH   1  22
ATOM     22  C   UNL     1       2.745   5.455   0.431  0.00  0.00    -0.062 C 
BRANCH  22  23
ATOM     23  N   UNL     1       3.035   5.545   1.869  0.00  0.00    +0.379 N 
ATOM     24  H   UNL     1       3.386   6.559   2.110  0.00  0.00    -0.090 HD
ATOM     25  H   UNL     1       3.816   4.815   2.131  0.00  0.00    -0.090 HD
ATOM     26  H   UNL     1       2.122   5.327   2.442  0.00  0.00    -0.090 HD
ENDBRANCH  22  23
ENDBRANCH   1  22
TORSDOF 5
