REMARK  Name = ZINC34774668
REMARK  7 active torsions:
REMARK  status: ('A' for Active; 'I' for Inactive)
REMARK    1  A    between atoms: C_4  and  C_7
REMARK    2  A    between atoms: C_7  and  C_8
REMARK    3  A    between atoms: C_8  and  S_9
REMARK    4  A    between atoms: S_9  and  C_10
REMARK    5  A    between atoms: C_14  and  C_19
REMARK    6  A    between atoms: N_28  and  C_31
REMARK    7  A    between atoms: C_31  and  C_32
REMARK                            x       y       z     vdW  Elec       q    Type
REMARK                         _______ _______ _______ _____ _____    ______ ____
ROOT
ATOM      1  C   UNL     1       6.332  -1.654   3.275  0.00  0.00    +0.191 A 
ATOM      2  N   UNL     1       7.481  -2.215   3.632  0.00  0.00    -0.206 NA
ATOM      3  C   UNL     1       7.874  -2.268   4.893  0.00  0.00    +0.134 A 
ATOM      4  C   UNL     1       7.047  -1.710   5.905  0.00  0.00    +0.055 A 
ATOM      5  C   UNL     1       7.259  -1.645   7.348  0.00  0.00    +0.002 A 
ATOM      6  C   UNL     1       6.316  -1.054   8.119  0.00  0.00    +0.056 A 
ATOM      7  S   UNL     1       5.077  -0.546   6.944  0.00  0.00    -0.076 S 
ATOM      8  C   UNL     1       5.843  -1.131   5.455  0.00  0.00    +0.115 A 
ATOM      9  N   UNL     1       5.523  -1.113   4.176  0.00  0.00    -0.215 NA
ATOM     10  N   UNL     1       9.078  -2.862   5.225  0.00  0.00    -0.318 N 
ATOM     11  C   UNL     1       9.232  -4.325   5.200  0.00  0.00    +0.088 C 
ATOM     12  C   UNL     1      10.486  -4.668   4.388  0.00  0.00    -0.059 C 
ATOM     13  N   UNL     1      11.639  -3.946   4.942  0.00  0.00    +0.387 N 
ATOM     14  C   UNL     1      11.447  -2.499   4.781  0.00  0.00    -0.059 C 
ATOM     15  C   UNL     1      10.243  -2.049   5.607  0.00  0.00    +0.088 C 
ATOM     16  H   UNL     1      11.732  -4.165   5.922  0.00  0.00    -0.081 HD
ENDROOT
BRANCH   5  17
ATOM     17  C   UNL     1       8.483  -2.216   7.958  0.00  0.00    -0.017 A 
ATOM     18  C   UNL     1       8.771  -3.572   7.811  0.00  0.00    +0.008 A 
ATOM     19  C   UNL     1       9.913  -4.098   8.381  0.00  0.00    +0.001 A 
ATOM     20  C   UNL     1      10.771  -3.282   9.095  0.00  0.00    +0.000 A 
ATOM     21  C   UNL     1      10.491  -1.935   9.244  0.00  0.00    +0.001 A 
ATOM     22  C   UNL     1       9.355  -1.397   8.675  0.00  0.00    +0.008 A 
ENDBRANCH   5  17
BRANCH   1  23
ATOM     23  S   UNL     1       5.877  -1.621   1.573  0.00  0.00    -0.086 S 
BRANCH  23  24
ATOM     24  C   UNL     1       4.275  -0.770   1.563  0.00  0.00    +0.082 C 
BRANCH  24  25
ATOM     25  C   UNL     1       3.759  -0.672   0.126  0.00  0.00    +0.046 C 
BRANCH  25  29
ATOM     26  C   UNL     1      -0.013   1.332   0.101  0.00  0.00    +0.000 A 
ATOM     27  C   UNL     1       1.156   2.059  -0.023  0.00  0.00    +0.000 A 
ATOM     28  C   UNL     1       2.377   1.410  -0.015  0.00  0.00    +0.003 A 
ATOM     29  C   UNL     1       2.428   0.035   0.118  0.00  0.00    -0.047 A 
ATOM     30  C   UNL     1       1.258  -0.691   0.243  0.00  0.00    +0.003 A 
ATOM     31  C   UNL     1       0.038  -0.043   0.233  0.00  0.00    +0.000 A 
ENDBRANCH  25  29
ENDBRANCH  24  25
ENDBRANCH  23  24
ENDBRANCH   1  23
BRANCH  13  32
ATOM     32  C   UNL     1      12.858  -4.359   4.234  0.00  0.00    +0.018 C 
BRANCH  32  33
ATOM     33  C   UNL     1      14.057  -3.713   4.880  0.00  0.00    +0.194 C 
ATOM     34  O   UNL     1      13.910  -2.982   5.836  0.00  0.00    -0.278 OA
ATOM     35  N   UNL     1      15.292  -3.949   4.395  0.00  0.00    -0.331 N 
ATOM     36  H   UNL     1      15.410  -4.534   3.630  0.00  0.00    +0.145 HD
ATOM     37  H   UNL     1      16.064  -3.533   4.811  0.00  0.00    +0.145 HD
ENDBRANCH  32  33
ENDBRANCH  13  32
TORSDOF 7
