REMARK  Name = ZINC15321281
REMARK  10 active torsions:
REMARK  status: ('A' for Active; 'I' for Inactive)
REMARK    1  A    between atoms: C_1  and  C_2
REMARK    2  A    between atoms: C_3  and  N_9
REMARK    3  A    between atoms: C_10  and  C_12
REMARK    4  A    between atoms: C_12  and  N_13
REMARK    5  A    between atoms: C_14  and  C_16
REMARK    6  A    between atoms: C_16  and  N_17
REMARK    7  A    between atoms: N_17  and  C_18
REMARK    8  A    between atoms: C_23  and  C_24
REMARK    9  A    between atoms: N_26  and  C_27
REMARK   10  A    between atoms: C_27  and  C_28
REMARK                            x       y       z     vdW  Elec       q    Type
REMARK                         _______ _______ _______ _____ _____    ______ ____
ROOT
ATOM      1  C   UNL     1      -3.086   7.928  -0.465  0.00  0.00    +0.197 C 
ENDROOT
BRANCH   1   3
ATOM      2  N   UNL     1      -1.407   6.121  -0.290  0.00  0.00    -0.305 N 
ATOM      3  C   UNL     1      -1.662   7.441  -0.385  0.00  0.00    +0.231 C 
ATOM      4  O   UNL     1      -0.747   8.236  -0.405  0.00  0.00    -0.274 OA
ATOM      5  H   UNL     1      -2.139   5.485  -0.274  0.00  0.00    +0.149 HD
BRANCH   2   6
ATOM      6  C   UNL     1      -0.022   5.646  -0.213  0.00  0.00    +0.200 C 
BRANCH   6   8
ATOM      7  N   UNL     1       1.160   3.481  -0.032  0.00  0.00    -0.284 N 
ATOM      8  C   UNL     1      -0.011   4.143  -0.115  0.00  0.00    +0.234 C 
ATOM      9  O   UNL     1      -1.057   3.527  -0.111  0.00  0.00    -0.274 OA
ATOM     10  H   UNL     1       1.991   3.975   0.046  0.00  0.00    +0.155 HD
BRANCH   7  13
ATOM     11  C   UNL     1       3.359   2.141   1.177  0.00  0.00    +0.047 C 
ATOM     12  C   UNL     1       2.231   1.388   0.520  0.00  0.00    -0.011 A 
ATOM     13  C   UNL     1       1.177   2.082  -0.059  0.00  0.00    +0.038 A 
ATOM     14  C   UNL     1       0.140   1.386  -0.664  0.00  0.00    +0.023 A 
ATOM     15  C   UNL     1       0.159   0.005  -0.690  0.00  0.00    +0.003 A 
ATOM     16  C   UNL     1       1.209  -0.685  -0.113  0.00  0.00    +0.020 A 
ATOM     17  C   UNL     1       2.245   0.007   0.491  0.00  0.00    +0.046 A 
ATOM     18 CL   UNL     1       3.563  -0.863   1.214  0.00  0.00    -0.083 Cl
ENDBRANCH   7  13
ENDBRANCH   6   8
ENDBRANCH   2   6
ENDBRANCH   1   3
BRANCH   1  19
ATOM     19  N   UNL     1      -3.097   9.390  -0.560  0.00  0.00    -0.335 N 
ATOM     20  H   UNL     1      -2.261   9.882  -0.563  0.00  0.00    +0.147 HD
BRANCH  19  21
ATOM     21  C   UNL     1      -4.304  10.072  -0.645  0.00  0.00    +0.040 A 
ATOM     22  C   UNL     1      -5.505   9.381  -0.540  0.00  0.00    +0.024 A 
ATOM     23  C   UNL     1      -6.702  10.061  -0.620  0.00  0.00    +0.002 A 
ATOM     24  C   UNL     1      -6.719  11.433  -0.817  0.00  0.00    +0.001 A 
ATOM     25  C   UNL     1      -5.538  12.134  -0.929  0.00  0.00    +0.015 A 
ATOM     26  C   UNL     1      -4.317  11.461  -0.844  0.00  0.00    +0.057 A 
BRANCH  26  27
ATOM     27  C   UNL     1      -3.050  12.205  -0.964  0.00  0.00    +0.246 C 
ATOM     28  O   UNL     1      -1.990  11.633  -0.796  0.00  0.00    -0.270 OA
ATOM     29  N   UNL     1      -3.066  13.520  -1.260  0.00  0.00    -0.304 N 
ATOM     30  H   UNL     1      -3.911  13.976  -1.394  0.00  0.00    +0.149 HD
BRANCH  29  31
ATOM     31  C   UNL     1      -1.807  14.259  -1.379  0.00  0.00    +0.179 C 
BRANCH  31  32
ATOM     32  C   UNL     1      -2.100  15.700  -1.713  0.00  0.00    +0.122 A 
ATOM     33  C   UNL     1      -2.293  16.690  -0.824  0.00  0.00    +0.046 A 
ATOM     34  C   UNL     1      -2.536  17.867  -1.568  0.00  0.00    +0.041 A 
ATOM     35  C   UNL     1      -2.478  17.526  -2.868  0.00  0.00    +0.195 A 
ATOM     36  O   UNL     1      -2.207  16.212  -2.950  0.00  0.00    -0.466 OA
ENDBRANCH  31  32
ENDBRANCH  29  31
ENDBRANCH  26  27
ENDBRANCH  19  21
ENDBRANCH   1  19
TORSDOF 9
