REMARK  Name = ZINC41301116
REMARK  6 active torsions:
REMARK  status: ('A' for Active; 'I' for Inactive)
REMARK    1  A    between atoms: C_1  and  C_2
REMARK    2  A    between atoms: C_8  and  N_11
REMARK    3  A    between atoms: C_13  and  N_27
REMARK    4  A    between atoms: C_14  and  N_26
REMARK    5  A    between atoms: N_18  and  C_19
REMARK    6  A    between atoms: C_19  and  C_20
REMARK                            x       y       z     vdW  Elec       q    Type
REMARK                         _______ _______ _______ _____ _____    ______ ____
ROOT
ATOM      1  N   UNL     1       1.473  -2.627   3.397  0.00  0.00    -0.266 N 
ATOM      2  C   UNL     1       1.794  -3.656   4.271  0.00  0.00    +0.163 A 
ATOM      3  C   UNL     1       1.999  -3.394   5.623  0.00  0.00    +0.205 A 
ATOM      4  C   UNL     1       2.319  -4.457   6.462  0.00  0.00    +0.154 A 
ATOM      5  N   UNL     1       2.418  -5.681   5.949  0.00  0.00    -0.197 NA
ATOM      6  C   UNL     1       2.215  -5.893   4.657  0.00  0.00    +0.219 A 
ATOM      7  N   UNL     1       1.904  -4.907   3.830  0.00  0.00    -0.197 NA
ATOM      8  N   UNL     1       2.327  -7.180   4.160  0.00  0.00    -0.309 N 
ATOM      9  H   UNL     1       1.394  -1.718   3.725  0.00  0.00    +0.157 HD
ATOM     10  H   UNL     1       2.181  -7.349   3.216  0.00  0.00    +0.149 HD
ENDROOT
BRANCH   1  17
ATOM     11  C   UNL     1      -0.019   1.526   0.010  0.00  0.00    +0.008 C 
ATOM     12  C   UNL     1       0.002  -0.004   0.002  0.00  0.00    -0.009 C 
ATOM     13  C   UNL     1       0.716  -0.496  -1.259  0.00  0.00    +0.010 C 
ATOM     14  C   UNL     1       0.486  -2.003  -1.429  0.00  0.00    +0.059 C 
ATOM     15  C   UNL     1       0.829  -2.683  -0.126  0.00  0.00    +0.089 A 
ATOM     16  C   UNL     1       0.948  -1.998   1.099  0.00  0.00    +0.037 A 
ATOM     17  C   UNL     1       1.265  -2.899   2.055  0.00  0.00    +0.226 A 
ATOM     18  O   UNL     1       1.342  -4.108   1.468  0.00  0.00    -0.339 OA
ATOM     19  N   UNL     1       1.061  -3.942   0.088  0.00  0.00    -0.081 NA
ATOM     20  C   UNL     1       0.742  -0.511   1.246  0.00  0.00    +0.045 C 
ENDBRANCH   1  17
BRANCH   4  21
ATOM     21  N   UNL     1       2.533  -4.244   7.815  0.00  0.00    -0.341 N 
ATOM     22  H   UNL     1       2.460  -3.349   8.183  0.00  0.00    +0.144 HD
ATOM     23  H   UNL     1       2.756  -4.989   8.395  0.00  0.00    +0.144 HD
ENDBRANCH   4  21
BRANCH   3  24
ATOM     24  N   UNL     1       1.881  -2.018   6.154  0.00  0.00    +0.063 N 
ATOM     25  O   UNL     1       0.814  -1.615   6.557  0.00  0.00    -0.126 OA
ATOM     26  O   UNL     1       2.850  -1.296   6.186  0.00  0.00    -0.126 OA
ENDBRANCH   3  24
BRANCH   8  27
ATOM     27  C   UNL     1       2.665  -8.286   5.059  0.00  0.00    +0.141 C 
BRANCH  27  28
ATOM     28  C   UNL     1       2.724  -9.571   4.275  0.00  0.00    -0.012 A 
ATOM     29  C   UNL     1       1.588 -10.350   4.117  0.00  0.00    +0.008 A 
ATOM     30  C   UNL     1       1.689 -11.524   3.387  0.00  0.00    +0.020 A 
ATOM     31  C   UNL     1       2.911 -11.877   2.845  0.00  0.00    +0.111 A 
ATOM     32  N   UNL     1       3.971 -11.112   3.016  0.00  0.00    -0.263 NA
ATOM     33  C   UNL     1       3.910  -9.986   3.699  0.00  0.00    +0.115 A 
ENDBRANCH  27  28
ENDBRANCH   8  27
TORSDOF 5
