REMARK  Name = ZINC32776032
REMARK  9 active torsions:
REMARK  status: ('A' for Active; 'I' for Inactive)
REMARK    1  A    between atoms: C_1  and  C_2
REMARK    2  A    between atoms: C_2  and  C_4
REMARK    3  A    between atoms: C_2  and  O_15
REMARK    4  A    between atoms: N_6  and  C_7
REMARK    5  A    between atoms: C_8  and  C_12
REMARK    6  A    between atoms: O_15  and  C_16
REMARK    7  A    between atoms: C_16  and  C_18
REMARK    8  A    between atoms: C_27  and  N_30
REMARK    9  A    between atoms: C_31  and  C_33
REMARK                            x       y       z     vdW  Elec       q    Type
REMARK                         _______ _______ _______ _____ _____    ______ ____
ROOT
ATOM      1  O   UNL     1       0.693  -0.477   1.160  0.00  0.00    -0.452 OA
ENDROOT
BRANCH   1   3
ATOM      2  C   UNL     1      -0.019   1.526   0.010  0.00  0.00    +0.062 C 
ATOM      3  C   UNL     1       0.002  -0.004   0.002  0.00  0.00    +0.259 C 
BRANCH   3   4
ATOM      4  C   UNL     1       0.707  -0.490  -1.238  0.00  0.00    +0.258 C 
ATOM      5  O   UNL     1       1.753  -1.097  -1.142  0.00  0.00    -0.271 OA
ATOM      6  N   UNL     1       0.176  -0.250  -2.453  0.00  0.00    -0.276 N 
ATOM      7  H   UNL     1      -0.660   0.235  -2.530  0.00  0.00    +0.155 HD
BRANCH   6   8
ATOM      8  C   UNL     1       0.825  -0.697  -3.594  0.00  0.00    +0.084 A 
ATOM      9  C   UNL     1       0.434  -0.539  -4.915  0.00  0.00    +0.065 A 
ATOM     10  C   UNL     1       1.303  -1.109  -5.920  0.00  0.00    +0.022 A 
ATOM     11  C   UNL     1       2.402  -1.733  -5.458  0.00  0.00    +0.048 A 
ATOM     12  S   UNL     1       2.268  -1.548  -3.693  0.00  0.00    -0.081 S 
BRANCH   9  13
ATOM     13  C   UNL     1      -0.798   0.170  -5.274  0.00  0.00    +0.244 C 
ATOM     14  O   UNL     1      -1.508   0.637  -4.403  0.00  0.00    -0.270 OA
ATOM     15  N   UNL     1      -1.146   0.304  -6.570  0.00  0.00    -0.325 N 
ATOM     16  H   UNL     1      -0.580  -0.069  -7.264  0.00  0.00    +0.145 HD
ATOM     17  H   UNL     1      -1.961   0.772  -6.808  0.00  0.00    +0.145 HD
ENDBRANCH   9  13
ENDBRANCH   6   8
ENDBRANCH   3   4
ENDBRANCH   1   3
BRANCH   1  18
ATOM     18  C   UNL     1      -0.042  -0.697   2.261  0.00  0.00    +0.314 C 
ATOM     19  O   UNL     1      -1.233  -0.493   2.243  0.00  0.00    -0.250 OA
BRANCH  18  20
ATOM     20  C   UNL     1       0.618  -1.196   3.521  0.00  0.00    +0.070 C 
ATOM     21  C   UNL     1       1.284  -2.546   3.246  0.00  0.00    +0.021 C 
ATOM     22  C   UNL     1       1.954  -3.053   4.525  0.00  0.00    -0.008 C 
ATOM     23  C   UNL     1       3.012  -2.046   4.981  0.00  0.00    +0.007 C 
ATOM     24  C   UNL     1       2.345  -0.696   5.255  0.00  0.00    -0.008 C 
ATOM     25  C   UNL     1       1.675  -0.189   3.976  0.00  0.00    +0.021 C 
ATOM     26  C   UNL     1       1.292  -0.861   6.352  0.00  0.00    +0.029 C 
ATOM     27  C   UNL     1       0.234  -1.869   5.896  0.00  0.00    +0.036 C 
ATOM     28  C   UNL     1       0.901  -3.218   5.622  0.00  0.00    +0.029 C 
ATOM     29  C   UNL     1      -0.436  -1.361   4.617  0.00  0.00    +0.043 C 
BRANCH  27  30
ATOM     30  N   UNL     1      -0.774  -2.026   6.947  0.00  0.00    -0.310 N 
ATOM     31  C   UNL     1      -0.412  -2.465   8.168  0.00  0.00    +0.210 C 
ATOM     32  O   UNL     1       0.749  -2.729   8.398  0.00  0.00    -0.276 OA
ATOM     33  C   UNL     1      -1.450  -2.628   9.249  0.00  0.00    +0.109 C 
ATOM     34  H   UNL     1      -1.703  -1.815   6.763  0.00  0.00    +0.149 HD
ENDBRANCH  27  30
ENDBRANCH  18  20
ENDBRANCH   1  18
TORSDOF 7
