REMARK  Name = ZINC54670427
REMARK  4 active torsions:
REMARK  status: ('A' for Active; 'I' for Inactive)
REMARK    1  A    between atoms: N_7  and  C_10
REMARK    2  A    between atoms: C_10  and  C_11
REMARK    3  A    between atoms: N_13  and  C_14
REMARK    4  A    between atoms: C_15  and  C_22
REMARK                            x       y       z     vdW  Elec       q    Type
REMARK                         _______ _______ _______ _____ _____    ______ ____
ROOT
ATOM      1  C   UNL     1      -3.054  -2.641  -1.471  0.00  0.00    +0.232 C 
ATOM      2  O   UNL     1      -2.811  -1.663  -2.145  0.00  0.00    -0.274 OA
ATOM      3  N   UNL     1      -4.212  -3.308  -1.644  0.00  0.00    -0.278 N 
ATOM      4  H   UNL     1      -4.406  -4.090  -1.105  0.00  0.00    +0.155 HD
ENDROOT
BRANCH   3   5
ATOM      5  C   UNL     1      -5.125  -2.876  -2.594  0.00  0.00    +0.084 A 
ATOM      6  C   UNL     1      -6.355  -3.428  -2.904  0.00  0.00    +0.068 A 
ATOM      7  C   UNL     1      -7.135  -2.777  -3.955  0.00  0.00    -0.023 A 
ATOM      8  C   UNL     1      -6.536  -1.701  -4.496  0.00  0.00    -0.004 A 
ATOM      9  S   UNL     1      -4.996  -1.561  -3.627  0.00  0.00    -0.077 S 
ATOM     10  C   UNL     1      -7.379  -1.073  -5.574  0.00  0.00    +0.043 C 
ATOM     11  C   UNL     1      -8.416  -2.158  -5.939  0.00  0.00    +0.010 C 
ATOM     12  C   UNL     1      -8.487  -2.978  -4.636  0.00  0.00    +0.037 C 
BRANCH   6  13
ATOM     13  C   UNL     1      -6.855  -4.616  -2.206  0.00  0.00    +0.244 C 
ATOM     14  O   UNL     1      -7.522  -4.493  -1.195  0.00  0.00    -0.270 OA
ATOM     15  N   UNL     1      -6.578  -5.845  -2.685  0.00  0.00    -0.325 N 
ATOM     16  H   UNL     1      -6.047  -5.943  -3.491  0.00  0.00    +0.145 HD
ATOM     17  H   UNL     1      -6.909  -6.631  -2.223  0.00  0.00    +0.145 HD
ENDBRANCH   6  13
ENDBRANCH   3   5
BRANCH   1  18
ATOM     18  C   UNL     1      -2.061  -3.110  -0.439  0.00  0.00    +0.181 C 
BRANCH  18  25
ATOM     19  C   UNL     1      -0.017   1.389   0.010  0.00  0.00    +0.013 A 
ATOM     20  C   UNL     1       1.146   2.081   0.002  0.00  0.00    +0.046 A 
ATOM     21  S   UNL     1       2.358   0.768  -0.016  0.00  0.00    -0.101 S 
ATOM     22  C   UNL     1       1.229  -0.596  -0.011  0.00  0.00    -0.005 A 
ATOM     23  C   UNL     1       0.002  -0.004   0.002  0.00  0.00    -0.023 A 
ATOM     24  C   UNL     1      -1.253  -0.872   0.006  0.00  0.00    +0.120 C 
ATOM     25  N   UNL     1      -0.891  -2.222  -0.445  0.00  0.00    -0.289 NA
ATOM     26  C   UNL     1       0.208  -2.793   0.346  0.00  0.00    +0.090 C 
ATOM     27  C   UNL     1       1.512  -2.063  -0.018  0.00  0.00    +0.058 C 
ENDBRANCH  18  25
ENDBRANCH   1  18
TORSDOF 4
