REMARK  Name = ZINC35609516
REMARK  7 active torsions:
REMARK  status: ('A' for Active; 'I' for Inactive)
REMARK    1  A    between atoms: C_1  and  C_2
REMARK    2  A    between atoms: C_6  and  N_20
REMARK    3  A    between atoms: C_7  and  S_8
REMARK    4  A    between atoms: S_8  and  N_11
REMARK    5  A    between atoms: N_14  and  C_17
REMARK    6  A    between atoms: C_17  and  C_18
REMARK    7  A    between atoms: C_18  and  O_19
REMARK                            x       y       z     vdW  Elec       q    Type
REMARK                         _______ _______ _______ _____ _____    ______ ____
ROOT
ATOM      1  S   UNL     1       0.683  -0.242   2.858  0.00  0.00    +0.063 S 
ATOM      2  O   UNL     1       1.381  -1.257   3.568  0.00  0.00    -0.153 OA
ATOM      3  O   UNL     1       1.229   1.053   2.648  0.00  0.00    -0.153 OA
ENDROOT
BRANCH   1  10
ATOM      4  C   UNL     1       0.267   1.438   0.380  0.00  0.00    +0.046 C 
ATOM      5  C   UNL     1       0.146  -0.052   0.190  0.00  0.00    -0.022 A 
ATOM      6  C   UNL     1      -0.133  -0.568  -1.063  0.00  0.00    +0.005 A 
ATOM      7  C   UNL     1      -0.245  -1.935  -1.242  0.00  0.00    +0.002 A 
ATOM      8  C   UNL     1      -0.077  -2.789  -0.169  0.00  0.00    +0.025 A 
ATOM      9  C   UNL     1       0.204  -2.274   1.090  0.00  0.00    +0.051 A 
ATOM     10  C   UNL     1       0.321  -0.901   1.265  0.00  0.00    +0.129 A 
BRANCH   9  11
ATOM     11  N   UNL     1       0.373  -3.135   2.176  0.00  0.00    -0.356 N 
ATOM     12  H   UNL     1       0.495  -4.086   2.027  0.00  0.00    +0.142 HD
ATOM     13  H   UNL     1       0.369  -2.782   3.080  0.00  0.00    +0.142 HD
ENDBRANCH   9  11
ENDBRANCH   1  10
BRANCH   1  14
ATOM     14  N   UNL     1      -0.761  -0.027   3.640  0.00  0.00    -0.174 NA
ATOM     15  C   UNL     1      -1.437   1.279   3.630  0.00  0.00    +0.125 C 
ATOM     16  C   UNL     1      -2.889   1.072   3.188  0.00  0.00    +0.101 C 
ATOM     17  N   UNL     1      -3.517   0.054   4.041  0.00  0.00    -0.298 NA
ATOM     18  C   UNL     1      -2.856  -1.248   3.891  0.00  0.00    +0.101 C 
ATOM     19  C   UNL     1      -1.404  -1.138   4.357  0.00  0.00    +0.125 C 
BRANCH  17  20
ATOM     20  C   UNL     1      -4.956  -0.051   3.764  0.00  0.00    +0.112 C 
BRANCH  20  21
ATOM     21  C   UNL     1      -5.617  -0.928   4.829  0.00  0.00    +0.171 C 
BRANCH  21  22
ATOM     22  O   UNL     1      -5.524  -0.285   6.101  0.00  0.00    -0.394 OA
ATOM     23  H   UNL     1      -5.924  -0.786   6.826  0.00  0.00    +0.209 HD
ENDBRANCH  21  22
ENDBRANCH  20  21
ENDBRANCH  17  20
ENDBRANCH   1  14
TORSDOF 6
