REMARK  Name = ZINC64409725
REMARK  6 active torsions:
REMARK  status: ('A' for Active; 'I' for Inactive)
REMARK    1  A    between atoms: C_1  and  C_2
REMARK    2  A    between atoms: C_9  and  C_11
REMARK    3  A    between atoms: C_11  and  C_12
REMARK    4  A    between atoms: C_12  and  C_13
REMARK    5  A    between atoms: N_15  and  C_16
REMARK    6  A    between atoms: C_20  and  C_22
REMARK                            x       y       z     vdW  Elec       q    Type
REMARK                         _______ _______ _______ _____ _____    ______ ____
ROOT
ATOM      1  C   UNL     1      -3.083   4.552   2.982  0.00  0.00    +0.218 C 
ATOM      2  O   UNL     1      -2.865   5.214   3.975  0.00  0.00    -0.275 OA
ATOM      3  N   UNL     1      -4.012   3.576   3.014  0.00  0.00    -0.285 N 
ATOM      4  H   UNL     1      -4.235   3.091   2.204  0.00  0.00    +0.155 HD
ENDROOT
BRANCH   3   5
ATOM      5  C   UNL     1      -4.655   3.261   4.217  0.00  0.00    +0.034 A 
ATOM      6  C   UNL     1      -4.999   1.945   4.498  0.00  0.00    +0.023 A 
ATOM      7  C   UNL     1      -5.634   1.638   5.686  0.00  0.00    +0.002 A 
ATOM      8  C   UNL     1      -5.926   2.639   6.594  0.00  0.00    +0.006 A 
ATOM      9  C   UNL     1      -5.585   3.950   6.317  0.00  0.00    -0.015 A 
ATOM     10  C   UNL     1      -4.945   4.263   5.133  0.00  0.00    +0.029 A 
BRANCH   9  11
ATOM     11  C   UNL     1      -5.907   5.037   7.309  0.00  0.00    +0.164 C 
ATOM     12  N   UNL     1      -5.974   4.502   8.676  0.00  0.00    -0.327 N 
ATOM     13  C   UNL     1      -7.192   4.601   9.347  0.00  0.00    +0.042 A 
ATOM     14  C   UNL     1      -7.446   4.146  10.654  0.00  0.00    +0.024 A 
ATOM     15  C   UNL     1      -8.686   4.290  11.230  0.00  0.00    +0.002 A 
ATOM     16  C   UNL     1      -9.728   4.887  10.543  0.00  0.00    +0.001 A 
ATOM     17  C   UNL     1      -9.507   5.343   9.254  0.00  0.00    +0.016 A 
ATOM     18  C   UNL     1      -8.265   5.199   8.679  0.00  0.00    +0.031 A 
ATOM     19  S   UNL     1      -7.623   5.653   7.082  0.00  0.00    -0.096 S 
ATOM     20  H   UNL     1      -5.200   4.096   9.095  0.00  0.00    +0.147 HD
ENDBRANCH   9  11
ENDBRANCH   3   5
BRANCH   1  21
ATOM     21  C   UNL     1      -2.317   4.821   1.713  0.00  0.00    +0.101 C 
BRANCH  21  22
ATOM     22  C   UNL     1      -1.333   5.969   1.945  0.00  0.00    +0.051 C 
BRANCH  22  31
ATOM     23  C   UNL     1      -2.212   8.006   0.123  0.00  0.00    +0.064 C 
ATOM     24  C   UNL     1      -0.979   7.196  -0.182  0.00  0.00    +0.026 A 
ATOM     25  N   UNL     1      -0.268   7.431  -1.328  0.00  0.00    -0.311 N 
ATOM     26  C   UNL     1       0.835   6.713  -1.609  0.00  0.00    +0.327 A 
ATOM     27  O   UNL     1       1.452   6.938  -2.633  0.00  0.00    -0.247 OA
ATOM     28  N   UNL     1       1.265   5.750  -0.774  0.00  0.00    -0.275 N 
ATOM     29  C   UNL     1       0.593   5.487   0.365  0.00  0.00    +0.257 A 
ATOM     30  O   UNL     1       0.982   4.616   1.121  0.00  0.00    -0.267 OA
ATOM     31  C   UNL     1      -0.566   6.239   0.676  0.00  0.00    +0.036 A 
ATOM     32  H   UNL     1      -0.562   8.121  -1.943  0.00  0.00    +0.170 HD
ATOM     33  H   UNL     1       2.062   5.241  -0.992  0.00  0.00    +0.173 HD
ENDBRANCH  22  31
ENDBRANCH  21  22
ENDBRANCH   1  21
TORSDOF 5
