REMARK  Name = ZINC13150661
REMARK  12 active torsions:
REMARK  status: ('A' for Active; 'I' for Inactive)
REMARK    1  A    between atoms: C_1  and  C_2
REMARK    2  A    between atoms: C_5  and  C_8
REMARK    3  A    between atoms: C_8  and  N_9
REMARK    4  A    between atoms: N_9  and  C_10
REMARK    5  A    between atoms: C_10  and  C_12
REMARK    6  A    between atoms: C_10  and  C_18
REMARK    7  A    between atoms: N_20  and  C_21
REMARK    8  A    between atoms: C_21  and  C_22
REMARK    9  A    between atoms: C_22  and  O_23
REMARK   10  A    between atoms: O_23  and  C_24
REMARK   11  A    between atoms: C_25  and  C_27
REMARK   12  A    between atoms: C_27  and  N_28
REMARK                            x       y       z     vdW  Elec       q    Type
REMARK                         _______ _______ _______ _____ _____    ______ ____
ROOT
ATOM      1  N   UNL     1       1.797  -5.517   1.377  0.00  0.00    -0.280 N 
ATOM      2  C   UNL     1       1.900  -6.130   2.573  0.00  0.00    +0.238 C 
ATOM      3  O   UNL     1       0.902  -6.509   3.148  0.00  0.00    -0.274 OA
ENDROOT
BRANCH   1   4
ATOM      4  C   UNL     1       2.978  -4.906   0.763  0.00  0.00    +0.144 C 
BRANCH   4   9
ATOM      5  C   UNL     1       3.714   0.419   2.885  0.00  0.00    +0.044 C 
ATOM      6  C   UNL     1       3.522  -0.970   2.331  0.00  0.00    -0.050 A 
ATOM      7  C   UNL     1       2.670  -1.855   2.965  0.00  0.00    +0.003 A 
ATOM      8  C   UNL     1       2.494  -3.129   2.458  0.00  0.00    +0.005 A 
ATOM      9  C   UNL     1       3.169  -3.517   1.316  0.00  0.00    -0.030 A 
ATOM     10  C   UNL     1       4.020  -2.631   0.681  0.00  0.00    +0.005 A 
ATOM     11  C   UNL     1       4.193  -1.356   1.186  0.00  0.00    +0.003 A 
ENDBRANCH   4   9
ENDBRANCH   1   4
BRANCH   1  12
ATOM     12  C   UNL     1       0.504  -5.464   0.691  0.00  0.00    +0.194 C 
BRANCH  12  13
ATOM     13  C   UNL     1       0.439  -6.557  -0.345  0.00  0.00    -0.000 A 
ATOM     14  C   UNL     1      -0.676  -7.378  -0.429  0.00  0.00    +0.009 A 
ATOM     15  C   UNL     1      -0.692  -8.370  -1.397  0.00  0.00    +0.020 A 
ATOM     16  C   UNL     1       0.396  -8.507  -2.240  0.00  0.00    +0.111 A 
ATOM     17  N   UNL     1       1.439  -7.708  -2.130  0.00  0.00    -0.263 NA
ATOM     18  C   UNL     1       1.486  -6.749  -1.225  0.00  0.00    +0.116 A 
ENDBRANCH  12  13
BRANCH  12  19
ATOM     19  C   UNL     1       0.347  -4.124   0.018  0.00  0.00    +0.238 C 
ATOM     20  O   UNL     1       1.227  -3.700  -0.701  0.00  0.00    -0.273 OA
ATOM     21  N   UNL     1      -0.771  -3.398   0.215  0.00  0.00    -0.311 N 
ATOM     22  H   UNL     1      -1.474  -3.737   0.790  0.00  0.00    +0.149 HD
BRANCH  21  23
ATOM     23  C   UNL     1      -0.923  -2.096  -0.439  0.00  0.00    +0.132 C 
BRANCH  23  24
ATOM     24  C   UNL     1      -2.271  -1.484  -0.051  0.00  0.00    +0.178 C 
BRANCH  24  25
ATOM     25  O   UNL     1      -2.282  -1.207   1.350  0.00  0.00    -0.381 OA
ATOM     26  C   UNL     1      -3.503  -0.630   1.819  0.00  0.00    +0.194 C 
ENDBRANCH  24  25
ENDBRANCH  23  24
ENDBRANCH  21  23
ENDBRANCH  12  19
ENDBRANCH   1  12
BRANCH   2  27
ATOM     27  C   UNL     1       3.256  -6.342   3.196  0.00  0.00    +0.241 C 
BRANCH  27  28
ATOM     28  N   UNL     1       3.325  -7.690   3.765  0.00  0.00    -0.235 N 
ATOM     29  C   UNL     1       2.979  -8.063   5.043  0.00  0.00    +0.090 A 
ATOM     30  C   UNL     1       2.488  -7.378   6.149  0.00  0.00    +0.029 A 
ATOM     31  C   UNL     1       2.238  -8.055   7.310  0.00  0.00    +0.002 A 
ATOM     32  C   UNL     1       2.470  -9.422   7.396  0.00  0.00    +0.002 A 
ATOM     33  C   UNL     1       2.951 -10.116   6.325  0.00  0.00    +0.032 A 
ATOM     34  C   UNL     1       3.215  -9.446   5.122  0.00  0.00    +0.113 A 
ATOM     35  N   UNL     1       3.683  -9.851   3.925  0.00  0.00    -0.129 NA
ATOM     36  N   UNL     1       3.753  -8.856   3.113  0.00  0.00    -0.064 NA
ENDBRANCH  27  28
ENDBRANCH   2  27
TORSDOF 10
