REMARK  Name = ZINC56934499
REMARK  10 active torsions:
REMARK  status: ('A' for Active; 'I' for Inactive)
REMARK    1  A    between atoms: C_1  and  N_2
REMARK    2  A    between atoms: N_2  and  C_3
REMARK    3  A    between atoms: N_2  and  C_4
REMARK    4  A    between atoms: C_4  and  C_6
REMARK    5  A    between atoms: C_4  and  C_22
REMARK    6  A    between atoms: C_6  and  N_7
REMARK    7  A    between atoms: N_10  and  C_11
REMARK    8  A    between atoms: N_10  and  C_12
REMARK    9  A    between atoms: C_12  and  C_13
REMARK   10  A    between atoms: C_17  and  C_19
REMARK                            x       y       z     vdW  Elec       q    Type
REMARK                         _______ _______ _______ _____ _____    ______ ____
ROOT
ATOM      1  N   UNL     1      -1.766   1.531  -1.169  0.00  0.00    -0.300 N 
ATOM      2  C   UNL     1      -2.260   2.263  -2.188  0.00  0.00    +0.302 C 
ATOM      3  O   UNL     1      -2.936   1.731  -3.047  0.00  0.00    -0.253 OA
ATOM      4  N   UNL     1      -2.004   3.585  -2.254  0.00  0.00    -0.284 N 
ATOM      5  C   UNL     1      -1.189   4.226  -1.219  0.00  0.00    +0.134 C 
ATOM      6  H   UNL     1      -1.227   1.956  -0.484  0.00  0.00    +0.150 HD
ENDROOT
BRANCH   1   7
ATOM      7  C   UNL     1      -2.044   0.095  -1.098  0.00  0.00    +0.095 C 
BRANCH   7   8
ATOM      8  C   UNL     1      -1.281  -0.514   0.081  0.00  0.00    -0.021 C 
BRANCH   8   9
ATOM      9  C   UNL     1      -1.799   0.070   1.370  0.00  0.00    -0.059 A 
ATOM     10  C   UNL     1      -2.967  -0.415   1.927  0.00  0.00    +0.005 A 
ATOM     11  C   UNL     1      -3.443   0.119   3.110  0.00  0.00    +0.038 A 
ATOM     12  C   UNL     1      -2.748   1.140   3.736  0.00  0.00    +0.123 A 
ATOM     13  C   UNL     1      -1.578   1.625   3.177  0.00  0.00    +0.038 A 
ATOM     14  C   UNL     1      -1.102   1.085   1.997  0.00  0.00    +0.005 A 
ATOM     15  F   UNL     1      -3.212   1.664   4.892  0.00  0.00    -0.205 F 
ENDBRANCH   8   9
BRANCH   8  17
ATOM     16  C   UNL     1      -0.969  -2.540  -1.166  0.00  0.00    -0.096 C 
ATOM     17  N   UNL     1      -1.475  -1.970   0.090  0.00  0.00    +0.382 N 
ATOM     18  C   UNL     1      -0.744  -2.555   1.222  0.00  0.00    -0.096 C 
ATOM     19  H   UNL     1      -2.458  -2.178   0.181  0.00  0.00    -0.082 HD
ENDBRANCH   8  17
ENDBRANCH   7   8
ENDBRANCH   1   7
BRANCH   4  20
ATOM     20  C   UNL     1      -2.541   4.380  -3.361  0.00  0.00    +0.144 C 
BRANCH  20  21
ATOM     21  C   UNL     1      -3.897   4.918  -2.982  0.00  0.00    -0.029 A 
ATOM     22  C   UNL     1      -5.034   4.179  -3.258  0.00  0.00    +0.005 A 
ATOM     23  C   UNL     1      -6.283   4.665  -2.913  0.00  0.00    +0.001 A 
ATOM     24  C   UNL     1      -6.401   5.891  -2.291  0.00  0.00    +0.013 A 
ATOM     25  C   UNL     1      -5.258   6.641  -2.009  0.00  0.00    +0.037 A 
ATOM     26  C   UNL     1      -4.001   6.142  -2.355  0.00  0.00    +0.018 A 
BRANCH  25  27
ATOM     27  C   UNL     1      -5.378   7.955  -1.343  0.00  0.00    +0.242 C 
ATOM     28  O   UNL     1      -4.381   8.606  -1.099  0.00  0.00    -0.270 OA
ATOM     29  N   UNL     1      -6.593   8.432  -1.006  0.00  0.00    -0.325 N 
ATOM     30  H   UNL     1      -7.389   7.912  -1.201  0.00  0.00    +0.145 HD
ATOM     31  H   UNL     1      -6.671   9.294  -0.569  0.00  0.00    +0.145 HD
ENDBRANCH  25  27
ENDBRANCH  20  21
ENDBRANCH   4  20
TORSDOF 7
