REMARK  Name = ZINC67004925
REMARK  5 active torsions:
REMARK  status: ('A' for Active; 'I' for Inactive)
REMARK    1  A    between atoms: C_6  and  C_7
REMARK    2  A    between atoms: C_7  and  N_8
REMARK    3  A    between atoms: C_9  and  N_13
REMARK    4  A    between atoms: N_13  and  S_14
REMARK    5  A    between atoms: S_14  and  C_17
REMARK                            x       y       z     vdW  Elec       q    Type
REMARK                         _______ _______ _______ _____ _____    ______ ____
ROOT
ATOM      1  N   UNL     1      -1.726  -1.017  -1.367  0.00  0.00    -0.245 N 
ATOM      2  C   UNL     1      -2.517  -0.206  -2.107  0.00  0.00    +0.136 A 
ATOM      3  C   UNL     1      -2.680  -0.792  -3.326  0.00  0.00    +0.066 A 
ATOM      4  C   UNL     1      -1.966  -1.994  -3.322  0.00  0.00    +0.136 A 
ATOM      5  N   UNL     1      -1.391  -2.126  -2.154  0.00  0.00    -0.178 NA
ENDROOT
BRANCH   2   6
ATOM      6  N   UNL     1      -3.064   1.006  -1.698  0.00  0.00    -0.200 N 
ATOM      7  H   UNL     1      -2.888   1.340  -0.804  0.00  0.00    +0.175 HD
BRANCH   6   8
ATOM      8  S   UNL     1      -4.015   1.878  -2.736  0.00  0.00    +0.076 S 
ATOM      9  O   UNL     1      -4.437   3.034  -2.026  0.00  0.00    -0.150 OA
ATOM     10  O   UNL     1      -3.309   1.956  -3.966  0.00  0.00    -0.150 OA
BRANCH   8  11
ATOM     11  C   UNL     1      -5.462   0.921  -3.045  0.00  0.00    +0.146 A 
ATOM     12  C   UNL     1      -5.618   0.011  -4.034  0.00  0.00    +0.133 A 
ATOM     13  N   UNL     1      -6.863  -0.500  -3.930  0.00  0.00    -0.283 N 
ATOM     14  H   UNL     1      -7.252  -1.175  -4.507  0.00  0.00    +0.188 HD
ATOM     15  N   UNL     1      -7.492   0.117  -2.841  0.00  0.00    -0.180 NA
ATOM     16  C   UNL     1      -6.650   0.964  -2.308  0.00  0.00    +0.163 A 
ENDBRANCH   8  11
ENDBRANCH   6   8
ENDBRANCH   2   6
BRANCH   1  17
ATOM     17  C   UNL     1      -1.293  -0.775   0.011  0.00  0.00    +0.180 C 
BRANCH  17  23
ATOM     18  C   UNL     1      -0.017   1.378   0.010  0.00  0.00    +0.007 A 
ATOM     19  C   UNL     1       1.170   2.087   0.002  0.00  0.00    +0.023 A 
ATOM     20  C   UNL     1       2.378   1.413  -0.013  0.00  0.00    +0.076 A 
ATOM     21  C   UNL     1       2.397   0.028  -0.021  0.00  0.00    +0.142 A 
ATOM     22  C   UNL     1       1.208  -0.680  -0.013  0.00  0.00    +0.045 A 
ATOM     23  C   UNL     1       0.002  -0.004   0.002  0.00  0.00    -0.023 A 
ATOM     24  F   UNL     1       3.576  -0.632  -0.036  0.00  0.00    -0.204 F 
ATOM     25 CL   UNL     1       3.869   2.303  -0.023  0.00  0.00    -0.081 Cl
ENDBRANCH  17  23
ENDBRANCH   1  17
TORSDOF 5
