REMARK  Name = ZINC63142364
REMARK  7 active torsions:
REMARK  status: ('A' for Active; 'I' for Inactive)
REMARK    1  A    between atoms: C_1  and  O_2
REMARK    2  A    between atoms: O_2  and  C_3
REMARK    3  A    between atoms: C_8  and  C_9
REMARK    4  A    between atoms: N_28  and  C_31
REMARK    5  A    between atoms: C_31  and  C_32
REMARK    6  A    between atoms: C_32  and  C_33
REMARK    7  A    between atoms: C_33  and  O_34
REMARK                            x       y       z     vdW  Elec       q    Type
REMARK                         _______ _______ _______ _____ _____    ______ ____
ROOT
ATOM      1  C   UNL     1       0.051  -2.828  -0.033  0.00  0.00    +0.137 C 
ATOM      2  C   UNL     1       1.062  -3.017   1.101  0.00  0.00    +0.131 C 
ATOM      3  C   UNL     1       2.156  -3.932   0.566  0.00  0.00    -0.034 C 
ATOM      4  C   UNL     1       3.302  -3.282   0.728  0.00  0.00    -0.001 A 
ATOM      5  C   UNL     1       4.697  -3.676   0.471  0.00  0.00    +0.010 A 
ATOM      6  C   UNL     1       5.644  -2.741   0.745  0.00  0.00    +0.001 A 
ATOM      7  C   UNL     1       5.347  -1.468   1.242  0.00  0.00    +0.002 A 
ATOM      8  C   UNL     1       4.094  -1.023   1.512  0.00  0.00    +0.026 A 
ATOM      9  C   UNL     1       3.013  -1.919   1.270  0.00  0.00    +0.043 A 
ATOM     10  N   UNL     1       1.717  -1.759   1.465  0.00  0.00    -0.375 N 
ATOM     11  C   UNL     1       1.852  -5.263  -0.077  0.00  0.00    +0.065 C 
ATOM     12  C   UNL     1       0.760  -5.003  -1.131  0.00  0.00    +0.167 C 
ATOM     13  N   UNL     1      -0.292  -4.169  -0.558  0.00  0.00    -0.279 N 
ATOM     14  C   UNL     1      -1.569  -4.563  -0.482  0.00  0.00    +0.234 C 
ATOM     15  O   UNL     1      -2.364  -3.804   0.030  0.00  0.00    -0.274 OA
ATOM     16  C   UNL     1      -2.084  -5.872  -0.984  0.00  0.00    +0.203 C 
ATOM     17  N   UNL     1      -1.036  -6.683  -1.581  0.00  0.00    -0.291 N 
ATOM     18  C   UNL     1       0.243  -6.304  -1.651  0.00  0.00    +0.237 C 
ATOM     19  O   UNL     1       1.034  -7.062  -2.170  0.00  0.00    -0.274 OA
ATOM     20  H   UNL     1       1.272  -0.959   1.784  0.00  0.00    +0.160 HD
ENDROOT
BRANCH   1  26
ATOM     21  C   UNL     1       0.071  -0.790  -1.493  0.00  0.00    +0.125 A 
ATOM     22  C   UNL     1       0.639  -0.019  -2.498  0.00  0.00    +0.046 A 
ATOM     23  C   UNL     1       1.785  -0.452  -3.135  0.00  0.00    +0.004 A 
ATOM     24  C   UNL     1       2.368  -1.652  -2.772  0.00  0.00    +0.001 A 
ATOM     25  C   UNL     1       1.805  -2.422  -1.772  0.00  0.00    +0.009 A 
ATOM     26  C   UNL     1       0.661  -1.991  -1.128  0.00  0.00    +0.017 A 
BRANCH  21  28
ATOM     27  C   UNL     1      -1.609   0.880  -1.293  0.00  0.00    +0.277 C 
ATOM     28  O   UNL     1      -1.056  -0.366  -0.865  0.00  0.00    -0.495 OA
ENDBRANCH  21  28
ENDBRANCH   1  26
BRANCH  17  29
ATOM     29  C   UNL     1      -1.401  -7.989  -2.134  0.00  0.00    +0.110 C 
BRANCH  29  30
ATOM     30  C   UNL     1      -1.783  -7.830  -3.607  0.00  0.00    +0.047 C 
BRANCH  30  31
ATOM     31  C   UNL     1      -2.165  -9.194  -4.185  0.00  0.00    +0.157 C 
BRANCH  31  32
ATOM     32  O   UNL     1      -2.522  -9.045  -5.561  0.00  0.00    -0.395 OA
ATOM     33  H   UNL     1      -2.776  -9.872  -5.993  0.00  0.00    +0.209 HD
ENDBRANCH  31  32
ENDBRANCH  30  31
ENDBRANCH  29  30
ENDBRANCH  17  29
TORSDOF 6
