REMARK  Name = ZINC14599640
REMARK  9 active torsions:
REMARK  status: ('A' for Active; 'I' for Inactive)
REMARK    1  A    between atoms: C_1  and  C_2
REMARK    2  A    between atoms: C_5  and  N_11
REMARK    3  A    between atoms: C_6  and  N_8
REMARK    4  A    between atoms: C_12  and  C_14
REMARK    5  A    between atoms: C_14  and  C_16
REMARK    6  A    between atoms: C_14  and  O_22
REMARK    7  A    between atoms: O_22  and  C_23
REMARK    8  A    between atoms: C_23  and  C_25
REMARK    9  A    between atoms: C_29  and  N_31
REMARK                            x       y       z     vdW  Elec       q    Type
REMARK                         _______ _______ _______ _____ _____    ______ ____
ROOT
ATOM      1  C   UNL     1       3.830  -0.794   0.017  0.00  0.00    +0.292 C 
ENDROOT
BRANCH   1   2
ATOM      2  C   UNL     1       4.652  -0.548  -1.223  0.00  0.00    +0.002 A 
ATOM      3  C   UNL     1       4.388  -1.258  -2.379  0.00  0.00    +0.008 A 
ATOM      4  C   UNL     1       5.139  -1.029  -3.517  0.00  0.00    +0.000 A 
ATOM      5  C   UNL     1       6.159  -0.097  -3.496  0.00  0.00    +0.000 A 
ATOM      6  C   UNL     1       6.426   0.611  -2.338  0.00  0.00    +0.000 A 
ATOM      7  C   UNL     1       5.672   0.385  -1.202  0.00  0.00    +0.008 A 
ENDBRANCH   1   2
BRANCH   1   9
ATOM      8  N   UNL     1       2.521   1.291  -0.222  0.00  0.00    -0.280 N 
ATOM      9  C   UNL     1       2.524  -0.051  -0.091  0.00  0.00    +0.263 C 
ATOM     10  O   UNL     1       1.476  -0.659  -0.059  0.00  0.00    -0.271 OA
ATOM     11  H   UNL     1       3.358   1.771  -0.315  0.00  0.00    +0.155 HD
BRANCH   8  16
ATOM     12  C   UNL     1      -2.392   4.127  -0.237  0.00  0.00    +0.044 C 
ATOM     13  C   UNL     1      -1.087   3.374  -0.233  0.00  0.00    -0.048 A 
ATOM     14  C   UNL     1      -1.012   2.122  -0.816  0.00  0.00    +0.005 A 
ATOM     15  C   UNL     1       0.181   1.427  -0.809  0.00  0.00    +0.026 A 
ATOM     16  C   UNL     1       1.309   1.990  -0.226  0.00  0.00    +0.064 A 
ATOM     17  C   UNL     1       1.231   3.250   0.354  0.00  0.00    +0.148 A 
ATOM     18  C   UNL     1       0.033   3.938   0.349  0.00  0.00    +0.038 A 
BRANCH  17  19
ATOM     19  N   UNL     1       2.430   3.854   0.977  0.00  0.00    +0.058 N 
ATOM     20  O   UNL     1       2.340   4.918   1.564  0.00  0.00    -0.126 OA
ATOM     21  O   UNL     1       3.505   3.288   0.903  0.00  0.00    -0.126 OA
ENDBRANCH  17  19
ENDBRANCH   8  16
ENDBRANCH   1   9
BRANCH   1  22
ATOM     22  O   UNL     1       3.569  -2.216   0.149  0.00  0.00    -0.444 OA
BRANCH  22  23
ATOM     23  C   UNL     1       4.465  -2.940   0.847  0.00  0.00    +0.340 C 
ATOM     24  O   UNL     1       5.438  -2.399   1.332  0.00  0.00    -0.245 OA
BRANCH  23  25
ATOM     25  C   UNL     1       4.264  -4.393   1.023  0.00  0.00    +0.061 A 
ATOM     26  C   UNL     1       3.146  -5.018   0.467  0.00  0.00    +0.015 A 
ATOM     27  C   UNL     1       2.961  -6.375   0.633  0.00  0.00    +0.003 A 
ATOM     28  C   UNL     1       3.880  -7.121   1.348  0.00  0.00    +0.023 A 
ATOM     29  C   UNL     1       4.996  -6.509   1.905  0.00  0.00    +0.036 A 
ATOM     30  C   UNL     1       5.193  -5.147   1.741  0.00  0.00    +0.038 A 
BRANCH  29  31
ATOM     31  N   UNL     1       5.923  -7.269   2.627  0.00  0.00    -0.270 N 
ATOM     32  C   UNL     1       6.676  -6.685   3.580  0.00  0.00    +0.301 C 
ATOM     33  O   UNL     1       6.474  -5.526   3.889  0.00  0.00    -0.253 OA
ATOM     34  N   UNL     1       7.652  -7.385   4.192  0.00  0.00    -0.313 N 
ATOM     35  H   UNL     1       6.024  -8.215   2.441  0.00  0.00    +0.156 HD
ATOM     36  H   UNL     1       7.812  -8.310   3.945  0.00  0.00    +0.146 HD
ATOM     37  H   UNL     1       8.193  -6.965   4.878  0.00  0.00    +0.146 HD
ENDBRANCH  29  31
ENDBRANCH  23  25
ENDBRANCH  22  23
ENDBRANCH   1  22
TORSDOF 8
