REMARK  Name = ZINC08745362
REMARK  7 active torsions:
REMARK  status: ('A' for Active; 'I' for Inactive)
REMARK    1  A    between atoms: C_6  and  C_27
REMARK    2  A    between atoms: C_7  and  N_9
REMARK    3  A    between atoms: C_10  and  C_12
REMARK    4  A    between atoms: C_12  and  S_13
REMARK    5  A    between atoms: S_13  and  C_14
REMARK    6  A    between atoms: N_19  and  C_20
REMARK    7  A    between atoms: C_20  and  C_21
REMARK                            x       y       z     vdW  Elec       q    Type
REMARK                         _______ _______ _______ _____ _____    ______ ____
ROOT
ATOM      1  N   UNL     1       1.620   3.660   0.006  0.00  0.00    -0.279 N 
ATOM      2  C   UNL     1       1.391   2.331   0.001  0.00  0.00    +0.228 C 
ATOM      3  O   UNL     1       2.324   1.556  -0.012  0.00  0.00    -0.275 OA
ATOM      4  H   UNL     1       0.874   4.280   0.017  0.00  0.00    +0.155 HD
ENDROOT
BRANCH   1  11
ATOM      5  C   UNL     1       6.876   6.958   0.432  0.00  0.00    +0.005 C 
ATOM      6  C   UNL     1       7.590   5.904  -0.418  0.00  0.00    +0.005 C 
ATOM      7  C   UNL     1       7.049   4.516  -0.042  0.00  0.00    +0.043 C 
ATOM      8  C   UNL     1       5.553   4.582  -0.027  0.00  0.00    -0.004 A 
ATOM      9  C   UNL     1       4.787   5.694  -0.013  0.00  0.00    -0.023 A 
ATOM     10  C   UNL     1       3.353   5.458  -0.006  0.00  0.00    +0.068 A 
ATOM     11  C   UNL     1       2.920   4.140  -0.004  0.00  0.00    +0.084 A 
ATOM     12  S   UNL     1       4.400   3.239  -0.023  0.00  0.00    -0.077 S 
ATOM     13  C   UNL     1       5.417   7.082  -0.010  0.00  0.00    +0.037 C 
BRANCH  10  14
ATOM     14  C   UNL     1       2.399   6.571   0.002  0.00  0.00    +0.244 C 
ATOM     15  O   UNL     1       2.011   7.033   1.059  0.00  0.00    -0.270 OA
ATOM     16  N   UNL     1       1.951   7.083  -1.162  0.00  0.00    -0.325 N 
ATOM     17  H   UNL     1       2.260   6.715  -2.005  0.00  0.00    +0.145 HD
ATOM     18  H   UNL     1       1.320   7.820  -1.157  0.00  0.00    +0.145 HD
ENDBRANCH  10  14
ENDBRANCH   1  11
BRANCH   2  19
ATOM     19  C   UNL     1      -0.022   1.810   0.012  0.00  0.00    +0.172 C 
BRANCH  19  20
ATOM     20  S   UNL     1       0.002  -0.004   0.002  0.00  0.00    -0.088 S 
BRANCH  20  21
ATOM     21  C   UNL     1      -1.702  -0.454   0.016  0.00  0.00    +0.160 A 
ATOM     22  N   UNL     1      -2.770   0.320   0.036  0.00  0.00    -0.133 NA
ATOM     23  N   UNL     1      -4.024  -0.246   0.039  0.00  0.00    -0.125 NA
ATOM     24  C   UNL     1      -4.152  -1.558   0.033  0.00  0.00    +0.182 A 
ATOM     25  S   UNL     1      -2.444  -2.078   0.014  0.00  0.00    -0.025 S 
ATOM     26  N   UNL     1      -5.308  -2.330   0.041  0.00  0.00    -0.320 N 
ATOM     27  H   UNL     1      -5.245  -3.298   0.035  0.00  0.00    +0.148 HD
BRANCH  26  28
ATOM     28  C   UNL     1      -6.622  -1.682   0.057  0.00  0.00    +0.135 C 
BRANCH  28  29
ATOM     29  C   UNL     1      -7.718  -2.750   0.062  0.00  0.00    +0.135 C 
ATOM     30  C   UNL     1      -9.104  -2.078   0.071  0.00  0.00    +0.035 C 
ATOM     31  C   UNL     1      -9.795  -2.616  -1.206  0.00  0.00    +0.031 C 
ATOM     32  C   UNL     1      -8.984  -3.905  -1.495  0.00  0.00    +0.160 C 
ATOM     33  O   UNL     1      -7.632  -3.544  -1.133  0.00  0.00    -0.375 OA
ENDBRANCH  28  29
ENDBRANCH  26  28
ENDBRANCH  20  21
ENDBRANCH  19  20
ENDBRANCH   2  19
TORSDOF 7
