REMARK  Name = ZINC07049367
REMARK  8 active torsions:
REMARK  status: ('A' for Active; 'I' for Inactive)
REMARK    1  A    between atoms: C_1  and  C_2
REMARK    2  A    between atoms: C_4  and  N_27
REMARK    3  A    between atoms: C_6  and  S_8
REMARK    4  A    between atoms: S_8  and  C_9
REMARK    5  A    between atoms: C_9  and  C_10
REMARK    6  A    between atoms: C_21  and  C_23
REMARK    7  A    between atoms: C_23  and  O_25
REMARK    8  A    between atoms: O_25  and  C_26
REMARK                            x       y       z     vdW  Elec       q    Type
REMARK                         _______ _______ _______ _____ _____    ______ ____
ROOT
ATOM      1  C   UNL     1      -0.762   6.006   1.104  0.00  0.00    +0.227 C 
ATOM      2  O   UNL     1      -0.657   7.210   1.201  0.00  0.00    -0.275 OA
ATOM      3  N   UNL     1       0.097   5.315   0.329  0.00  0.00    -0.283 N 
ATOM      4  C   UNL     1       0.077   3.849   0.288  0.00  0.00    +0.144 C 
ATOM      5  C   UNL     1       0.185   3.379  -1.141  0.00  0.00    -0.027 A 
ATOM      6  C   UNL     1      -0.049   2.035  -1.400  0.00  0.00    +0.005 A 
ATOM      7  C   UNL     1       0.046   1.543  -2.685  0.00  0.00    +0.000 A 
ATOM      8  C   UNL     1       0.385   2.393  -3.722  0.00  0.00    +0.000 A 
ATOM      9  C   UNL     1       0.611   3.729  -3.466  0.00  0.00    +0.004 A 
ATOM     10  C   UNL     1       0.511   4.229  -2.173  0.00  0.00    -0.040 A 
ATOM     11  C   UNL     1       0.761   5.701  -1.972  0.00  0.00    +0.069 C 
ATOM     12  C   UNL     1       1.092   6.001  -0.511  0.00  0.00    +0.189 C 
ENDROOT
BRANCH  12  13
ATOM     13  C   UNL     1       1.027   7.487  -0.268  0.00  0.00    +0.328 C 
ATOM     14  O   UNL     1       1.904   8.036   0.356  0.00  0.00    -0.249 OA
BRANCH  13  15
ATOM     15  O   UNL     1      -0.005   8.201  -0.744  0.00  0.00    -0.467 OA
ATOM     16  C   UNL     1      -0.002   9.627  -0.472  0.00  0.00    +0.280 C 
ENDBRANCH  13  15
ENDBRANCH  12  13
BRANCH   1  17
ATOM     17  C   UNL     1      -1.853   5.282   1.851  0.00  0.00    +0.173 C 
BRANCH  17  18
ATOM     18  S   UNL     1      -2.832   6.476   2.796  0.00  0.00    -0.077 S 
BRANCH  18  24
ATOM     19  C   UNL     1      -6.869   5.691   5.842  0.00  0.00    +0.066 C 
ATOM     20  C   UNL     1      -5.819   5.106   4.933  0.00  0.00    +0.044 A 
ATOM     21  C   UNL     1      -5.778   3.745   4.698  0.00  0.00    +0.066 A 
ATOM     22  C   UNL     1      -4.789   3.245   3.849  0.00  0.00    +0.121 A 
ATOM     23  N   UNL     1      -3.924   4.090   3.297  0.00  0.00    -0.207 NA
ATOM     24  C   UNL     1      -3.997   5.389   3.547  0.00  0.00    +0.191 A 
ATOM     25  N   UNL     1      -4.922   5.891   4.354  0.00  0.00    -0.227 NA
BRANCH  22  26
ATOM     26  N   UNL     1      -4.710   1.887   3.585  0.00  0.00    -0.343 N 
ATOM     27  H   UNL     1      -4.021   1.547   2.994  0.00  0.00    +0.144 HD
ATOM     28  H   UNL     1      -5.345   1.276   3.992  0.00  0.00    +0.144 HD
ENDBRANCH  22  26
ENDBRANCH  18  24
ENDBRANCH  17  18
ENDBRANCH   1  17
TORSDOF 6
