REMARK  Name = ZINC36937404
REMARK  8 active torsions:
REMARK  status: ('A' for Active; 'I' for Inactive)
REMARK    1  A    between atoms: C_1  and  C_2
REMARK    2  A    between atoms: C_3  and  C_8
REMARK    3  A    between atoms: C_4  and  N_7
REMARK    4  A    between atoms: C_11  and  O_14
REMARK    5  A    between atoms: O_14  and  C_15
REMARK    6  A    between atoms: C_15  and  C_16
REMARK    7  A    between atoms: C_16  and  C_17
REMARK    8  A    between atoms: C_16  and  C_18
REMARK                            x       y       z     vdW  Elec       q    Type
REMARK                         _______ _______ _______ _____ _____    ______ ____
ROOT
ATOM      1  C   UNL     1      -0.005  -0.363  -2.555  0.00  0.00    -0.011 A 
ATOM      2  C   UNL     1      -1.107   0.329  -3.053  0.00  0.00    +0.012 A 
ATOM      3  C   UNL     1      -1.116   0.757  -4.365  0.00  0.00    +0.046 A 
ATOM      4  C   UNL     1      -0.028   0.500  -5.188  0.00  0.00    +0.121 A 
ATOM      5  C   UNL     1       1.071  -0.189  -4.695  0.00  0.00    +0.046 A 
ATOM      6  C   UNL     1       1.088  -0.615  -3.383  0.00  0.00    +0.012 A 
ENDROOT
BRANCH   1   9
ATOM      7  C   UNL     1      -0.018   1.503   0.010  0.00  0.00    +0.070 C 
ATOM      8  C   UNL     1       0.002  -0.004   0.002  0.00  0.00    +0.090 A 
ATOM      9  C   UNL     1       0.008  -0.825  -1.146  0.00  0.00    +0.066 A 
ATOM     10  C   UNL     1       0.028  -2.138  -0.717  0.00  0.00    +0.223 A 
ATOM     11  O   UNL     1       0.034  -2.123   0.627  0.00  0.00    -0.339 OA
ATOM     12  N   UNL     1       0.023  -0.773   1.053  0.00  0.00    -0.081 NA
BRANCH  10  13
ATOM     13  N   UNL     1       0.039  -3.259  -1.520  0.00  0.00    -0.327 N 
ATOM     14  H   UNL     1       0.034  -3.164  -2.486  0.00  0.00    +0.145 HD
ATOM     15  H   UNL     1       0.053  -4.143  -1.120  0.00  0.00    +0.145 HD
ENDBRANCH  10  13
ENDBRANCH   1   9
BRANCH   4  16
ATOM     16  O   UNL     1      -0.040   0.923  -6.479  0.00  0.00    -0.492 OA
BRANCH  16  17
ATOM     17  C   UNL     1       1.112   0.625  -7.271  0.00  0.00    +0.232 C 
BRANCH  17  18
ATOM     18  C   UNL     1       0.916   1.175  -8.684  0.00  0.00    +0.020 C 
ATOM     19  C   UNL     1       2.197   0.966  -9.495  0.00  0.00    +0.010 C 
ATOM     20  C   UNL     1      -0.242   0.441  -9.363  0.00  0.00    +0.010 C 
ENDBRANCH  17  18
ENDBRANCH  16  17
ENDBRANCH   4  16
TORSDOF 5
