REMARK  Name = ZINC39919387
REMARK  4 active torsions:
REMARK  status: ('A' for Active; 'I' for Inactive)
REMARK    1  A    between atoms: C_2  and  C_3
REMARK    2  A    between atoms: C_3  and  O_4
REMARK    3  A    between atoms: O_4  and  C_5
REMARK    4  A    between atoms: C_10  and  C_11
REMARK                            x       y       z     vdW  Elec       q    Type
REMARK                         _______ _______ _______ _____ _____    ______ ____
ROOT
ATOM      1  C   UNL     1       1.218  -3.928   2.800  0.00  0.00    +0.077 C 
ATOM      2  C   UNL     1       0.724  -5.355   2.521  0.00  0.00    +0.153 C 
ATOM      3  C   UNL     1       1.637  -6.333   3.218  0.00  0.00    +0.116 C 
ATOM      4  N   UNL     1       2.278  -7.259   2.566  0.00  0.00    -0.205 NA
ATOM      5  C   UNL     1       2.181  -7.396   1.238  0.00  0.00    +0.206 C 
ATOM      6  N   UNL     1       1.431  -6.589   0.504  0.00  0.00    -0.147 NA
ATOM      7  C   UNL     1       0.728  -5.610   1.041  0.00  0.00    +0.250 C 
ATOM      8  O   UNL     1       0.064  -4.896   0.315  0.00  0.00    -0.273 OA
ATOM      9  N   UNL     1       2.879  -8.398   0.622  0.00  0.00    -0.329 N 
ATOM     10  N   UNL     1       1.785  -6.214   4.578  0.00  0.00    -0.301 N 
ATOM     11  C   UNL     1       1.853  -4.913   5.054  0.00  0.00    +0.048 C 
ATOM     12  C   UNL     1       1.594  -3.828   4.260  0.00  0.00    +0.030 C 
ATOM     13  C   UNL     1       1.737  -2.640   5.019  0.00  0.00    +0.192 C 
ATOM     14  O   UNL     1       1.574  -1.505   4.616  0.00  0.00    -0.287 OA
ATOM     15  C   UNL     1       2.120  -3.034   6.392  0.00  0.00    +0.031 A 
ATOM     16  C   UNL     1       2.191  -4.452   6.405  0.00  0.00    +0.007 A 
ATOM     17  C   UNL     1       2.530  -5.139   7.559  0.00  0.00    +0.010 A 
ATOM     18  C   UNL     1       2.796  -4.373   8.698  0.00  0.00    +0.001 A 
ATOM     19  C   UNL     1       2.728  -3.000   8.683  0.00  0.00    +0.001 A 
ATOM     20  C   UNL     1       2.386  -2.288   7.524  0.00  0.00    +0.012 A 
ATOM     21  H   UNL     1       3.433  -8.997   1.147  0.00  0.00    +0.145 HD
ATOM     22  H   UNL     1       2.819  -8.510  -0.340  0.00  0.00    +0.145 HD
ATOM     23  H   UNL     1       1.839  -6.985   5.165  0.00  0.00    +0.153 HD
ENDROOT
BRANCH   1  29
ATOM     24  C   UNL     1       2.392  -2.577   1.044  0.00  0.00    +0.125 A 
ATOM     25  C   UNL     1       3.505  -2.304   0.261  0.00  0.00    +0.046 A 
ATOM     26  C   UNL     1       4.638  -3.086   0.377  0.00  0.00    +0.004 A 
ATOM     27  C   UNL     1       4.663  -4.140   1.271  0.00  0.00    +0.001 A 
ATOM     28  C   UNL     1       3.556  -4.415   2.051  0.00  0.00    +0.008 A 
ATOM     29  C   UNL     1       2.422  -3.632   1.944  0.00  0.00    +0.003 A 
BRANCH  24  30
ATOM     30  O   UNL     1       1.277  -1.809   0.933  0.00  0.00    -0.488 OA
BRANCH  30  31
ATOM     31  C   UNL     1       1.317  -0.740  -0.015  0.00  0.00    +0.256 C 
BRANCH  31  33
ATOM     32  C   UNL     1      -0.016   1.306   0.009  0.00  0.00    +0.007 C 
ATOM     33  C   UNL     1       0.002  -0.004   0.002  0.00  0.00    +0.006 C 
ENDBRANCH  31  33
ENDBRANCH  30  31
ENDBRANCH  24  30
ENDBRANCH   1  29
TORSDOF 4
