REMARK  Name = ZINC27528381
REMARK  6 active torsions:
REMARK  status: ('A' for Active; 'I' for Inactive)
REMARK    1  A    between atoms: C_4  and  C_30
REMARK    2  A    between atoms: C_5  and  C_7
REMARK    3  A    between atoms: C_11  and  C_21
REMARK    4  A    between atoms: C_16  and  N_20
REMARK    5  A    between atoms: C_17  and  C_18
REMARK    6  A    between atoms: C_25  and  N_27
REMARK                            x       y       z     vdW  Elec       q    Type
REMARK                         _______ _______ _______ _____ _____    ______ ____
ROOT
ATOM      1  C   UNL     1       0.789  -1.992  -0.159  0.00  0.00    +0.083 C 
ATOM      2  C   UNL     1       0.315  -2.691  -1.439  0.00  0.00    +0.140 C 
ATOM      3  C   UNL     1       1.439  -2.792  -2.444  0.00  0.00    +0.084 C 
ATOM      4  N   UNL     1       1.666  -4.068  -2.605  0.00  0.00    -0.150 NA
ATOM      5  N   UNL     1       0.849  -4.857  -1.795  0.00  0.00    -0.115 NA
ATOM      6  C   UNL     1       0.059  -4.144  -1.051  0.00  0.00    +0.227 C 
ATOM      7  O   UNL     1      -0.793  -4.463  -0.052  0.00  0.00    -0.425 OA
ATOM      8  C   UNL     1      -0.754  -3.615   1.008  0.00  0.00    +0.200 C 
ATOM      9  C   UNL     1      -0.046  -2.466   1.000  0.00  0.00    +0.095 C 
ENDROOT
BRANCH   1  14
ATOM     10  C   UNL     1      -0.746   1.415  -0.695  0.00  0.00    +0.000 A 
ATOM     11  C   UNL     1       0.363   2.235  -0.597  0.00  0.00    +0.001 A 
ATOM     12  C   UNL     1       1.609   1.688  -0.357  0.00  0.00    +0.012 A 
ATOM     13  C   UNL     1       1.747   0.319  -0.215  0.00  0.00    +0.059 A 
ATOM     14  C   UNL     1       0.639  -0.501  -0.312  0.00  0.00    -0.026 A 
ATOM     15  C   UNL     1      -0.608   0.047  -0.554  0.00  0.00    +0.005 A 
BRANCH  13  16
ATOM     16  C   UNL     1       3.106  -0.278   0.046  0.00  0.00    +0.418 C 
ATOM     17  F   UNL     1       4.061   0.743   0.102  0.00  0.00    -0.166 F 
ATOM     18  F   UNL     1       3.086  -0.966   1.264  0.00  0.00    -0.166 F 
ATOM     19  F   UNL     1       3.431  -1.165  -0.986  0.00  0.00    -0.166 F 
ENDBRANCH  13  16
ENDBRANCH   1  14
BRANCH   3  20
ATOM     20  C   UNL     1       2.137  -1.679  -3.107  0.00  0.00    +0.001 A 
ATOM     21  C   UNL     1       1.517  -0.430  -3.222  0.00  0.00    +0.010 A 
ATOM     22  C   UNL     1       2.178   0.608  -3.844  0.00  0.00    +0.003 A 
ATOM     23  C   UNL     1       3.450   0.417  -4.354  0.00  0.00    +0.033 A 
ATOM     24  C   UNL     1       4.069  -0.816  -4.245  0.00  0.00    +0.127 A 
ATOM     25  C   UNL     1       3.424  -1.862  -3.620  0.00  0.00    +0.042 A 
BRANCH  24  26
ATOM     26  N   UNL     1       5.430  -1.009  -4.794  0.00  0.00    +0.056 N 
ATOM     27  O   UNL     1       5.999  -0.091  -5.338  0.00  0.00    -0.126 OA
ATOM     28  O   UNL     1       5.973  -2.085  -4.699  0.00  0.00    -0.126 OA
ENDBRANCH  24  26
ENDBRANCH   3  20
BRANCH   8  29
ATOM     29  N   UNL     1      -1.464  -3.942   2.137  0.00  0.00    -0.328 N 
ATOM     30  H   UNL     1      -1.978  -4.763   2.165  0.00  0.00    +0.145 HD
ATOM     31  H   UNL     1      -1.450  -3.351   2.906  0.00  0.00    +0.145 HD
ENDBRANCH   8  29
BRANCH   9  32
ATOM     32  C   UNL     1      -0.095  -1.641   2.170  0.00  0.00    +0.100 C 
ATOM     33  N   UNL     1      -0.133  -0.988   3.099  0.00  0.00    -0.191 NA
ENDBRANCH   9  32
TORSDOF 6
