REMARK  Name = ZINC37785660
REMARK  7 active torsions:
REMARK  status: ('A' for Active; 'I' for Inactive)
REMARK    1  A    between atoms: C_1  and  C_2
REMARK    2  A    between atoms: C_4  and  C_19
REMARK    3  A    between atoms: C_5  and  C_9
REMARK    4  A    between atoms: C_7  and  C_8
REMARK    5  A    between atoms: C_9  and  N_10
REMARK    6  A    between atoms: N_10  and  C_11
REMARK    7  A    between atoms: N_16  and  C_18
REMARK                            x       y       z     vdW  Elec       q    Type
REMARK                         _______ _______ _______ _____ _____    ______ ____
ROOT
ATOM      1  C   UNL     1       0.059  -4.275  -0.021  0.00  0.00    +0.137 C 
ENDROOT
BRANCH   1   6
ATOM      2  C   UNL     1      -0.018   1.503   0.010  0.00  0.00    +0.044 C 
ATOM      3  C   UNL     1       0.002  -0.004   0.002  0.00  0.00    -0.047 A 
ATOM      4  C   UNL     1       0.006  -0.689  -1.199  0.00  0.00    +0.007 A 
ATOM      5  C   UNL     1       0.025  -2.071  -1.207  0.00  0.00    -0.046 A 
ATOM      6  C   UNL     1       0.040  -2.768  -0.013  0.00  0.00    -0.027 A 
ATOM      7  C   UNL     1       0.037  -2.084   1.188  0.00  0.00    +0.009 A 
ATOM      8  C   UNL     1       0.023  -0.702   1.195  0.00  0.00    -0.047 A 
ATOM      9  C   UNL     1       0.025   0.045   2.504  0.00  0.00    +0.044 C 
ATOM     10  C   UNL     1       0.027  -2.817  -2.516  0.00  0.00    +0.044 C 
ENDBRANCH   1   6
BRANCH   1  11
ATOM     11  N   UNL     1       1.425  -4.745  -0.271  0.00  0.00    -0.339 N 
ATOM     12  H   UNL     1       2.142  -4.104  -0.400  0.00  0.00    +0.146 HD
BRANCH  11  13
ATOM     13  C   UNL     1       1.694  -6.120  -0.325  0.00  0.00    +0.044 A 
ATOM     14  C   UNL     1       0.655  -7.050  -0.145  0.00  0.00    +0.029 A 
ATOM     15  C   UNL     1       0.937  -8.384  -0.200  0.00  0.00    +0.072 A 
ATOM     16  C   UNL     1       2.257  -8.800  -0.436  0.00  0.00    +0.251 A 
ATOM     17  O   UNL     1       2.520  -9.992  -0.487  0.00  0.00    -0.268 OA
ATOM     18  N   UNL     1       3.234  -7.889  -0.605  0.00  0.00    -0.316 N 
ATOM     19  C   UNL     1       2.960  -6.558  -0.557  0.00  0.00    +0.111 A 
ATOM     20  C   UNL     1       4.607  -8.338  -0.851  0.00  0.00    +0.152 C 
ENDBRANCH  11  13
ENDBRANCH   1  11
TORSDOF 3
