REMARK  Name = ZINC44874096
REMARK  4 active torsions:
REMARK  status: ('A' for Active; 'I' for Inactive)
REMARK    1  A    between atoms: C_1  and  C_2
REMARK    2  A    between atoms: C_9  and  N_14
REMARK    3  A    between atoms: C_15  and  C_17
REMARK    4  A    between atoms: C_17  and  C_21
REMARK                            x       y       z     vdW  Elec       q    Type
REMARK                         _______ _______ _______ _____ _____    ______ ____
ROOT
ATOM      1  N   UNL     1       0.551  -5.619   2.946  0.00  0.00    -0.285 N 
ATOM      2  C   UNL     1       1.413  -6.602   3.274  0.00  0.00    +0.228 C 
ATOM      3  O   UNL     1       2.486  -6.328   3.769  0.00  0.00    -0.275 OA
ATOM      4  H   UNL     1      -0.333  -5.840   2.614  0.00  0.00    +0.155 HD
ENDROOT
BRANCH   1  12
ATOM      5  C   UNL     1       2.315   1.908   2.607  0.00  0.00    +0.062 C 
ATOM      6  C   UNL     1       2.241   0.413   2.288  0.00  0.00    +0.256 C 
ATOM      7  C   UNL     1       1.083   0.155   1.359  0.00  0.00    +0.258 C 
ATOM      8  O   UNL     1       0.714   1.018   0.591  0.00  0.00    -0.271 OA
ATOM      9  N   UNL     1       0.457  -1.042   1.385  0.00  0.00    -0.279 N 
ATOM     10  C   UNL     1       0.880  -2.011   2.306  0.00  0.00    +0.077 A 
ATOM     11  C   UNL     1       0.502  -3.335   2.163  0.00  0.00    +0.050 A 
ATOM     12  C   UNL     1       0.931  -4.278   3.087  0.00  0.00    +0.035 A 
ATOM     13  C   UNL     1       1.737  -3.893   4.150  0.00  0.00    +0.027 A 
ATOM     14  C   UNL     1       2.115  -2.571   4.293  0.00  0.00    +0.049 A 
ATOM     15  C   UNL     1       1.690  -1.627   3.374  0.00  0.00    +0.143 A 
ATOM     16  O   UNL     1       2.057  -0.323   3.500  0.00  0.00    -0.478 OA
ATOM     17  H   UNL     1      -0.274  -1.229   0.775  0.00  0.00    +0.155 HD
ENDBRANCH   1  12
BRANCH   2  18
ATOM     18  C   UNL     1       1.044  -8.042   3.025  0.00  0.00    +0.072 C 
ATOM     19  C   UNL     1       1.142  -8.457   1.548  0.00  0.00    +0.021 C 
ATOM     20  C   UNL     1       2.608  -8.826   1.831  0.00  0.00    +0.003 C 
ATOM     21  C   UNL     1       2.192  -9.028   3.297  0.00  0.00    +0.021 C 
BRANCH  18  22
ATOM     22  C   UNL     1      -0.256  -8.434   3.679  0.00  0.00    -0.032 A 
ATOM     23  C   UNL     1      -0.259  -9.338   4.724  0.00  0.00    +0.004 A 
ATOM     24  C   UNL     1      -1.451  -9.698   5.324  0.00  0.00    +0.000 A 
ATOM     25  C   UNL     1      -2.641  -9.153   4.878  0.00  0.00    +0.000 A 
ATOM     26  C   UNL     1      -2.638  -8.248   3.834  0.00  0.00    +0.000 A 
ATOM     27  C   UNL     1      -1.445  -7.885   3.237  0.00  0.00    +0.004 A 
ENDBRANCH  18  22
ENDBRANCH   2  18
TORSDOF 3
