REMARK  Name = ZINC54305036
REMARK  4 active torsions:
REMARK  status: ('A' for Active; 'I' for Inactive)
REMARK    1  A    between atoms: C_5  and  C_8
REMARK    2  A    between atoms: C_8  and  N_9
REMARK    3  A    between atoms: C_16  and  C_19
REMARK    4  A    between atoms: C_19  and  C_20
REMARK                            x       y       z     vdW  Elec       q    Type
REMARK                         _______ _______ _______ _____ _____    ______ ____
ROOT
ATOM      1  N   UNL     1       1.611  -2.481  -2.374  0.00  0.00    -0.297 N 
ATOM      2  C   UNL     1       1.808  -3.800  -2.569  0.00  0.00    +0.302 C 
ATOM      3  O   UNL     1       1.443  -4.600  -1.729  0.00  0.00    -0.253 OA
ATOM      4  N   UNL     1       2.410  -4.233  -3.695  0.00  0.00    -0.285 N 
ATOM      5  C   UNL     1       2.961  -3.276  -4.664  0.00  0.00    +0.109 C 
ATOM      6  C   UNL     1       2.377  -3.583  -6.046  0.00  0.00    +0.019 C 
ATOM      7  C   UNL     1       2.639  -5.050  -6.393  0.00  0.00    +0.007 C 
ATOM      8  C   UNL     1       1.948  -5.950  -5.366  0.00  0.00    +0.017 C 
ATOM      9  C   UNL     1       2.533  -5.670  -3.973  0.00  0.00    +0.113 C 
ATOM     10  H   UNL     1       1.968  -1.839  -3.008  0.00  0.00    +0.150 HD
ENDROOT
BRANCH   1  11
ATOM     11  C   UNL     1       0.860  -2.018  -1.206  0.00  0.00    +0.137 C 
BRANCH  11  16
ATOM     12  C   UNL     1      -0.024   1.527   0.008  0.00  0.00    +0.005 C 
ATOM     13  C   UNL     1       1.417   2.047  -0.002  0.00  0.00    +0.028 C 
ATOM     14  C   UNL     1       2.147   1.483  -1.224  0.00  0.00    +0.160 C 
ATOM     15  O   UNL     1       2.103   0.055  -1.186  0.00  0.00    -0.375 OA
ATOM     16  C   UNL     1       0.782  -0.490  -1.222  0.00  0.00    +0.135 C 
ATOM     17  C   UNL     1      -0.002  -0.004  -0.000  0.00  0.00    +0.033 C 
ENDBRANCH  11  16
ENDBRANCH   1  11
BRANCH   8  18
ATOM     18  C   UNL     1       2.183  -7.417  -5.732  0.00  0.00    +0.130 C 
BRANCH  18  19
ATOM     19  C   UNL     1       1.403  -8.300  -4.794  0.00  0.00    +0.356 C 
ATOM     20  O   UNL     1       0.721  -7.803  -3.913  0.00  0.00    -0.246 OA
ATOM     21  O   UNL     1       1.452  -9.512  -4.915  0.00  0.00    -0.246 OA
ENDBRANCH  18  19
ENDBRANCH   8  18
TORSDOF 4
