REMARK  Name = ZINC66278788
REMARK  9 active torsions:
REMARK  status: ('A' for Active; 'I' for Inactive)
REMARK    1  A    between atoms: C_1  and  C_2
REMARK    2  A    between atoms: N_4  and  N_5
REMARK    3  A    between atoms: C_6  and  C_8
REMARK    4  A    between atoms: N_11  and  S_14
REMARK    5  A    between atoms: S_14  and  C_17
REMARK    6  A    between atoms: C_20  and  C_23
REMARK    7  A    between atoms: C_23  and  C_24
REMARK    8  A    between atoms: C_23  and  C_25
REMARK    9  A    between atoms: C_23  and  C_26
REMARK                            x       y       z     vdW  Elec       q    Type
REMARK                         _______ _______ _______ _____ _____    ______ ____
ROOT
ATOM      1  C   UNL     1      -2.274  -4.291   0.001  0.00  0.00    +0.079 C 
ATOM      2  C   UNL     1      -1.556  -4.784  -1.258  0.00  0.00    +0.030 C 
ATOM      3  C   UNL     1      -1.507  -6.316  -1.246  0.00  0.00    +0.110 C 
ATOM      4  N   UNL     1      -2.874  -6.831  -1.089  0.00  0.00    -0.177 NA
ATOM      5  C   UNL     1      -3.685  -6.352   0.038  0.00  0.00    +0.110 C 
ATOM      6  C   UNL     1      -3.710  -4.821   0.012  0.00  0.00    +0.030 C 
ENDROOT
BRANCH   1   8
ATOM      7  N   UNL     1      -1.137  -2.095   0.002  0.00  0.00    -0.234 N 
ATOM      8  C   UNL     1      -2.295  -2.784   0.009  0.00  0.00    +0.232 C 
ATOM      9  O   UNL     1      -3.353  -2.192   0.022  0.00  0.00    -0.274 OA
ATOM     10  H   UNL     1      -0.290  -2.568  -0.009  0.00  0.00    +0.173 HD
BRANCH   7  14
ATOM     11  C   UNL     1      -0.018   1.503   0.010  0.00  0.00    +0.110 C 
ATOM     12  C   UNL     1       0.002  -0.004   0.002  0.00  0.00    +0.226 C 
ATOM     13  O   UNL     1       1.060  -0.596  -0.011  0.00  0.00    -0.275 OA
ATOM     14  N   UNL     1      -1.156  -0.694   0.009  0.00  0.00    -0.235 N 
ATOM     15  H   UNL     1      -2.002  -0.220   0.020  0.00  0.00    +0.173 HD
ENDBRANCH   7  14
ENDBRANCH   1   8
BRANCH   4  16
ATOM     16  S   UNL     1      -3.488  -7.932  -2.163  0.00  0.00    +0.061 S 
ATOM     17  O   UNL     1      -4.903  -7.808  -2.107  0.00  0.00    -0.153 OA
ATOM     18  O   UNL     1      -2.757  -7.772  -3.371  0.00  0.00    -0.153 OA
BRANCH  16  19
ATOM     19  C   UNL     1      -3.098  -9.536  -1.547  0.00  0.00    +0.105 A 
ATOM     20  C   UNL     1      -1.911 -10.145  -1.908  0.00  0.00    +0.029 A 
ATOM     21  C   UNL     1      -1.604 -11.403  -1.425  0.00  0.00    +0.006 A 
ATOM     22  C   UNL     1      -2.485 -12.052  -0.579  0.00  0.00    -0.042 A 
ATOM     23  C   UNL     1      -3.671 -11.442  -0.217  0.00  0.00    +0.006 A 
ATOM     24  C   UNL     1      -3.976 -10.182  -0.697  0.00  0.00    +0.029 A 
BRANCH  22  25
ATOM     25  C   UNL     1      -2.151 -13.424  -0.053  0.00  0.00    -0.013 C 
ATOM     26  C   UNL     1      -0.849 -13.360   0.748  0.00  0.00    +0.015 C 
ATOM     27  C   UNL     1      -3.283 -13.912   0.853  0.00  0.00    +0.015 C 
ATOM     28  C   UNL     1      -1.982 -14.393  -1.225  0.00  0.00    +0.015 C 
ENDBRANCH  22  25
ENDBRANCH  16  19
ENDBRANCH   4  16
TORSDOF 5
