REMARK  Name = ZINC40097264
REMARK  6 active torsions:
REMARK  status: ('A' for Active; 'I' for Inactive)
REMARK    1  A    between atoms: C_8  and  C_10
REMARK    2  A    between atoms: C_10  and  C_12
REMARK    3  A    between atoms: N_16  and  C_26
REMARK    4  A    between atoms: C_17  and  C_19
REMARK    5  A    between atoms: C_26  and  C_27
REMARK    6  A    between atoms: C_27  and  O_28
REMARK                            x       y       z     vdW  Elec       q    Type
REMARK                         _______ _______ _______ _____ _____    ______ ____
ROOT
ATOM      1  C   UNL     1       5.661  -3.234  -0.420  0.00  0.00    +0.080 C 
ATOM      2  C   UNL     1       6.860  -3.811  -0.670  0.00  0.00    +0.249 C 
ATOM      3  C   UNL     1       7.937  -2.867  -0.309  0.00  0.00    +0.288 C 
ATOM      4  O   UNL     1       9.127  -3.092  -0.419  0.00  0.00    -0.266 OA
ATOM      5  N   UNL     1       7.408  -1.722   0.158  0.00  0.00    -0.281 N 
ATOM      6  C   UNL     1       5.947  -1.853   0.122  0.00  0.00    +0.148 C 
ATOM      7  O   UNL     1       7.042  -5.055  -1.172  0.00  0.00    -0.282 OA
ENDROOT
BRANCH   6   8
ATOM      8  C   UNL     1       5.352  -0.807  -0.785  0.00  0.00    +0.013 A 
ATOM      9  C   UNL     1       5.286  -1.030  -2.148  0.00  0.00    +0.008 A 
ATOM     10  C   UNL     1       4.740  -0.071  -2.980  0.00  0.00    +0.001 A 
ATOM     11  C   UNL     1       4.260   1.113  -2.451  0.00  0.00    +0.003 A 
ATOM     12  C   UNL     1       4.324   1.337  -1.089  0.00  0.00    +0.039 A 
ATOM     13  C   UNL     1       4.865   0.375  -0.253  0.00  0.00    +0.129 A 
ATOM     14  F   UNL     1       4.924   0.592   1.079  0.00  0.00    -0.205 F 
ENDBRANCH   6   8
BRANCH   1  15
ATOM     15  C   UNL     1       4.340  -3.833  -0.639  0.00  0.00    +0.230 C 
ATOM     16  O   UNL     1       4.245  -4.918  -1.184  0.00  0.00    -0.283 OA
BRANCH  15  24
ATOM     17  C   UNL     1      -0.903  -1.301   0.975  0.00  0.00    +0.001 A 
ATOM     18  C   UNL     1      -0.056  -0.312   1.457  0.00  0.00    +0.004 A 
ATOM     19  C   UNL     1       1.311  -0.429   1.325  0.00  0.00    +0.047 A 
ATOM     20  C   UNL     1       1.853  -1.548   0.703  0.00  0.00    +0.136 A 
ATOM     21  C   UNL     1       0.990  -2.548   0.216  0.00  0.00    +0.021 A 
ATOM     22  C   UNL     1      -0.394  -2.410   0.360  0.00  0.00    +0.011 A 
ATOM     23  C   UNL     1       1.856  -3.568  -0.370  0.00  0.00    +0.061 A 
ATOM     24  C   UNL     1       3.131  -3.123  -0.200  0.00  0.00    +0.176 A 
ATOM     25  O   UNL     1       3.116  -1.932   0.434  0.00  0.00    -0.452 OA
ENDBRANCH  15  24
ENDBRANCH   1  15
BRANCH   5  26
ATOM     26  C   UNL     1       8.158  -0.550   0.617  0.00  0.00    +0.137 C 
BRANCH  26  27
ATOM     27  C   UNL     1       8.544   0.311  -0.588  0.00  0.00    +0.175 C 
BRANCH  27  28
ATOM     28  O   UNL     1       7.364   0.851  -1.185  0.00  0.00    -0.393 OA
ATOM     29  H   UNL     1       7.527   1.349  -1.998  0.00  0.00    +0.209 HD
ENDBRANCH  27  28
ENDBRANCH  26  27
ENDBRANCH   5  26
TORSDOF 6
