REMARK  Name = ZINC67438834
REMARK  11 active torsions:
REMARK  status: ('A' for Active; 'I' for Inactive)
REMARK    1  A    between atoms: C_1  and  C_2
REMARK    2  A    between atoms: C_4  and  C_28
REMARK    3  A    between atoms: C_7  and  N_8
REMARK    4  A    between atoms: C_9  and  C_11
REMARK    5  A    between atoms: N_13  and  C_14
REMARK    6  A    between atoms: C_14  and  C_16
REMARK    7  A    between atoms: C_14  and  C_17
REMARK    8  A    between atoms: C_17  and  N_18
REMARK    9  A    between atoms: C_20  and  C_27
REMARK   10  A    between atoms: C_23  and  C_26
REMARK   11  A    between atoms: N_30  and  C_31
REMARK                            x       y       z     vdW  Elec       q    Type
REMARK                         _______ _______ _______ _____ _____    ______ ____
ROOT
ATOM      1  N   UNL     1      -0.157   0.167   2.442  0.00  0.00    -0.278 N 
ATOM      2  C   UNL     1      -0.239  -0.530   3.592  0.00  0.00    +0.303 C 
ATOM      3  O   UNL     1      -0.314  -1.741   3.564  0.00  0.00    -0.265 OA
ATOM      4  H   UNL     1      -0.024   1.127   2.465  0.00  0.00    +0.155 HD
ENDROOT
BRANCH   1  11
ATOM      5  C   UNL     1      -1.424   1.534   0.298  0.00  0.00    +0.045 C 
ATOM      6  C   UNL     1      -0.876   0.139   0.141  0.00  0.00    -0.029 A 
ATOM      7  C   UNL     1      -0.978  -0.508  -1.070  0.00  0.00    +0.018 A 
ATOM      8  C   UNL     1      -0.469  -1.802  -1.215  0.00  0.00    +0.037 A 
ATOM      9  C   UNL     1       0.141  -2.435  -0.128  0.00  0.00    +0.015 A 
ATOM     10  C   UNL     1       0.240  -1.783   1.080  0.00  0.00    +0.024 A 
ATOM     11  C   UNL     1      -0.263  -0.492   1.219  0.00  0.00    +0.037 A 
BRANCH   8  12
ATOM     12  C   UNL     1      -0.578  -2.498  -2.511  0.00  0.00    +0.244 C 
ATOM     13  O   UNL     1      -1.109  -1.946  -3.455  0.00  0.00    -0.270 OA
ATOM     14  N   UNL     1      -0.087  -3.746  -2.649  0.00  0.00    -0.314 N 
ATOM     15  C   UNL     1      -0.194  -4.437  -3.937  0.00  0.00    +0.128 C 
ATOM     16  H   UNL     1       0.338  -4.186  -1.896  0.00  0.00    +0.149 HD
ENDBRANCH   8  12
ENDBRANCH   1  11
BRANCH   2  17
ATOM     17  C   UNL     1      -0.237   0.188   4.902  0.00  0.00    +0.299 C 
ATOM     18  O   UNL     1      -0.162   1.399   4.930  0.00  0.00    -0.265 OA
ATOM     19  N   UNL     1      -0.319  -0.509   6.053  0.00  0.00    -0.307 N 
ATOM     20  H   UNL     1      -0.379  -1.477   6.030  0.00  0.00    +0.149 HD
BRANCH  19  21
ATOM     21  C   UNL     1      -0.318   0.195   7.337  0.00  0.00    +0.054 C 
ATOM     22  C   UNL     1      -1.754   0.554   7.724  0.00  0.00    +0.026 C 
BRANCH  21  23
ATOM     23  C   UNL     1       0.289  -0.708   8.413  0.00  0.00    -0.057 C 
BRANCH  23  24
ATOM     24  N   UNL     1       1.630  -1.137   7.993  0.00  0.00    +0.381 N 
ATOM     25  C   UNL     1       2.150  -2.119   8.951  0.00  0.00    -0.076 C 
ATOM     26  C   UNL     1       3.512  -2.630   8.475  0.00  0.00    -0.031 C 
ATOM     27  C   UNL     1       4.485  -1.452   8.372  0.00  0.00    +0.003 C 
ATOM     28  C   UNL     1       3.897  -0.399   7.427  0.00  0.00    -0.031 C 
ATOM     29  C   UNL     1       2.521   0.029   7.942  0.00  0.00    -0.076 C 
ATOM     30  C   UNL     1       4.825   0.817   7.376  0.00  0.00    +0.005 C 
ATOM     31  C   UNL     1       4.052  -3.653   9.476  0.00  0.00    +0.005 C 
ATOM     32  H   UNL     1       1.576  -1.558   7.078  0.00  0.00    -0.082 HD
ENDBRANCH  23  24
ENDBRANCH  21  23
ENDBRANCH  19  21
ENDBRANCH   2  17
TORSDOF 6
