REMARK  Name = ZINC36259932
REMARK  9 active torsions:
REMARK  status: ('A' for Active; 'I' for Inactive)
REMARK    1  A    between atoms: C_1  and  C_2
REMARK    2  A    between atoms: C_5  and  C_8
REMARK    3  A    between atoms: C_8  and  C_32
REMARK    4  A    between atoms: N_11  and  C_15
REMARK    5  A    between atoms: C_15  and  C_16
REMARK    6  A    between atoms: N_18  and  C_19
REMARK    7  A    between atoms: C_20  and  C_28
REMARK    8  A    between atoms: C_28  and  O_30
REMARK    9  A    between atoms: O_30  and  C_31
REMARK                            x       y       z     vdW  Elec       q    Type
REMARK                         _______ _______ _______ _____ _____    ______ ____
ROOT
ATOM      1  C   UNL     1      -2.746  -6.258   1.391  0.00  0.00    +0.214 C 
ENDROOT
BRANCH   1   5
ATOM      2  C   UNL     1       0.059  -4.275  -0.021  0.00  0.00    +0.135 C 
ATOM      3  C   UNL     1      -0.728  -4.825   1.151  0.00  0.00    +0.251 C 
ATOM      4  O   UNL     1      -0.502  -4.654   2.330  0.00  0.00    -0.272 OA
ATOM      5  N   UNL     1      -1.732  -5.543   0.611  0.00  0.00    -0.215 N 
ATOM      6  C   UNL     1      -1.689  -5.524  -0.726  0.00  0.00    +0.310 C 
ATOM      7  O   UNL     1      -2.490  -6.100  -1.437  0.00  0.00    -0.252 OA
ATOM      8  N   UNL     1      -0.660  -4.796  -1.197  0.00  0.00    -0.281 N 
ATOM      9  C   UNL     1       1.499  -4.794   0.002  0.00  0.00    +0.047 C 
ATOM     10  H   UNL     1      -0.435  -4.644  -2.128  0.00  0.00    +0.152 HD
BRANCH   2  15
ATOM     11  C   UNL     1      -0.018   1.503   0.010  0.00  0.00    +0.044 C 
ATOM     12  C   UNL     1       0.002  -0.004   0.002  0.00  0.00    -0.050 A 
ATOM     13  C   UNL     1       0.006  -0.689  -1.199  0.00  0.00    +0.004 A 
ATOM     14  C   UNL     1       0.025  -2.071  -1.206  0.00  0.00    +0.006 A 
ATOM     15  C   UNL     1       0.040  -2.768  -0.013  0.00  0.00    -0.015 A 
ATOM     16  C   UNL     1       0.037  -2.084   1.188  0.00  0.00    +0.006 A 
ATOM     17  C   UNL     1       0.023  -0.702   1.195  0.00  0.00    +0.004 A 
ENDBRANCH   2  15
ENDBRANCH   1   5
BRANCH   1  18
ATOM     18  C   UNL     1      -3.917  -5.345   1.650  0.00  0.00    +0.236 C 
ATOM     19  O   UNL     1      -3.906  -4.210   1.224  0.00  0.00    -0.274 OA
ATOM     20  N   UNL     1      -4.976  -5.791   2.354  0.00  0.00    -0.278 N 
ATOM     21  H   UNL     1      -4.984  -6.699   2.694  0.00  0.00    +0.155 HD
BRANCH  20  22
ATOM     22  C   UNL     1      -6.053  -4.951   2.592  0.00  0.00    +0.086 A 
ATOM     23  C   UNL     1      -7.215  -5.233   3.294  0.00  0.00    +0.091 A 
ATOM     24  C   UNL     1      -8.200  -4.170   3.401  0.00  0.00    -0.021 A 
ATOM     25  C   UNL     1      -7.843  -3.022   2.787  0.00  0.00    -0.004 A 
ATOM     26  S   UNL     1      -6.247  -3.357   2.102  0.00  0.00    -0.077 S 
ATOM     27  C   UNL     1      -8.637  -1.755   2.717  0.00  0.00    +0.043 C 
ATOM     28  C   UNL     1     -10.084  -2.069   3.126  0.00  0.00    +0.005 C 
ATOM     29  C   UNL     1     -10.066  -2.892   4.417  0.00  0.00    +0.005 C 
ATOM     30  C   UNL     1      -9.528  -4.296   4.133  0.00  0.00    +0.037 C 
BRANCH  23  31
ATOM     31  C   UNL     1      -7.440  -6.546   3.902  0.00  0.00    +0.342 C 
ATOM     32  O   UNL     1      -7.077  -6.758   5.043  0.00  0.00    -0.245 OA
BRANCH  31  33
ATOM     33  O   UNL     1      -8.049  -7.521   3.196  0.00  0.00    -0.464 OA
ATOM     34  C   UNL     1      -8.236  -8.777   3.851  0.00  0.00    +0.280 C 
ENDBRANCH  31  33
ENDBRANCH  23  31
ENDBRANCH  20  22
ENDBRANCH   1  18
TORSDOF 6
