REMARK  Name = ZINC04565005
REMARK  8 active torsions:
REMARK  status: ('A' for Active; 'I' for Inactive)
REMARK    1  A    between atoms: C_1  and  C_2
REMARK    2  A    between atoms: C_2  and  C_28
REMARK    3  A    between atoms: C_11  and  C_12
REMARK    4  A    between atoms: C_12  and  C_14
REMARK    5  A    between atoms: N_16  and  N_17
REMARK    6  A    between atoms: C_18  and  C_19
REMARK    7  A    between atoms: C_22  and  O_26
REMARK    8  A    between atoms: C_23  and  O_25
REMARK                            x       y       z     vdW  Elec       q    Type
REMARK                         _______ _______ _______ _____ _____    ______ ____
ROOT
ATOM      1  C   UNL     1      -4.098   0.098   0.367  0.00  0.00    +0.244 C 
ATOM      2  O   UNL     1      -3.428  -0.226   1.332  0.00  0.00    -0.282 OA
ENDROOT
BRANCH   1  13
ATOM      3  C   UNL     1      -0.019   1.526   0.010  0.00  0.00    +0.031 C 
ATOM      4  C   UNL     1       0.002  -0.004   0.002  0.00  0.00    +0.030 C 
ATOM      5  C   UNL     1       0.713  -0.499  -1.257  0.00  0.00    +0.061 C 
ATOM      6  C   UNL     1      -0.132  -0.250  -2.481  0.00  0.00    -0.036 A 
ATOM      7  C   UNL     1       0.474  -0.187  -3.721  0.00  0.00    +0.004 A 
ATOM      8  C   UNL     1      -0.284   0.024  -4.858  0.00  0.00    +0.000 A 
ATOM      9  C   UNL     1      -1.657   0.176  -4.769  0.00  0.00    +0.001 A 
ATOM     10  C   UNL     1      -2.278   0.120  -3.538  0.00  0.00    +0.010 A 
ATOM     11  C   UNL     1      -1.516  -0.090  -2.388  0.00  0.00    -0.001 A 
ATOM     12  C   UNL     1      -2.174  -0.144  -1.063  0.00  0.00    +0.039 C 
ATOM     13  C   UNL     1      -3.513   0.161  -0.902  0.00  0.00    +0.079 C 
ATOM     14  N   UNL     1      -1.379  -0.516   0.007  0.00  0.00    -0.338 N 
ATOM     15  C   UNL     1       0.742  -0.513   1.241  0.00  0.00    +0.031 C 
ATOM     16  H   UNL     1      -1.725  -1.156   0.833  0.00  0.00    +0.147 HD
ENDBRANCH   1  13
BRANCH   1  17
ATOM     17  C   UNL     1      -5.540   0.427   0.540  0.00  0.00    +0.303 C 
ATOM     18  O   UNL     1      -6.208   0.749  -0.422  0.00  0.00    -0.265 OA
ATOM     19  N   UNL     1      -6.104   0.366   1.762  0.00  0.00    -0.200 N 
ATOM     20  H   UNL     1      -5.498   0.073   2.633  0.00  0.00    +0.178 HD
BRANCH  19  21
ATOM     21  N   UNL     1      -7.460   0.675   1.925  0.00  0.00    -0.187 NA
ATOM     22  C   UNL     1      -8.003   0.617   3.103  0.00  0.00    +0.138 C 
BRANCH  22  23
ATOM     23  C   UNL     1      -9.431   0.942   3.274  0.00  0.00    -0.002 A 
ATOM     24  C   UNL     1     -10.200   1.319   2.170  0.00  0.00    +0.013 A 
ATOM     25  C   UNL     1     -11.536   1.618   2.331  0.00  0.00    +0.050 A 
ATOM     26  C   UNL     1     -12.118   1.556   3.589  0.00  0.00    +0.158 A 
ATOM     27  C   UNL     1     -11.355   1.186   4.695  0.00  0.00    +0.159 A 
ATOM     28  C   UNL     1     -10.017   0.879   4.541  0.00  0.00    +0.058 A 
BRANCH  27  29
ATOM     29  O   UNL     1     -11.929   1.126   5.927  0.00  0.00    -0.503 OA
ATOM     30  H   UNL     1     -11.327   0.834   6.800  0.00  0.00    +0.292 HD
ENDBRANCH  27  29
BRANCH  26  31
ATOM     31  O   UNL     1     -13.434   1.857   3.743  0.00  0.00    -0.503 OA
ATOM     32  H   UNL     1     -13.897   1.808   4.740  0.00  0.00    +0.292 HD
ENDBRANCH  26  31
ENDBRANCH  22  23
ENDBRANCH  19  21
ENDBRANCH   1  17
TORSDOF 6
