REMARK  Name = ZINC64374222
REMARK  11 active torsions:
REMARK  status: ('A' for Active; 'I' for Inactive)
REMARK    1  A    between atoms: C_1  and  C_2
REMARK    2  A    between atoms: C_8  and  C_10
REMARK    3  A    between atoms: C_13  and  N_16
REMARK    4  A    between atoms: C_17  and  C_19
REMARK    5  A    between atoms: C_19  and  C_20
REMARK    6  A    between atoms: C_20  and  C_21
REMARK    7  A    between atoms: C_21  and  N_22
REMARK    8  A    between atoms: C_23  and  C_25
REMARK    9  A    between atoms: C_25  and  C_26
REMARK   10  A    between atoms: C_25  and  C_27
REMARK   11  A    between atoms: C_25  and  C_28
REMARK                            x       y       z     vdW  Elec       q    Type
REMARK                         _______ _______ _______ _____ _____    ______ ____
ROOT
ATOM      1  C   UNL     1       2.528  -2.645  -0.042  0.00  0.00    +0.017 A 
ATOM      2  C   UNL     1       3.583  -2.118  -0.793  0.00  0.00    +0.013 A 
ATOM      3  C   UNL     1       4.806  -2.750  -0.794  0.00  0.00    +0.024 A 
ATOM      4  C   UNL     1       4.993  -3.910  -0.050  0.00  0.00    +0.033 A 
ATOM      5  C   UNL     1       3.945  -4.437   0.698  0.00  0.00    +0.024 A 
ATOM      6  C   UNL     1       2.720  -3.808   0.709  0.00  0.00    +0.013 A 
ENDROOT
BRANCH   1  14
ATOM      7  C   UNL     1      -2.071  -2.503   1.543  0.00  0.00    +0.066 C 
ATOM      8  C   UNL     1      -0.969  -1.899   0.712  0.00  0.00    +0.046 A 
ATOM      9  C   UNL     1      -1.202  -0.762  -0.005  0.00  0.00    +0.093 A 
ATOM     10  C   UNL     1      -0.157  -0.215  -0.774  0.00  0.00    +0.252 A 
ATOM     11  O   UNL     1      -0.331   0.800  -1.428  0.00  0.00    -0.268 OA
ATOM     12  N   UNL     1       1.042  -0.837  -0.775  0.00  0.00    -0.307 N 
ATOM     13  H   UNL     1       1.776  -0.478  -1.297  0.00  0.00    +0.170 HD
ATOM     14  C   UNL     1       1.215  -1.971  -0.037  0.00  0.00    +0.141 A 
ATOM     15  N   UNL     1       0.233  -2.471   0.684  0.00  0.00    -0.234 NA
ENDBRANCH   1  14
BRANCH   4  16
ATOM     16  N   UNL     1       6.234  -4.547  -0.054  0.00  0.00    -0.285 N 
ATOM     17  C   UNL     1       7.365  -3.820  -0.152  0.00  0.00    +0.217 C 
ATOM     18  O   UNL     1       7.309  -2.608  -0.140  0.00  0.00    -0.275 OA
ATOM     19  H   UNL     1       6.284  -5.514   0.014  0.00  0.00    +0.155 HD
BRANCH  17  20
ATOM     20  C   UNL     1       8.697  -4.512  -0.276  0.00  0.00    +0.097 C 
BRANCH  20  21
ATOM     21  C   UNL     1       9.809  -3.465  -0.371  0.00  0.00    +0.028 C 
BRANCH  21  22
ATOM     22  C   UNL     1      11.162  -4.168  -0.497  0.00  0.00    +0.104 C 
BRANCH  22  23
ATOM     23  N   UNL     1      12.227  -3.165  -0.588  0.00  0.00    -0.315 N 
ATOM     24  C   UNL     1      13.511  -3.555  -0.706  0.00  0.00    +0.218 C 
ATOM     25  O   UNL     1      13.786  -4.736  -0.737  0.00  0.00    -0.275 OA
ATOM     26  H   UNL     1      12.007  -2.221  -0.562  0.00  0.00    +0.149 HD
BRANCH  24  27
ATOM     27  C   UNL     1      14.606  -2.524  -0.799  0.00  0.00    +0.039 C 
ATOM     28  C   UNL     1      15.959  -3.227  -0.925  0.00  0.00    +0.020 C 
ATOM     29  C   UNL     1      14.373  -1.642  -2.027  0.00  0.00    +0.020 C 
ATOM     30  C   UNL     1      14.598  -1.656   0.461  0.00  0.00    +0.020 C 
ENDBRANCH  24  27
ENDBRANCH  22  23
ENDBRANCH  21  22
ENDBRANCH  20  21
ENDBRANCH  17  20
ENDBRANCH   4  16
TORSDOF 7
