REMARK  Name = ZINC00067384
REMARK  7 active torsions:
REMARK  status: ('A' for Active; 'I' for Inactive)
REMARK    1  A    between atoms: C_1  and  C_2
REMARK    2  A    between atoms: C_2  and  N_3
REMARK    3  A    between atoms: C_4  and  C_22
REMARK    4  A    between atoms: C_5  and  C_18
REMARK    5  A    between atoms: C_6  and  C_11
REMARK    6  A    between atoms: C_18  and  O_20
REMARK    7  A    between atoms: O_20  and  C_21
REMARK                            x       y       z     vdW  Elec       q    Type
REMARK                         _______ _______ _______ _____ _____    ______ ____
ROOT
ATOM      1  N   UNL     1       3.636   2.388   0.613  0.00  0.00    -0.259 N 
ATOM      2  C   UNL     1       2.708   1.446   0.271  0.00  0.00    +0.024 C 
ATOM      3  C   UNL     1       1.474   1.803  -0.145  0.00  0.00    +0.078 C 
ATOM      4  C   UNL     1       1.157   3.283  -0.225  0.00  0.00    +0.146 C 
ATOM      5  N   UNL     1       2.225   4.216   0.171  0.00  0.00    -0.288 N 
ATOM      6  C   UNL     1       3.409   3.706   0.566  0.00  0.00    +0.307 C 
ATOM      7  O   UNL     1       4.298   4.468   0.890  0.00  0.00    -0.252 OA
ATOM      8  C   UNL     1       3.067  -0.015   0.360  0.00  0.00    +0.061 C 
ATOM      9  H   UNL     1       2.082   5.175   0.143  0.00  0.00    +0.151 HD
ENDROOT
BRANCH   4  10
ATOM     10  C   UNL     1       0.762   3.597  -1.644  0.00  0.00    +0.013 A 
ATOM     11  C   UNL     1      -0.562   3.849  -1.954  0.00  0.00    +0.008 A 
ATOM     12  C   UNL     1      -0.924   4.143  -3.255  0.00  0.00    +0.001 A 
ATOM     13  C   UNL     1       0.035   4.174  -4.250  0.00  0.00    +0.003 A 
ATOM     14  C   UNL     1       1.358   3.917  -3.945  0.00  0.00    +0.039 A 
ATOM     15  C   UNL     1       1.723   3.628  -2.640  0.00  0.00    +0.129 A 
ATOM     16  F   UNL     1       3.016   3.377  -2.340  0.00  0.00    -0.205 F 
ENDBRANCH   4  10
BRANCH   1  18
ATOM     17  C   UNL     1       5.836   1.652  -0.164  0.00  0.00    +0.025 C 
ATOM     18  C   UNL     1       4.955   1.929   1.056  0.00  0.00    +0.111 C 
ENDBRANCH   1  18
BRANCH   3  19
ATOM     19  C   UNL     1       0.512   0.829  -0.499  0.00  0.00    +0.339 C 
ATOM     20  O   UNL     1       0.825  -0.346  -0.549  0.00  0.00    -0.245 OA
BRANCH  19  21
ATOM     21  O   UNL     1      -0.753   1.203  -0.787  0.00  0.00    -0.465 OA
ATOM     22  C   UNL     1      -1.670   0.167  -1.143  0.00  0.00    +0.280 C 
ENDBRANCH  19  21
ENDBRANCH   3  19
TORSDOF 4
