REMARK  Name = ZINC20779029
REMARK  9 active torsions:
REMARK  status: ('A' for Active; 'I' for Inactive)
REMARK    1  A    between atoms: C_1  and  N_2
REMARK    2  A    between atoms: C_3  and  C_28
REMARK    3  A    between atoms: C_6  and  C_17
REMARK    4  A    between atoms: C_8  and  C_10
REMARK    5  A    between atoms: C_17  and  N_18
REMARK    6  A    between atoms: N_18  and  C_19
REMARK    7  A    between atoms: C_19  and  C_20
REMARK    8  A    between atoms: C_25  and  O_26
REMARK    9  A    between atoms: C_28  and  O_29
REMARK                            x       y       z     vdW  Elec       q    Type
REMARK                         _______ _______ _______ _____ _____    ______ ____
ROOT
ATOM      1  C   UNL     1       0.984   9.274  -4.440  0.00  0.00    -0.095 C 
ATOM      2  N   UNL     1       0.586   8.078  -3.686  0.00  0.00    +0.386 N 
ATOM      3  C   UNL     1       0.235   6.963  -4.603  0.00  0.00    -0.042 C 
ATOM      4  C   UNL     1       0.365   5.709  -3.702  0.00  0.00    -0.013 C 
ATOM      5  C   UNL     1       1.589   6.044  -2.818  0.00  0.00    -0.039 C 
ATOM      6  C   UNL     1       1.702   7.580  -2.854  0.00  0.00    -0.033 C 
ATOM      7  H   UNL     1      -0.272   8.385  -3.069  0.00  0.00    -0.081 HD
ENDROOT
BRANCH   6   8
ATOM      8  C   UNL     1       1.589   8.136  -1.458  0.00  0.00    -0.026 A 
ATOM      9  C   UNL     1       0.366   8.572  -0.984  0.00  0.00    +0.005 A 
ATOM     10  C   UNL     1       0.263   9.081   0.297  0.00  0.00    +0.000 A 
ATOM     11  C   UNL     1       1.382   9.155   1.106  0.00  0.00    +0.003 A 
ATOM     12  C   UNL     1       2.606   8.720   0.634  0.00  0.00    +0.038 A 
ATOM     13  C   UNL     1       2.710   8.204  -0.647  0.00  0.00    +0.125 A 
ATOM     14  F   UNL     1       3.904   7.773  -1.107  0.00  0.00    -0.205 F 
ENDBRANCH   6   8
BRANCH   5  15
ATOM     15  C   UNL     1       1.356   5.562  -1.385  0.00  0.00    -0.080 C 
BRANCH  15  16
ATOM     16  N   UNL     1       1.370   4.094  -1.354  0.00  0.00    +0.382 N 
ATOM     17  H   UNL     1       0.573   3.706  -2.005  0.00  0.00    -0.085 HD
ATOM     18  H   UNL     1       2.344   3.729  -1.710  0.00  0.00    -0.085 HD
BRANCH  16  19
ATOM     19  C   UNL     1       1.149   3.594   0.010  0.00  0.00    -0.043 C 
BRANCH  19  20
ATOM     20  C   UNL     1       1.170   2.087   0.002  0.00  0.00    -0.022 A 
ATOM     21  C   UNL     1      -0.017   1.379   0.010  0.00  0.00    +0.025 A 
ATOM     22  C   UNL     1       0.002  -0.004   0.002  0.00  0.00    +0.041 A 
ATOM     23  C   UNL     1       1.209  -0.681  -0.013  0.00  0.00    +0.023 A 
ATOM     24  C   UNL     1       2.397   0.023  -0.021  0.00  0.00    +0.047 A 
ATOM     25  C   UNL     1       2.380   1.410  -0.013  0.00  0.00    +0.118 A 
ATOM     26 CL   UNL     1      -1.490  -0.891   0.011  0.00  0.00    -0.084 Cl
BRANCH  25  27
ATOM     27  O   UNL     1       3.549   2.105  -0.021  0.00  0.00    -0.507 OA
ATOM     28  H   UNL     1       4.508   1.567  -0.033  0.00  0.00    +0.292 HD
ENDBRANCH  25  27
ENDBRANCH  19  20
ENDBRANCH  16  19
ENDBRANCH  15  16
ENDBRANCH   5  15
BRANCH   3  29
ATOM     29  C   UNL     1      -1.198   7.117  -5.117  0.00  0.00    +0.140 C 
BRANCH  29  30
ATOM     30  O   UNL     1      -1.284   8.275  -5.949  0.00  0.00    -0.397 OA
ATOM     31  H   UNL     1      -2.243   8.550  -6.412  0.00  0.00    +0.209 HD
ENDBRANCH  29  30
ENDBRANCH   3  29
TORSDOF 8
