REMARK  Name = ZINC12999122
REMARK  9 active torsions:
REMARK  status: ('A' for Active; 'I' for Inactive)
REMARK    1  A    between atoms: C_1  and  C_2
REMARK    2  A    between atoms: C_8  and  C_10
REMARK    3  A    between atoms: C_10  and  C_12
REMARK    4  A    between atoms: C_10  and  N_13
REMARK    5  A    between atoms: N_13  and  C_14
REMARK    6  A    between atoms: C_17  and  O_22
REMARK    7  A    between atoms: C_19  and  O_20
REMARK    8  A    between atoms: O_20  and  C_21
REMARK    9  A    between atoms: O_22  and  C_23
REMARK                            x       y       z     vdW  Elec       q    Type
REMARK                         _______ _______ _______ _____ _____    ______ ____
ROOT
ATOM      1  N   UNL     1      -5.949  -0.011   1.860  0.00  0.00    -0.330 N 
ATOM      2  H   UNL     1      -6.379  -0.573   1.196  0.00  0.00    +0.147 HD
ENDROOT
BRANCH   1   3
ATOM      3  C   UNL     1      -4.615   0.383   1.689  0.00  0.00    +0.072 A 
ATOM      4  C   UNL     1      -4.001   1.186   2.638  0.00  0.00    +0.050 A 
ATOM      5  C   UNL     1      -2.683   1.570   2.471  0.00  0.00    +0.084 A 
ATOM      6  C   UNL     1      -1.976   1.163   1.348  0.00  0.00    +0.142 A 
ATOM      7  C   UNL     1      -2.587   0.360   0.397  0.00  0.00    +0.094 A 
ATOM      8  C   UNL     1      -3.905  -0.032   0.565  0.00  0.00    +0.144 A 
ATOM      9 CL   UNL     1      -1.913   2.570   3.664  0.00  0.00    -0.080 Cl
BRANCH   8  10
ATOM     10  O   UNL     1      -4.505  -0.820  -0.368  0.00  0.00    -0.493 OA
ATOM     11  C   UNL     1      -3.716  -1.207  -1.495  0.00  0.00    +0.277 C 
ENDBRANCH   8  10
BRANCH   6  12
ATOM     12  O   UNL     1      -0.682   1.547   1.184  0.00  0.00    -0.494 OA
ATOM     13  C   UNL     1      -0.013   1.086   0.008  0.00  0.00    +0.277 C 
ENDBRANCH   6  12
ENDBRANCH   1   3
BRANCH   1  14
ATOM     14  C   UNL     1      -6.696   0.425   3.043  0.00  0.00    +0.154 C 
ATOM     15  C   UNL     1      -7.291   1.811   2.788  0.00  0.00    +0.038 C 
BRANCH  14  23
ATOM     16  C   UNL     1     -11.774  -4.219   4.194  0.00  0.00    +0.089 C 
ATOM     17  C   UNL     1     -11.030  -2.958   4.551  0.00  0.00    +0.136 A 
ATOM     18  C   UNL     1      -9.966  -2.436   3.900  0.00  0.00    +0.091 A 
ATOM     19  C   UNL     1      -9.656  -1.262   4.637  0.00  0.00    +0.168 A 
ATOM     20  N   UNL     1     -10.523  -1.205   5.614  0.00  0.00    -0.063 NA
ATOM     21  O   UNL     1     -11.294  -2.135   5.576  0.00  0.00    -0.358 OA
ATOM     22  N   UNL     1      -8.629  -0.356   4.375  0.00  0.00    -0.266 N 
ATOM     23  C   UNL     1      -7.806  -0.554   3.326  0.00  0.00    +0.238 C 
ATOM     24  O   UNL     1      -7.958  -1.522   2.611  0.00  0.00    -0.273 OA
ATOM     25  H   UNL     1      -8.506   0.418   4.947  0.00  0.00    +0.156 HD
ENDBRANCH  14  23
ENDBRANCH   1  14
TORSDOF 5
