REMARK  Name = ZINC04755972
REMARK  11 active torsions:
REMARK  status: ('A' for Active; 'I' for Inactive)
REMARK    1  A    between atoms: C_1  and  C_2
REMARK    2  A    between atoms: C_9  and  C_16
REMARK    3  A    between atoms: C_10  and  N_11
REMARK    4  A    between atoms: N_11  and  C_12
REMARK    5  A    between atoms: C_12  and  C_13
REMARK    6  A    between atoms: C_12  and  C_14
REMARK    7  A    between atoms: C_12  and  C_15
REMARK    8  A    between atoms: C_20  and  O_22
REMARK    9  A    between atoms: O_22  and  C_23
REMARK   10  A    between atoms: C_23  and  C_25
REMARK   11  A    between atoms: C_26  and  C_27
REMARK                            x       y       z     vdW  Elec       q    Type
REMARK                         _______ _______ _______ _____ _____    ______ ____
ROOT
ATOM      1  C   UNL     1       0.821   1.756  -3.517  0.00  0.00    +0.044 C 
ATOM      2  C   UNL     1       0.685   0.452  -2.775  0.00  0.00    -0.046 A 
ATOM      3  C   UNL     1       0.540  -0.753  -3.487  0.00  0.00    +0.021 A 
ATOM      4  C   UNL     1       0.418  -1.923  -2.829  0.00  0.00    +0.094 A 
ATOM      5  N   UNL     1       0.433  -1.957  -1.461  0.00  0.00    -0.289 N 
ATOM      6  C   UNL     1       0.573  -0.795  -0.737  0.00  0.00    +0.117 A 
ATOM      7  C   UNL     1       0.708   0.434  -1.416  0.00  0.00    +0.048 A 
ATOM      8  N   UNL     1       0.556  -1.097   0.551  0.00  0.00    -0.338 N 
ATOM      9  C   UNL     1       0.409  -2.426   0.694  0.00  0.00    +0.087 A 
ATOM     10  C   UNL     1       0.329  -2.985  -0.565  0.00  0.00    +0.129 A 
ATOM     11  H   UNL     1       0.638  -0.459   1.278  0.00  0.00    +0.167 HD
ENDROOT
BRANCH   9  12
ATOM     12  C   UNL     1       0.343  -3.162   1.978  0.00  0.00    +0.005 A 
ATOM     13  C   UNL     1       1.076  -4.336   2.151  0.00  0.00    +0.010 A 
ATOM     14  C   UNL     1       1.014  -5.019   3.348  0.00  0.00    +0.004 A 
ATOM     15  C   UNL     1       0.225  -4.543   4.379  0.00  0.00    +0.046 A 
ATOM     16  C   UNL     1      -0.508  -3.376   4.216  0.00  0.00    +0.133 A 
ATOM     17  C   UNL     1      -0.447  -2.680   3.020  0.00  0.00    +0.056 A 
BRANCH  16  18
ATOM     18  O   UNL     1      -1.283  -2.913   5.233  0.00  0.00    -0.423 OA
BRANCH  18  19
ATOM     19  C   UNL     1      -2.618  -3.088   5.143  0.00  0.00    +0.337 C 
ATOM     20  O   UNL     1      -3.086  -3.728   4.220  0.00  0.00    -0.245 OA
BRANCH  19  21
ATOM     21  C   UNL     1      -3.501  -2.508   6.153  0.00  0.00    +0.092 C 
ATOM     22  C   UNL     1      -4.836  -2.683   6.063  0.00  0.00    +0.015 C 
BRANCH  22  23
ATOM     23  C   UNL     1      -5.725  -2.100   7.080  0.00  0.00    -0.025 A 
ATOM     24  C   UNL     1      -5.191  -1.359   8.139  0.00  0.00    +0.008 A 
ATOM     25  C   UNL     1      -6.030  -0.815   9.088  0.00  0.00    +0.001 A 
ATOM     26  C   UNL     1      -7.398  -1.002   8.995  0.00  0.00    +0.000 A 
ATOM     27  C   UNL     1      -7.935  -1.735   7.951  0.00  0.00    +0.001 A 
ATOM     28  C   UNL     1      -7.109  -2.279   6.990  0.00  0.00    +0.008 A 
ENDBRANCH  22  23
ENDBRANCH  19  21
ENDBRANCH  18  19
ENDBRANCH  16  18
ENDBRANCH   9  12
BRANCH  10  29
ATOM     29  N   UNL     1       0.172  -4.338  -0.866  0.00  0.00    -0.324 N 
ATOM     30  H   UNL     1       0.171  -4.996  -0.153  0.00  0.00    +0.148 HD
BRANCH  29  31
ATOM     31  C   UNL     1       0.011  -4.765  -2.258  0.00  0.00    +0.025 C 
ATOM     32  C   UNL     1       1.286  -4.445  -3.041  0.00  0.00    +0.031 C 
ATOM     33  C   UNL     1      -0.250  -6.272  -2.302  0.00  0.00    +0.031 C 
ATOM     34  C   UNL     1      -1.172  -4.024  -2.884  0.00  0.00    +0.031 C 
ENDBRANCH  29  31
ENDBRANCH  10  29
TORSDOF 7
