REMARK  Name = ZINC20805332
REMARK  12 active torsions:
REMARK  status: ('A' for Active; 'I' for Inactive)
REMARK    1  A    between atoms: C_1  and  C_2
REMARK    2  A    between atoms: C_6  and  C_8
REMARK    3  A    between atoms: C_8  and  S_9
REMARK    4  A    between atoms: S_9  and  C_10
REMARK    5  A    between atoms: N_14  and  N_15
REMARK    6  A    between atoms: N_16  and  N_17
REMARK    7  A    between atoms: C_18  and  C_19
REMARK    8  A    between atoms: C_20  and  C_28
REMARK    9  A    between atoms: N_22  and  C_25
REMARK   10  A    between atoms: C_23  and  C_24
REMARK   11  A    between atoms: C_25  and  C_26
REMARK   12  A    between atoms: C_25  and  C_27
REMARK                            x       y       z     vdW  Elec       q    Type
REMARK                         _______ _______ _______ _____ _____    ______ ____
ROOT
ATOM      1  C   UNL     1      -0.117   7.713  -1.501  0.00  0.00    +0.210 A 
ATOM      2  N   UNL     1      -0.115   8.373  -0.368  0.00  0.00    -0.119 NA
ATOM      3  N   UNL     1      -0.137   9.742  -0.665  0.00  0.00    -0.109 NA
ATOM      4  C   UNL     1      -0.151   9.874  -1.970  0.00  0.00    +0.254 A 
ATOM      5  N   UNL     1      -0.134   8.622  -2.520  0.00  0.00    -0.211 N 
ATOM      6  N   UNL     1      -0.175  11.072  -2.668  0.00  0.00    -0.204 N 
ATOM      7  H   UNL     1      -0.186  11.067  -3.768  0.00  0.00    +0.177 HD
ENDROOT
BRANCH   5   8
ATOM      8  N   UNL     1      -0.136   8.332  -3.855  0.00  0.00    -0.294 N 
ATOM      9  H   UNL     1      -0.150   9.146  -4.595  0.00  0.00    +0.163 HD
ATOM     10  H   UNL     1      -0.123   7.285  -4.191  0.00  0.00    +0.163 HD
ENDBRANCH   5   8
BRANCH   6  11
ATOM     11  N   UNL     1      -0.184  12.288  -1.973  0.00  0.00    -0.187 NA
ATOM     12  C   UNL     1      -0.206  13.409  -2.627  0.00  0.00    +0.141 C 
BRANCH  12  13
ATOM     13  C   UNL     1      -0.215  14.691  -1.895  0.00  0.00    +0.038 A 
ATOM     14  C   UNL     1      -0.203  14.853  -0.492  0.00  0.00    +0.069 A 
ATOM     15  N   UNL     1      -0.217  16.133  -0.232  0.00  0.00    -0.175 NA
ATOM     16  N   UNL     1      -0.240  16.840  -1.439  0.00  0.00    -0.265 N 
ATOM     17  C   UNL     1      -0.233  15.950  -2.453  0.00  0.00    +0.045 A 
ATOM     18  C   UNL     1      -0.245  16.274  -3.924  0.00  0.00    +0.066 C 
ATOM     19  C   UNL     1      -0.177  13.743   0.526  0.00  0.00    +0.068 C 
BRANCH  16  20
ATOM     20  C   UNL     1      -0.262  18.298  -1.578  0.00  0.00    +0.101 C 
ATOM     21  C   UNL     1      -1.512  18.857  -0.895  0.00  0.00    +0.032 C 
ATOM     22  C   UNL     1       0.987  18.892  -0.922  0.00  0.00    +0.032 C 
ENDBRANCH  16  20
ENDBRANCH  12  13
ENDBRANCH   6  11
BRANCH   1  23
ATOM     23  S   UNL     1      -0.095   5.960  -1.677  0.00  0.00    -0.080 S 
BRANCH  23  24
ATOM     24  C   UNL     1      -0.070   5.347   0.030  0.00  0.00    +0.112 C 
BRANCH  24  30
ATOM     25  C   UNL     1      -2.514   0.980   0.019  0.00  0.00    +0.044 C 
ATOM     26  C   UNL     1      -1.219   1.751   0.017  0.00  0.00    -0.050 A 
ATOM     27  C   UNL     1      -0.013   1.076   0.008  0.00  0.00    +0.003 A 
ATOM     28  C   UNL     1       1.175   1.783   0.000  0.00  0.00    +0.001 A 
ATOM     29  C   UNL     1       1.156   3.166   0.008  0.00  0.00    +0.004 A 
ATOM     30  C   UNL     1      -0.050   3.840   0.022  0.00  0.00    -0.037 A 
ATOM     31  C   UNL     1      -1.238   3.133   0.030  0.00  0.00    +0.007 A 
ENDBRANCH  24  30
ENDBRANCH  23  24
ENDBRANCH   1  23
TORSDOF 7
