REMARK  Name = ZINC00151000
REMARK  3 active torsions:
REMARK  status: ('A' for Active; 'I' for Inactive)
REMARK    1  A    between atoms: C_4  and  N_19
REMARK    2  A    between atoms: C_5  and  C_7
REMARK    3  A    between atoms: C_9  and  C_12
REMARK                            x       y       z     vdW  Elec       q    Type
REMARK                         _______ _______ _______ _____ _____    ______ ____
ROOT
ATOM      1  C   UNL     1       2.423   3.931   0.001  0.00  0.00    +0.261 A 
ATOM      2  N   UNL     1       3.643   3.425  -0.008  0.00  0.00    -0.187 NA
ATOM      3  C   UNL     1       4.475   4.488  -0.014  0.00  0.00    +0.202 A 
ATOM      4  N   UNL     1       3.732   5.565  -0.002  0.00  0.00    -0.056 NA
ATOM      5  O   UNL     1       2.557   5.267   0.007  0.00  0.00    -0.332 OA
ENDROOT
BRANCH   3   6
ATOM      6  C   UNL     1       5.958   4.443  -0.027  0.00  0.00    +0.023 A 
ATOM      7  C   UNL     1       6.620   3.217  -0.034  0.00  0.00    +0.013 A 
ATOM      8  C   UNL     1       8.000   3.181  -0.050  0.00  0.00    +0.021 A 
ATOM      9  C   UNL     1       8.726   4.360  -0.050  0.00  0.00    +0.041 A 
ATOM     10  C   UNL     1       8.072   5.580  -0.038  0.00  0.00    +0.021 A 
ATOM     11  C   UNL     1       6.693   5.627  -0.027  0.00  0.00    +0.013 A 
ATOM     12 CL   UNL     1      10.461   4.307  -0.064  0.00  0.00    -0.084 Cl
ENDBRANCH   3   6
BRANCH   1  17
ATOM     13  C   UNL     1      -0.013   1.076   0.008  0.00  0.00    +0.001 A 
ATOM     14  C   UNL     1      -1.224   1.749   0.017  0.00  0.00    +0.002 A 
ATOM     15  C   UNL     1      -1.256   3.129   0.031  0.00  0.00    +0.023 A 
ATOM     16  C   UNL     1      -0.071   3.852   0.023  0.00  0.00    +0.037 A 
ATOM     17  C   UNL     1       1.157   3.174   0.008  0.00  0.00    +0.060 A 
ATOM     18  C   UNL     1       1.174   1.778   0.000  0.00  0.00    +0.015 A 
BRANCH  16  19
ATOM     19  N   UNL     1      -0.101   5.243   0.032  0.00  0.00    -0.357 N 
ATOM     20  H   UNL     1       0.728   5.746   0.027  0.00  0.00    +0.142 HD
ATOM     21  H   UNL     1      -0.951   5.710   0.042  0.00  0.00    +0.142 HD
ENDBRANCH  16  19
ENDBRANCH   1  17
TORSDOF 3
