REMARK  Name = ZINC39542563
REMARK  4 active torsions:
REMARK  status: ('A' for Active; 'I' for Inactive)
REMARK    1  A    between atoms: C_4  and  C_7
REMARK    2  A    between atoms: C_7  and  N_8
REMARK    3  A    between atoms: N_8  and  O_26
REMARK    4  A    between atoms: C_9  and  C_11
REMARK                            x       y       z     vdW  Elec       q    Type
REMARK                         _______ _______ _______ _____ _____    ______ ____
ROOT
ATOM      1  C   UNL     1       4.010  -2.163   3.490  0.00  0.00    +0.151 C 
ATOM      2  C   UNL     1       3.874  -0.883   4.337  0.00  0.00    +0.076 C 
ATOM      3  C   UNL     1       2.867  -1.252   5.404  0.00  0.00    +0.032 C 
ATOM      4  C   UNL     1       2.490  -2.493   5.235  0.00  0.00    +0.085 C 
ATOM      5  N   UNL     1       1.536  -3.181   6.010  0.00  0.00    -0.303 N 
ATOM      6  C   UNL     1       0.723  -4.074   5.290  0.00  0.00    +0.037 A 
ATOM      7  C   UNL     1      -0.326  -4.720   5.928  0.00  0.00    +0.023 A 
ATOM      8  C   UNL     1      -1.119  -5.604   5.223  0.00  0.00    +0.002 A 
ATOM      9  C   UNL     1      -0.863  -5.841   3.885  0.00  0.00    +0.000 A 
ATOM     10  C   UNL     1       0.179  -5.195   3.248  0.00  0.00    +0.007 A 
ATOM     11  C   UNL     1       0.977  -4.302   3.945  0.00  0.00    -0.010 A 
ATOM     12  C   UNL     1       2.089  -3.594   3.217  0.00  0.00    +0.124 C 
ATOM     13  N   UNL     1       3.119  -3.130   4.153  0.00  0.00    -0.369 NA
ATOM     14 BR   UNL     1       2.251  -0.098   6.769  0.00  0.00    -0.052 Br
ATOM     15  H   UNL     1       1.446  -3.049   6.967  0.00  0.00    +0.153 HD
ATOM     16  H   UNL     1       3.657  -3.916   4.484  0.00  0.00    +0.129 HD
ENDROOT
BRANCH   1  18
ATOM     17  N   UNL     1       4.302  -2.348   1.041  0.00  0.00    -0.178 N 
ATOM     18  C   UNL     1       3.557  -1.911   2.075  0.00  0.00    +0.258 C 
ATOM     19  O   UNL     1       2.521  -1.315   1.868  0.00  0.00    -0.271 OA
BRANCH  17  20
ATOM     20  O   UNL     1       5.511  -3.043   1.284  0.00  0.00    -0.292 OA
ATOM     21  H   UNL     1       5.718  -3.157   2.221  0.00  0.00    +0.242 HD
ENDBRANCH  17  20
BRANCH  17  22
ATOM     22  C   UNL     1       3.861  -2.102  -0.335  0.00  0.00    +0.174 C 
BRANCH  22  26
ATOM     23  C   UNL     1       4.530   1.996  -1.337  0.00  0.00    +0.000 A 
ATOM     24  C   UNL     1       5.516   1.057  -1.573  0.00  0.00    +0.000 A 
ATOM     25  C   UNL     1       5.300  -0.269  -1.249  0.00  0.00    +0.005 A 
ATOM     26  C   UNL     1       4.098  -0.656  -0.687  0.00  0.00    -0.028 A 
ATOM     27  C   UNL     1       3.111   0.283  -0.450  0.00  0.00    +0.005 A 
ATOM     28  C   UNL     1       3.327   1.609  -0.775  0.00  0.00    +0.000 A 
ENDBRANCH  22  26
ENDBRANCH  17  22
ENDBRANCH   1  18
TORSDOF 4
