REMARK  Name = ZINC39674157
REMARK  8 active torsions:
REMARK  status: ('A' for Active; 'I' for Inactive)
REMARK    1  A    between atoms: C_1  and  C_2
REMARK    2  A    between atoms: C_6  and  C_8
REMARK    3  A    between atoms: C_12  and  C_21
REMARK    4  A    between atoms: N_23  and  C_24
REMARK    5  A    between atoms: C_24  and  C_26
REMARK    6  A    between atoms: C_24  and  C_27
REMARK    7  A    between atoms: C_28  and  C_34
REMARK    8  A    between atoms: C_31  and  C_33
REMARK                            x       y       z     vdW  Elec       q    Type
REMARK                         _______ _______ _______ _____ _____    ______ ____
ROOT
ATOM      1  C   UNL     1       0.386  -2.704   3.496  0.00  0.00    +0.247 C 
ATOM      2  O   UNL     1       0.430  -2.405   4.674  0.00  0.00    -0.270 OA
ATOM      3  N   UNL     1       0.277  -3.997   3.132  0.00  0.00    -0.296 N 
ATOM      4  C   UNL     1       0.326  -4.562   1.763  0.00  0.00    +0.121 C 
ATOM      5  C   UNL     1       1.129  -5.873   1.911  0.00  0.00    +0.100 C 
ATOM      6  C   UNL     1       0.963  -6.271   3.387  0.00  0.00    -0.004 C 
ATOM      7  C   UNL     1       0.087  -5.175   4.011  0.00  0.00    +0.115 C 
ATOM      8  C   UNL     1       0.271  -7.627   3.495  0.00  0.00    -0.010 C 
ATOM      9  C   UNL     1       0.170  -8.027   4.969  0.00  0.00    -0.082 C 
ATOM     10  N   UNL     1       1.514  -8.094   5.554  0.00  0.00    +0.379 N 
ATOM     11  C   UNL     1       2.137  -6.765   5.531  0.00  0.00    -0.082 C 
ATOM     12  C   UNL     1       2.322  -6.311   4.080  0.00  0.00    -0.010 C 
ATOM     13  H   UNL     1       1.449  -8.417   6.508  0.00  0.00    -0.086 HD
ATOM     14  H   UNL     1       2.079  -8.738   5.022  0.00  0.00    -0.086 HD
ENDROOT
BRANCH   1  20
ATOM     15  C   UNL     1      -0.507  -1.162  -1.165  0.00  0.00    +0.044 C 
ATOM     16  C   UNL     1       0.024  -0.902   0.221  0.00  0.00    -0.050 A 
ATOM     17  C   UNL     1       0.577   0.329   0.528  0.00  0.00    +0.003 A 
ATOM     18  C   UNL     1       1.067   0.577   1.798  0.00  0.00    +0.001 A 
ATOM     19  C   UNL     1       1.008  -0.404   2.767  0.00  0.00    +0.013 A 
ATOM     20  C   UNL     1       0.452  -1.648   2.463  0.00  0.00    +0.037 A 
ATOM     21  C   UNL     1      -0.046  -1.889   1.181  0.00  0.00    +0.016 A 
ENDBRANCH   1  20
BRANCH   5  22
ATOM     22  C   UNL     1       2.582  -5.638   1.589  0.00  0.00    +0.219 C 
ATOM     23  O   UNL     1       3.091  -4.564   1.833  0.00  0.00    -0.275 OA
ATOM     24  N   UNL     1       3.317  -6.620   1.032  0.00  0.00    -0.309 N 
ATOM     25  H   UNL     1       2.911  -7.479   0.837  0.00  0.00    +0.149 HD
BRANCH  24  26
ATOM     26  C   UNL     1       4.730  -6.391   0.719  0.00  0.00    +0.100 C 
ATOM     27  C   UNL     1       4.847  -5.724  -0.653  0.00  0.00    +0.033 C 
BRANCH  26  28
ATOM     28  C   UNL     1       5.461  -7.708   0.701  0.00  0.00    -0.001 C 
ATOM     29  C   UNL     1       6.548  -8.055   1.394  0.00  0.00    +0.063 C 
ATOM     30  N   UNL     1       6.912  -9.325   1.112  0.00  0.00    -0.159 NA
ATOM     31  N   UNL     1       6.187  -9.896   0.293  0.00  0.00    -0.180 NA
ATOM     32  C   UNL     1       5.128  -8.952  -0.103  0.00  0.00    +0.154 C 
ATOM     33  C   UNL     1       5.199  -8.662  -1.603  0.00  0.00    +0.039 C 
ATOM     34  C   UNL     1       7.271  -7.152   2.360  0.00  0.00    +0.067 C 
ENDBRANCH  26  28
ENDBRANCH  24  26
ENDBRANCH   5  22
TORSDOF 4
