REMARK  Name = ZINC29867722
REMARK  3 active torsions:
REMARK  status: ('A' for Active; 'I' for Inactive)
REMARK    1  A    between atoms: C_15  and  C_17
REMARK    2  A    between atoms: C_17  and  S_18
REMARK    3  A    between atoms: S_18  and  C_19
REMARK                            x       y       z     vdW  Elec       q    Type
REMARK                         _______ _______ _______ _____ _____    ______ ____
ROOT
ATOM      1  C   UNL     1      -0.017   1.373   0.010  0.00  0.00    +0.078 A 
ATOM      2  C   UNL     1       1.185   2.118   0.002  0.00  0.00    +0.084 A 
ATOM      3  C   UNL     1       2.385   1.372  -0.015  0.00  0.00    +0.044 A 
ATOM      4  C   UNL     1       2.403  -0.001  -0.025  0.00  0.00    +0.066 A 
ATOM      5  C   UNL     1       1.209  -0.703  -0.018  0.00  0.00    +0.163 A 
ATOM      6  C   UNL     1       0.002  -0.004   0.002  0.00  0.00    +0.164 A 
ATOM      7  O   UNL     1      -1.183  -0.680   0.018  0.00  0.00    -0.485 OA
ATOM      8  C   UNL     1      -1.146  -2.056  -0.371  0.00  0.00    +0.270 C 
ATOM      9  C   UNL     1       0.026  -2.732   0.353  0.00  0.00    +0.270 C 
ATOM     10  O   UNL     1       1.233  -2.063  -0.031  0.00  0.00    -0.485 OA
ATOM     11  S   UNL     1       3.623   2.646  -0.018  0.00  0.00    -0.052 S 
ATOM     12  C   UNL     1       2.508   4.043   0.001  0.00  0.00    +0.165 A 
ATOM     13  N   UNL     1       1.332   3.462   0.009  0.00  0.00    -0.224 NA
ATOM     14  N   UNL     1       2.810   5.396   0.007  0.00  0.00    -0.264 N 
ATOM     15  C   UNL     1       1.817   6.307   0.021  0.00  0.00    +0.229 C 
ATOM     16  O   UNL     1       0.660   5.944   0.030  0.00  0.00    -0.275 OA
ATOM     17  H   UNL     1       3.735   5.686   0.000  0.00  0.00    +0.157 HD
ENDROOT
BRANCH  15  18
ATOM     18  C   UNL     1       2.145   7.778   0.028  0.00  0.00    +0.172 C 
BRANCH  18  19
ATOM     19  S   UNL     1       0.607   8.740   0.048  0.00  0.00    -0.088 S 
BRANCH  19  20
ATOM     20  C   UNL     1       1.153  10.416   0.053  0.00  0.00    +0.160 A 
ATOM     21  N   UNL     1       2.382  10.895   0.039  0.00  0.00    -0.133 NA
ATOM     22  N   UNL     1       2.586  12.255   0.047  0.00  0.00    -0.125 NA
ATOM     23  C   UNL     1       1.553  13.074   0.068  0.00  0.00    +0.180 A 
ATOM     24  S   UNL     1       0.189  11.920   0.071  0.00  0.00    -0.025 S 
ATOM     25  N   UNL     1       1.530  14.464   0.079  0.00  0.00    -0.336 N 
ATOM     26  H   UNL     1       2.362  14.962   0.070  0.00  0.00    +0.144 HD
ATOM     27  H   UNL     1       0.682  14.935   0.095  0.00  0.00    +0.144 HD
ENDBRANCH  19  20
ENDBRANCH  18  19
ENDBRANCH  15  18
TORSDOF 3
