REMARK  Name = ZINC23293937
REMARK  12 active torsions:
REMARK  status: ('A' for Active; 'I' for Inactive)
REMARK    1  A    between atoms: C_1  and  C_2
REMARK    2  A    between atoms: C_2  and  N_3
REMARK    3  A    between atoms: N_3  and  C_4
REMARK    4  A    between atoms: N_3  and  C_6
REMARK    5  A    between atoms: C_4  and  C_5
REMARK    6  A    between atoms: C_9  and  C_12
REMARK    7  A    between atoms: C_15  and  S_18
REMARK    8  A    between atoms: N_16  and  C_17
REMARK    9  A    between atoms: S_18  and  C_19
REMARK   10  A    between atoms: C_19  and  C_21
REMARK   11  A    between atoms: C_19  and  C_22
REMARK   12  A    between atoms: N_24  and  C_25
REMARK                            x       y       z     vdW  Elec       q    Type
REMARK                         _______ _______ _______ _____ _____    ______ ____
ROOT
ATOM      1  C   UNL     1      -3.978  -1.730   4.898  0.00  0.00    +0.165 A 
ATOM      2  N   UNL     1      -3.399  -1.814   6.074  0.00  0.00    -0.128 NA
ATOM      3  N   UNL     1      -4.286  -1.768   7.003  0.00  0.00    -0.122 NA
ATOM      4  C   UNL     1      -5.484  -1.653   6.478  0.00  0.00    +0.192 A 
ATOM      5  N   UNL     1      -5.331  -1.619   5.121  0.00  0.00    -0.305 N 
ATOM      6  C   UNL     1      -6.386  -1.494   4.113  0.00  0.00    +0.153 C 
ENDROOT
BRANCH   1  10
ATOM      7  C   UNL     1      -2.035  -1.775   1.119  0.00  0.00    +0.030 A 
ATOM      8  C   UNL     1      -3.386  -2.091   1.208  0.00  0.00    +0.024 A 
ATOM      9  C   UNL     1      -4.019  -2.077   2.432  0.00  0.00    +0.013 A 
ATOM     10  C   UNL     1      -3.302  -1.746   3.584  0.00  0.00    +0.019 A 
ATOM     11  C   UNL     1      -1.945  -1.430   3.491  0.00  0.00    +0.013 A 
ATOM     12  C   UNL     1      -1.317  -1.451   2.264  0.00  0.00    +0.024 A 
BRANCH   7  13
ATOM     13  N   UNL     1      -1.397  -1.790  -0.122  0.00  0.00    -0.330 N 
BRANCH  13  15
ATOM     14  C   UNL     1      -2.085  -3.642  -1.564  0.00  0.00    +0.024 C 
ATOM     15  C   UNL     1      -2.153  -2.131  -1.330  0.00  0.00    +0.102 C 
ENDBRANCH  13  15
BRANCH  13  16
ATOM     16  C   UNL     1       0.028  -1.463  -0.217  0.00  0.00    +0.102 C 
ATOM     17  C   UNL     1       0.193   0.042  -0.437  0.00  0.00    +0.024 C 
ENDBRANCH  13  16
ENDBRANCH   7  13
ENDBRANCH   1  10
BRANCH   4  18
ATOM     18  S   UNL     1      -7.006  -1.552   7.360  0.00  0.00    -0.074 S 
BRANCH  18  19
ATOM     19  C   UNL     1      -6.511  -1.645   9.103  0.00  0.00    +0.137 C 
ATOM     20  C   UNL     1      -5.895  -3.018   9.385  0.00  0.00    +0.029 C 
BRANCH  19  21
ATOM     21  C   UNL     1      -7.720  -1.447   9.980  0.00  0.00    +0.226 C 
ATOM     22  O   UNL     1      -8.826  -1.709   9.557  0.00  0.00    -0.275 OA
ATOM     23  N   UNL     1      -7.572  -0.979  11.235  0.00  0.00    -0.312 N 
ATOM     24  H   UNL     1      -6.687  -0.769  11.574  0.00  0.00    +0.149 HD
BRANCH  23  25
ATOM     25  C   UNL     1      -8.747  -0.785  12.088  0.00  0.00    +0.073 C 
ATOM     26  C   UNL     1      -9.363   0.587  11.806  0.00  0.00    +0.022 C 
ATOM     27  C   UNL     1     -10.590   0.788  12.697  0.00  0.00    +0.002 C 
ATOM     28  C   UNL     1     -10.172   0.710  14.166  0.00  0.00    +0.000 C 
ATOM     29  C   UNL     1      -9.556  -0.662  14.449  0.00  0.00    +0.002 C 
ATOM     30  C   UNL     1      -8.329  -0.864  13.558  0.00  0.00    +0.022 C 
ENDBRANCH  23  25
ENDBRANCH  19  21
ENDBRANCH  18  19
ENDBRANCH   4  18
TORSDOF 8
