REMARK  Name = ZINC44783332
REMARK  5 active torsions:
REMARK  status: ('A' for Active; 'I' for Inactive)
REMARK    1  A    between atoms: C_3  and  C_6
REMARK    2  A    between atoms: C_6  and  N_7
REMARK    3  A    between atoms: C_8  and  C_10
REMARK    4  A    between atoms: C_10  and  C_16
REMARK    5  A    between atoms: N_17  and  O_18
REMARK                            x       y       z     vdW  Elec       q    Type
REMARK                         _______ _______ _______ _____ _____    ______ ____
ROOT
ATOM      1  C   UNL     1       5.954   0.673   2.990  0.00  0.00    +0.105 C 
ATOM      2  C   UNL     1       5.465  -0.565   3.745  0.00  0.00    +0.024 C 
ATOM      3  C   UNL     1       6.027  -1.823   3.079  0.00  0.00    +0.001 C 
ATOM      4  C   UNL     1       7.556  -1.777   3.111  0.00  0.00    +0.000 C 
ATOM      5  C   UNL     1       8.045  -0.539   2.356  0.00  0.00    +0.001 C 
ATOM      6  C   UNL     1       7.483   0.719   3.022  0.00  0.00    +0.024 C 
ENDROOT
BRANCH   1   7
ATOM      7  C   UNL     1       5.401   1.912   3.646  0.00  0.00    +0.147 C 
ATOM      8  N   UNL     1       5.578   3.067   3.096  0.00  0.00    -0.076 NA
ATOM      9  N   UNL     1       4.706   1.812   4.830  0.00  0.00    -0.343 N 
ATOM     10  H   UNL     1       4.640   0.957   5.283  0.00  0.00    +0.144 HD
ATOM     11  H   UNL     1       4.282   2.597   5.212  0.00  0.00    +0.144 HD
BRANCH   8  12
ATOM     12  O   UNL     1       6.370   3.182   1.928  0.00  0.00    -0.408 OA
ATOM     13  H   UNL     1       6.445   4.085   1.590  0.00  0.00    +0.328 HD
ENDBRANCH   8  12
ENDBRANCH   1   7
BRANCH   1  15
ATOM     14  N   UNL     1       4.177   0.410   1.289  0.00  0.00    -0.307 N 
ATOM     15  C   UNL     1       5.483   0.608   1.560  0.00  0.00    +0.227 C 
ATOM     16  O   UNL     1       6.278   0.733   0.653  0.00  0.00    -0.275 OA
ATOM     17  H   UNL     1       3.553   0.236   2.011  0.00  0.00    +0.149 HD
BRANCH  14  18
ATOM     18  C   UNL     1       3.701   0.460  -0.095  0.00  0.00    +0.178 C 
BRANCH  18  21
ATOM     19  C   UNL     1       0.016   0.476  -0.108  0.00  0.00    +0.041 A 
ATOM     20  C   UNL     1       1.257   1.149  -0.039  0.00  0.00    +0.046 A 
ATOM     21  C   UNL     1       2.215   0.209  -0.125  0.00  0.00    +0.122 A 
ATOM     22  O   UNL     1       1.624  -0.991  -0.242  0.00  0.00    -0.466 OA
ATOM     23  C   UNL     1       0.290  -0.835  -0.232  0.00  0.00    +0.195 A 
ENDBRANCH  18  21
ENDBRANCH  14  18
ENDBRANCH   1  15
TORSDOF 5
