REMARK  Name = ZINC38990027
REMARK  10 active torsions:
REMARK  status: ('A' for Active; 'I' for Inactive)
REMARK    1  A    between atoms: C_1  and  C_2
REMARK    2  A    between atoms: C_2  and  C_3
REMARK    3  A    between atoms: C_2  and  C_4
REMARK    4  A    between atoms: C_9  and  N_10
REMARK    5  A    between atoms: C_11  and  C_13
REMARK    6  A    between atoms: C_13  and  S_14
REMARK    7  A    between atoms: S_14  and  C_15
REMARK    8  A    between atoms: C_19  and  C_23
REMARK    9  A    between atoms: N_21  and  N_22
REMARK   10  A    between atoms: C_26  and  C_29
REMARK                            x       y       z     vdW  Elec       q    Type
REMARK                         _______ _______ _______ _____ _____    ______ ____
ROOT
ATOM      1  C   UNL     1      -0.123  -3.514  -6.955  0.00  0.00    +0.214 C 
ATOM      2  N   UNL     1       0.944  -4.361  -6.374  0.00  0.00    -0.228 NA
ATOM      3  N   UNL     1       2.186  -3.853  -6.977  0.00  0.00    -0.234 NA
ATOM      4  C   UNL     1       1.957  -2.385  -7.030  0.00  0.00    +0.185 C 
ATOM      5  N   UNL     1       0.522  -2.252  -7.374  0.00  0.00    -0.197 NA
ATOM      6  H   UNL     1       0.968  -4.273  -5.369  0.00  0.00    +0.143 HD
ATOM      7  H   UNL     1       2.985  -4.074  -6.401  0.00  0.00    +0.143 HD
ENDROOT
BRANCH   4   8
ATOM      8  C   UNL     1       2.831  -1.746  -8.111  0.00  0.00    +0.187 C 
ATOM      9  C   UNL     1       4.301  -2.015  -7.843  0.00  0.00    +0.034 C 
ATOM     10  C   UNL     1       4.829  -0.787  -7.676  0.00  0.00    +0.091 C 
ATOM     11  N   UNL     1       3.868   0.164  -7.810  0.00  0.00    -0.154 NA
ATOM     12  N   UNL     1       2.739  -0.277  -8.053  0.00  0.00    -0.176 NA
BRANCH  10  13
ATOM     13  C   UNL     1       6.257  -0.513  -7.385  0.00  0.00    +0.002 A 
ATOM     14  C   UNL     1       7.163  -1.567  -7.272  0.00  0.00    +0.013 A 
ATOM     15  C   UNL     1       8.491  -1.307  -7.003  0.00  0.00    +0.039 A 
ATOM     16  C   UNL     1       8.925  -0.001  -6.844  0.00  0.00    +0.123 A 
ATOM     17  C   UNL     1       8.028   1.050  -6.955  0.00  0.00    +0.039 A 
ATOM     18  C   UNL     1       6.699   0.800  -7.230  0.00  0.00    +0.013 A 
ATOM     19  F   UNL     1      10.226   0.249  -6.579  0.00  0.00    -0.205 F 
ENDBRANCH  10  13
ENDBRANCH   4   8
BRANCH   5  20
ATOM     20  N   UNL     1       0.345  -2.025  -8.799  0.00  0.00    -0.264 NA
ATOM     21  H   UNL     1      -0.633  -1.970  -9.038  0.00  0.00    +0.137 HD
ATOM     22  H   UNL     1       0.838  -1.196  -9.097  0.00  0.00    +0.137 HD
ENDBRANCH   5  20
BRANCH   1  23
ATOM     23  S   UNL     1      -1.398  -3.178  -5.709  0.00  0.00    -0.115 S 
BRANCH  23  24
ATOM     24  C   UNL     1      -0.490  -2.380  -4.357  0.00  0.00    +0.168 C 
BRANCH  24  26
ATOM     25  N   UNL     1      -0.991  -1.440  -2.124  0.00  0.00    -0.285 N 
ATOM     26  C   UNL     1      -1.445  -2.043  -3.241  0.00  0.00    +0.227 C 
ATOM     27  O   UNL     1      -2.622  -2.315  -3.347  0.00  0.00    -0.275 OA
ATOM     28  H   UNL     1      -0.061  -1.171  -2.062  0.00  0.00    +0.155 HD
BRANCH  25  34
ATOM     29  C   UNL     1      -1.363  -1.099   0.238  0.00  0.00    -0.024 A 
ATOM     30  C   UNL     1      -2.223  -0.858   1.291  0.00  0.00    +0.006 A 
ATOM     31  C   UNL     1      -3.580  -0.726   1.060  0.00  0.00    +0.000 A 
ATOM     32  C   UNL     1      -4.080  -0.833  -0.225  0.00  0.00    +0.002 A 
ATOM     33  C   UNL     1      -3.225  -1.073  -1.282  0.00  0.00    +0.023 A 
ATOM     34  C   UNL     1      -1.861  -1.202  -1.054  0.00  0.00    +0.037 A 
BRANCH  29  36
ATOM     35  C   UNL     1       0.677   0.082   1.009  0.00  0.00    +0.012 C 
ATOM     36  C   UNL     1       0.116  -1.243   0.490  0.00  0.00    +0.015 C 
ATOM     37  C   UNL     1       0.351  -2.339   1.531  0.00  0.00    +0.012 C 
ENDBRANCH  29  36
ENDBRANCH  25  34
ENDBRANCH  24  26
ENDBRANCH  23  24
ENDBRANCH   1  23
TORSDOF 8
