REMARK  Name = ZINC39682227
REMARK  7 active torsions:
REMARK  status: ('A' for Active; 'I' for Inactive)
REMARK    1  A    between atoms: C_1  and  C_2
REMARK    2  A    between atoms: C_5  and  C_8
REMARK    3  A    between atoms: C_12  and  C_21
REMARK    4  A    between atoms: N_23  and  C_24
REMARK    5  A    between atoms: C_24  and  C_26
REMARK    6  A    between atoms: C_24  and  C_30
REMARK    7  A    between atoms: C_26  and  C_27
REMARK                            x       y       z     vdW  Elec       q    Type
REMARK                         _______ _______ _______ _____ _____    ______ ____
ROOT
ATOM      1  C   UNL     1      -0.117  -3.696   0.143  0.00  0.00    +0.247 C 
ATOM      2  O   UNL     1       0.061  -4.188  -0.954  0.00  0.00    -0.270 OA
ATOM      3  N   UNL     1       0.157  -4.410   1.253  0.00  0.00    -0.296 N 
ATOM      4  C   UNL     1      -0.114  -4.038   2.662  0.00  0.00    +0.121 C 
ATOM      5  C   UNL     1      -0.575  -5.352   3.331  0.00  0.00    +0.100 C 
ATOM      6  C   UNL     1       0.028  -6.468   2.461  0.00  0.00    -0.004 C 
ATOM      7  C   UNL     1       0.792  -5.747   1.341  0.00  0.00    +0.115 C 
ATOM      8  C   UNL     1       0.983  -7.324   3.287  0.00  0.00    -0.010 C 
ATOM      9  C   UNL     1       1.524  -8.461   2.416  0.00  0.00    -0.082 C 
ATOM     10  N   UNL     1       0.408  -9.276   1.921  0.00  0.00    +0.379 N 
ATOM     11  C   UNL     1      -0.455  -8.467   1.052  0.00  0.00    -0.082 C 
ATOM     12  C   UNL     1      -1.081  -7.330   1.866  0.00  0.00    -0.010 C 
ATOM     13  H   UNL     1       0.771 -10.059   1.399  0.00  0.00    -0.086 HD
ATOM     14  H   UNL     1      -0.130  -9.617   2.704  0.00  0.00    -0.086 HD
ENDROOT
BRANCH   1  19
ATOM     15  C   UNL     1      -2.133   1.674   0.599  0.00  0.00    +0.044 C 
ATOM     16  C   UNL     1      -1.605   0.268   0.479  0.00  0.00    -0.050 A 
ATOM     17  C   UNL     1      -1.786  -0.438  -0.697  0.00  0.00    +0.004 A 
ATOM     18  C   UNL     1      -1.305  -1.726  -0.812  0.00  0.00    +0.013 A 
ATOM     19  C   UNL     1      -0.635  -2.317   0.260  0.00  0.00    +0.037 A 
ATOM     20  C   UNL     1      -0.455  -1.599   1.444  0.00  0.00    +0.013 A 
ATOM     21  C   UNL     1      -0.936  -0.309   1.544  0.00  0.00    +0.004 A 
ENDBRANCH   1  19
BRANCH   5  22
ATOM     22  C   UNL     1      -0.045  -5.437   4.739  0.00  0.00    +0.219 C 
ATOM     23  O   UNL     1       1.039  -4.965   5.009  0.00  0.00    -0.275 OA
ATOM     24  N   UNL     1      -0.776  -6.038   5.699  0.00  0.00    -0.308 N 
ATOM     25  H   UNL     1      -1.672  -6.353   5.501  0.00  0.00    +0.149 HD
BRANCH  24  26
ATOM     26  C   UNL     1      -0.218  -6.217   7.041  0.00  0.00    +0.114 C 
BRANCH  26  27
ATOM     27  C   UNL     1      -0.316  -4.920   7.803  0.00  0.00    -0.027 A 
ATOM     28  C   UNL     1      -1.449  -4.137   7.690  0.00  0.00    +0.005 A 
ATOM     29  C   UNL     1      -1.538  -2.947   8.389  0.00  0.00    +0.000 A 
ATOM     30  C   UNL     1      -0.495  -2.542   9.200  0.00  0.00    +0.000 A 
ATOM     31  C   UNL     1       0.637  -3.326   9.314  0.00  0.00    +0.000 A 
ATOM     32  C   UNL     1       0.725  -4.518   8.618  0.00  0.00    +0.005 A 
ENDBRANCH  26  27
BRANCH  26  33
ATOM     33  C   UNL     1      -1.003  -7.303   7.780  0.00  0.00    +0.152 C 
BRANCH  33  34
ATOM     34  C   UNL     1      -0.795  -8.628   7.093  0.00  0.00    +0.358 C 
ATOM     35  O   UNL     1      -0.002  -8.720   6.172  0.00  0.00    -0.246 OA
ATOM     36  O   UNL     1      -1.420  -9.609   7.459  0.00  0.00    -0.246 OA
ENDBRANCH  33  34
ENDBRANCH  26  33
ENDBRANCH  24  26
ENDBRANCH   5  22
TORSDOF 6
