REMARK  Name = ZINC10159654
REMARK  10 active torsions:
REMARK  status: ('A' for Active; 'I' for Inactive)
REMARK    1  A    between atoms: C_1  and  C_2
REMARK    2  A    between atoms: C_2  and  O_3
REMARK    3  A    between atoms: O_3  and  C_4
REMARK    4  A    between atoms: C_9  and  C_10
REMARK    5  A    between atoms: N_12  and  C_13
REMARK    6  A    between atoms: C_13  and  C_14
REMARK    7  A    between atoms: N_16  and  N_17
REMARK    8  A    between atoms: C_18  and  C_20
REMARK    9  A    between atoms: C_21  and  O_31
REMARK   10  A    between atoms: N_23  and  C_25
REMARK                            x       y       z     vdW  Elec       q    Type
REMARK                         _______ _______ _______ _____ _____    ______ ____
ROOT
ATOM      1  C   UNL     1       2.406   0.752  -0.017  0.00  0.00    +0.246 C 
ATOM      2  O   UNL     1       2.201  -0.443  -0.021  0.00  0.00    -0.273 OA
ATOM      3  N   UNL     1       3.671   1.218  -0.026  0.00  0.00    -0.233 N 
ATOM      4  H   UNL     1       3.835   2.174  -0.023  0.00  0.00    +0.173 HD
ENDROOT
BRANCH   3   5
ATOM      5  N   UNL     1       4.748   0.323  -0.042  0.00  0.00    -0.229 N 
ATOM      6  C   UNL     1       6.012   0.789  -0.051  0.00  0.00    +0.284 C 
ATOM      7  O   UNL     1       6.218   1.988  -0.047  0.00  0.00    -0.267 OA
ATOM      8  H   UNL     1       4.583  -0.633  -0.045  0.00  0.00    +0.173 HD
BRANCH   6   9
ATOM      9  C   UNL     1       7.146  -0.154  -0.067  0.00  0.00    +0.190 A 
ATOM     10  C   UNL     1       8.523   0.185  -0.084  0.00  0.00    +0.167 A 
ATOM     11  C   UNL     1       9.187  -1.000  -0.091  0.00  0.00    +0.160 A 
ATOM     12  N   UNL     1       8.247  -1.984  -0.088  0.00  0.00    -0.236 N 
ATOM     13  N   UNL     1       7.070  -1.472  -0.074  0.00  0.00    -0.158 NA
BRANCH  12  14
ATOM     14  C   UNL     1       8.524  -3.357  -0.098  0.00  0.00    +0.065 A 
ATOM     15  C   UNL     1       9.840  -3.802  -0.119  0.00  0.00    +0.028 A 
ATOM     16  C   UNL     1      10.110  -5.156  -0.123  0.00  0.00    +0.002 A 
ATOM     17  C   UNL     1       9.072  -6.070  -0.119  0.00  0.00    +0.000 A 
ATOM     18  C   UNL     1       7.761  -5.630  -0.104  0.00  0.00    +0.002 A 
ATOM     19  C   UNL     1       7.484  -4.277  -0.093  0.00  0.00    +0.028 A 
ENDBRANCH  12  14
BRANCH  10  20
ATOM     20  O   UNL     1       9.065   1.433  -0.089  0.00  0.00    -0.503 OA
ATOM     21  H   UNL     1       9.232   1.792   0.793  0.00  0.00    +0.292 HD
ENDBRANCH  10  20
ENDBRANCH   6   9
ENDBRANCH   3   5
BRANCH   1  22
ATOM     22  C   UNL     1       1.248   1.716  -0.001  0.00  0.00    +0.202 C 
BRANCH  22  25
ATOM     23  C   UNL     1      -1.187   1.624   0.017  0.00  0.00    +0.248 C 
ATOM     24  O   UNL     1      -1.204   2.840   0.023  0.00  0.00    -0.270 OA
ATOM     25  N   UNL     1      -0.011   0.966   0.007  0.00  0.00    -0.303 N 
ATOM     26  H   UNL     1       0.002  -0.004   0.002  0.00  0.00    +0.150 HD
BRANCH  23  32
ATOM     27  C   UNL     1      -3.680   1.549   0.028  0.00  0.00    +0.133 A 
ATOM     28  C   UNL     1      -4.866   0.829   0.029  0.00  0.00    +0.046 A 
ATOM     29  C   UNL     1      -4.837  -0.551   0.021  0.00  0.00    +0.004 A 
ATOM     30  C   UNL     1      -3.628  -1.227   0.011  0.00  0.00    +0.001 A 
ATOM     31  C   UNL     1      -2.441  -0.528   0.005  0.00  0.00    +0.017 A 
ATOM     32  C   UNL     1      -2.455   0.869   0.018  0.00  0.00    +0.078 A 
BRANCH  27  33
ATOM     33  O   UNL     1      -3.707   2.905   0.035  0.00  0.00    -0.491 OA
BRANCH  33  35
ATOM     34  C   UNL     1      -4.822   5.049   0.052  0.00  0.00    +0.048 C 
ATOM     35  C   UNL     1      -4.992   3.529   0.045  0.00  0.00    +0.226 C 
ENDBRANCH  33  35
ENDBRANCH  27  33
ENDBRANCH  23  32
ENDBRANCH  22  25
ENDBRANCH   1  22
TORSDOF 9
