REMARK  Name = ZINC61719504
REMARK  3 active torsions:
REMARK  status: ('A' for Active; 'I' for Inactive)
REMARK    1  A    between atoms: C_1  and  N_2
REMARK    2  A    between atoms: C_6  and  C_13
REMARK    3  A    between atoms: N_9  and  C_12
REMARK                            x       y       z     vdW  Elec       q    Type
REMARK                         _______ _______ _______ _____ _____    ______ ____
ROOT
ATOM      1  C   UNL     1      -3.874  -4.102  -0.001  0.00  0.00    -0.021 C 
ATOM      2  C   UNL     1      -4.516  -4.244  -1.384  0.00  0.00    +0.064 C 
ATOM      3  C   UNL     1      -6.029  -4.080  -1.171  0.00  0.00    +0.000 C 
ATOM      4  C   UNL     1      -6.198  -4.410   0.336  0.00  0.00    -0.080 C 
ATOM      5  N   UNL     1      -4.975  -3.834   0.954  0.00  0.00    +0.385 N 
ATOM      6  C   UNL     1      -3.985  -3.221  -2.349  0.00  0.00    -0.013 A 
ATOM      7  C   UNL     1      -3.966  -1.845  -2.357  0.00  0.00    +0.006 A 
ATOM      8  C   UNL     1      -3.388  -1.166  -3.415  0.00  0.00    +0.000 A 
ATOM      9  C   UNL     1      -2.832  -1.873  -4.465  0.00  0.00    +0.002 A 
ATOM     10  C   UNL     1      -2.849  -3.253  -4.462  0.00  0.00    +0.023 A 
ATOM     11  C   UNL     1      -3.428  -3.944  -3.400  0.00  0.00    +0.038 A 
ATOM     12  N   UNL     1      -3.567  -5.315  -3.171  0.00  0.00    -0.285 N 
ATOM     13  C   UNL     1      -4.195  -5.574  -2.009  0.00  0.00    +0.226 C 
ATOM     14  O   UNL     1      -4.452  -6.669  -1.553  0.00  0.00    -0.275 OA
ATOM     15  H   UNL     1      -4.786  -4.283   1.837  0.00  0.00    -0.085 HD
ATOM     16  H   UNL     1      -3.249  -6.000  -3.780  0.00  0.00    +0.155 HD
ATOM     17  H   UNL     1      -5.087  -2.840   1.085  0.00  0.00    -0.085 HD
ENDROOT
BRANCH   1  23
ATOM     18  C   UNL     1      -0.002   1.447   0.168  0.00  0.00    +0.154 C 
ATOM     19  N   UNL     1      -0.005   0.002  -0.070  0.00  0.00    -0.295 N 
ATOM     20  C   UNL     1      -1.116  -0.835   0.006  0.00  0.00    +0.070 A 
ATOM     21  C   UNL     1      -2.453  -0.616   0.299  0.00  0.00    +0.028 A 
ATOM     22  C   UNL     1      -3.340  -1.675   0.294  0.00  0.00    +0.004 A 
ATOM     23  C   UNL     1      -2.899  -2.954  -0.000  0.00  0.00    -0.058 A 
ATOM     24  C   UNL     1      -1.569  -3.181  -0.292  0.00  0.00    +0.030 A 
ATOM     25  C   UNL     1      -0.671  -2.124  -0.292  0.00  0.00    +0.070 A 
ATOM     26  N   UNL     1       0.697  -2.031  -0.539  0.00  0.00    -0.295 N 
ATOM     27  C   UNL     1       1.065  -0.744  -0.404  0.00  0.00    +0.330 A 
ATOM     28  O   UNL     1       2.195  -0.319  -0.557  0.00  0.00    -0.246 OA
ATOM     29  C   UNL     1       1.582  -3.144  -0.892  0.00  0.00    +0.154 C 
ENDBRANCH   1  23
TORSDOF 1
