REMARK  Name = ZINC42188887
REMARK  5 active torsions:
REMARK  status: ('A' for Active; 'I' for Inactive)
REMARK    1  A    between atoms: C_4  and  O_7
REMARK    2  A    between atoms: O_7  and  C_8
REMARK    3  A    between atoms: C_12  and  N_14
REMARK    4  A    between atoms: N_14  and  C_15
REMARK    5  A    between atoms: C_20  and  O_22
REMARK                            x       y       z     vdW  Elec       q    Type
REMARK                         _______ _______ _______ _____ _____    ______ ____
ROOT
ATOM      1  C   UNL     1       3.657  -1.988  -0.010  0.00  0.00    +0.130 A 
ATOM      2  C   UNL     1       2.494  -2.746  -0.046  0.00  0.00    +0.046 A 
ATOM      3  C   UNL     1       2.566  -4.126  -0.020  0.00  0.00    +0.005 A 
ATOM      4  C   UNL     1       3.794  -4.756   0.042  0.00  0.00    +0.023 A 
ATOM      5  C   UNL     1       4.961  -4.003   0.078  0.00  0.00    +0.031 A 
ATOM      6  C   UNL     1       4.891  -2.616   0.046  0.00  0.00    +0.069 A 
ENDROOT
BRANCH   5   7
ATOM      7  N   UNL     1       6.202  -4.639   0.140  0.00  0.00    -0.336 N 
ATOM      8  H   UNL     1       7.017  -4.113   0.165  0.00  0.00    +0.147 HD
BRANCH   7   9
ATOM      9  C   UNL     1       6.275  -6.102   0.168  0.00  0.00    +0.127 C 
ATOM     10  C   UNL     1       6.319  -6.670  -1.268  0.00  0.00    +0.184 C 
ATOM     11  O   UNL     1       7.724  -6.842  -1.553  0.00  0.00    -0.375 OA
ATOM     12  C   UNL     1       8.300  -7.359  -0.334  0.00  0.00    +0.193 C 
ATOM     13  C   UNL     1       7.606  -6.566   0.800  0.00  0.00    +0.162 C 
BRANCH  13  14
ATOM     14  O   UNL     1       8.399  -5.440   1.182  0.00  0.00    -0.388 OA
ATOM     15  H   UNL     1       9.246  -5.674   1.585  0.00  0.00    +0.210 HD
ENDBRANCH  13  14
ENDBRANCH   7   9
ENDBRANCH   5   7
BRANCH   1  16
ATOM     16  O   UNL     1       3.586  -0.632  -0.036  0.00  0.00    -0.456 OA
BRANCH  16  20
ATOM     17  C   UNL     1       3.333   1.363   3.566  0.00  0.00    +0.000 A 
ATOM     18  C   UNL     1       3.415  -0.017   3.546  0.00  0.00    +0.004 A 
ATOM     19  C   UNL     1       3.500  -0.687   2.341  0.00  0.00    +0.046 A 
ATOM     20  C   UNL     1       3.502   0.025   1.150  0.00  0.00    +0.128 A 
ATOM     21  C   UNL     1       3.420   1.410   1.174  0.00  0.00    +0.046 A 
ATOM     22  C   UNL     1       3.335   2.076   2.381  0.00  0.00    +0.004 A 
ENDBRANCH  16  20
ENDBRANCH   1  16
TORSDOF 5
