REMARK  Name = ZINC06851520
REMARK  6 active torsions:
REMARK  status: ('A' for Active; 'I' for Inactive)
REMARK    1  A    between atoms: C_1  and  C_2
REMARK    2  A    between atoms: C_7  and  N_12
REMARK    3  A    between atoms: C_9  and  C_11
REMARK    4  A    between atoms: C_15  and  C_19
REMARK    5  A    between atoms: C_15  and  N_23
REMARK    6  A    between atoms: C_24  and  C_26
REMARK                            x       y       z     vdW  Elec       q    Type
REMARK                         _______ _______ _______ _____ _____    ______ ____
ROOT
ATOM      1  N   UNL     1       1.525  -2.426   2.312  0.00  0.00    -0.219 N 
ATOM      2  C   UNL     1       2.591  -3.248   2.260  0.00  0.00    +0.274 C 
ATOM      3  O   UNL     1       3.077  -3.755   1.272  0.00  0.00    -0.271 OA
ATOM      4  C   UNL     1       3.056  -3.408   3.694  0.00  0.00    +0.278 C 
ATOM      5  N   UNL     1       2.109  -2.579   4.460  0.00  0.00    -0.263 N 
ATOM      6  C   UNL     1       1.257  -2.043   3.566  0.00  0.00    +0.311 C 
ATOM      7  O   UNL     1       0.345  -1.298   3.866  0.00  0.00    -0.252 OA
ATOM      8  H   UNL     1       2.103  -2.444   5.420  0.00  0.00    +0.153 HD
ENDROOT
BRANCH   1  14
ATOM      9  C   UNL     1      -1.604  -3.932  -1.207  0.00  0.00    +0.008 C 
ATOM     10  C   UNL     1      -0.824  -2.741  -0.645  0.00  0.00    -0.009 C 
ATOM     11  C   UNL     1       0.132  -2.208  -1.714  0.00  0.00    +0.003 C 
ATOM     12  C   UNL     1       0.912  -1.018  -1.153  0.00  0.00    +0.002 C 
ATOM     13  C   UNL     1       1.714  -1.465   0.071  0.00  0.00    +0.023 C 
ATOM     14  C   UNL     1       0.757  -1.998   1.140  0.00  0.00    +0.089 C 
ATOM     15  C   UNL     1      -0.023  -3.188   0.579  0.00  0.00    +0.010 C 
ATOM     16  C   UNL     1       0.955  -4.293   0.173  0.00  0.00    +0.009 C 
ENDBRANCH   1  14
BRANCH   4  17
ATOM     17  C   UNL     1       2.964  -4.872   4.130  0.00  0.00    +0.436 C 
ATOM     18  F   UNL     1       3.772  -5.657   3.301  0.00  0.00    -0.166 F 
ATOM     19  F   UNL     1       3.398  -4.993   5.454  0.00  0.00    -0.166 F 
ATOM     20  F   UNL     1       1.637  -5.305   4.032  0.00  0.00    -0.166 F 
ENDBRANCH   4  17
BRANCH   4  21
ATOM     21  N   UNL     1       4.423  -2.907   3.851  0.00  0.00    -0.273 N 
ATOM     22  C   UNL     1       5.428  -3.454   3.138  0.00  0.00    +0.281 C 
ATOM     23  O   UNL     1       5.198  -4.364   2.363  0.00  0.00    -0.267 OA
ATOM     24  H   UNL     1       4.606  -2.182   4.469  0.00  0.00    +0.152 HD
BRANCH  22  25
ATOM     25  C   UNL     1       6.797  -2.953   3.295  0.00  0.00    +0.189 A 
ATOM     26  C   UNL     1       7.900  -3.410   2.633  0.00  0.00    +0.054 A 
ATOM     27  C   UNL     1       8.988  -2.649   3.089  0.00  0.00    +0.042 A 
ATOM     28  C   UNL     1       8.508  -1.772   3.997  0.00  0.00    +0.196 A 
ATOM     29  O   UNL     1       7.186  -1.954   4.115  0.00  0.00    -0.458 OA
ENDBRANCH  22  25
ENDBRANCH   4  21
TORSDOF 4
