REMARK  Name = ZINC22958751
REMARK  5 active torsions:
REMARK  status: ('A' for Active; 'I' for Inactive)
REMARK    1  A    between atoms: C_1  and  C_2
REMARK    2  A    between atoms: C_5  and  C_8
REMARK    3  A    between atoms: C_10  and  C_13
REMARK    4  A    between atoms: C_13  and  N_14
REMARK    5  A    between atoms: C_22  and  C_24
REMARK                            x       y       z     vdW  Elec       q    Type
REMARK                         _______ _______ _______ _____ _____    ______ ____
ROOT
ATOM      1  N   UNL     1       6.547   0.710   1.325  0.00  0.00    -0.217 N 
ATOM      2  C   UNL     1       6.877  -0.391   2.032  0.00  0.00    +0.247 C 
ATOM      3  O   UNL     1       6.819  -1.544   1.663  0.00  0.00    -0.273 OA
ATOM      4  C   UNL     1       7.335   0.117   3.380  0.00  0.00    +0.115 C 
ATOM      5  C   UNL     1       6.436  -0.426   4.485  0.00  0.00    +0.035 C 
ATOM      6  C   UNL     1       6.898   0.121   5.838  0.00  0.00    +0.003 C 
ATOM      7  C   UNL     1       8.349  -0.296   6.087  0.00  0.00    +0.000 C 
ATOM      8  C   UNL     1       9.242   0.277   4.984  0.00  0.00    +0.006 C 
ATOM      9  C   UNL     1       8.789  -0.270   3.627  0.00  0.00    +0.018 C 
ATOM     10  C   UNL     1       9.668   0.319   2.522  0.00  0.00    +0.010 C 
ATOM     11  N   UNL     1       7.200   1.576   3.276  0.00  0.00    -0.285 N 
ATOM     12  C   UNL     1       6.738   1.828   2.037  0.00  0.00    +0.310 C 
ATOM     13  O   UNL     1       6.516   2.945   1.613  0.00  0.00    -0.252 OA
ATOM     14  H   UNL     1       7.465   2.215   4.131  0.00  0.00    +0.151 HD
ENDROOT
BRANCH   1  15
ATOM     15  C   UNL     1       6.046   0.686  -0.051  0.00  0.00    +0.197 C 
BRANCH  15  18
ATOM     16  C   UNL     1       2.478   1.075  -0.016  0.00  0.00    +0.259 A 
ATOM     17  N   UNL     1       3.682   1.619  -0.024  0.00  0.00    -0.190 NA
ATOM     18  C   UNL     1       4.543   0.589  -0.038  0.00  0.00    +0.190 A 
ATOM     19  N   UNL     1       3.844  -0.507  -0.036  0.00  0.00    -0.059 NA
ATOM     20  O   UNL     1       2.658  -0.255  -0.019  0.00  0.00    -0.333 OA
BRANCH  16  25
ATOM     21  C   UNL     1      -2.554   3.865   0.045  0.00  0.00    +0.044 C 
ATOM     22  C   UNL     1      -1.236   3.134   0.030  0.00  0.00    -0.050 A 
ATOM     23  C   UNL     1      -1.216   1.751   0.017  0.00  0.00    +0.004 A 
ATOM     24  C   UNL     1      -0.013   1.076   0.008  0.00  0.00    +0.013 A 
ATOM     25  C   UNL     1       1.186   1.792   0.000  0.00  0.00    +0.039 A 
ATOM     26  C   UNL     1       1.158   3.187   0.008  0.00  0.00    +0.013 A 
ATOM     27  C   UNL     1      -0.052   3.850   0.022  0.00  0.00    +0.004 A 
ENDBRANCH  16  25
ENDBRANCH  15  18
ENDBRANCH   1  15
TORSDOF 3
