REMARK  Name = ZINC58901900
REMARK  8 active torsions:
REMARK  status: ('A' for Active; 'I' for Inactive)
REMARK    1  A    between atoms: C_1  and  O_2
REMARK    2  A    between atoms: O_2  and  C_3
REMARK    3  A    between atoms: C_5  and  C_14
REMARK    4  A    between atoms: C_6  and  N_11
REMARK    5  A    between atoms: C_8  and  O_9
REMARK    6  A    between atoms: O_9  and  C_10
REMARK    7  A    between atoms: C_26  and  S_28
REMARK    8  A    between atoms: S_28  and  N_31
REMARK                            x       y       z     vdW  Elec       q    Type
REMARK                         _______ _______ _______ _____ _____    ______ ____
ROOT
ATOM      1  C   UNL     1      -4.841   0.236  -0.201  0.00  0.00    +0.251 C 
ATOM      2  O   UNL     1      -5.918  -0.327  -0.251  0.00  0.00    -0.270 OA
ATOM      3  N   UNL     1      -4.785   1.583  -0.183  0.00  0.00    -0.288 N 
ATOM      4  C   UNL     1      -3.471   2.221  -0.169  0.00  0.00    +0.001 C 
ATOM      5  N   UNL     1      -3.446   3.229   0.911  0.00  0.00    +0.482 NA
ATOM      6  S   UNL     1      -4.596   4.433   0.809  0.00  0.00    -0.056 S 
ATOM      7  O   UNL     1      -4.192   5.305  -0.237  0.00  0.00    -0.191 OA
ATOM      8  O   UNL     1      -4.843   4.883   2.134  0.00  0.00    -0.191 OA
ATOM      9  C   UNL     1      -6.061   3.610   0.260  0.00  0.00    +0.089 A 
ATOM     10  C   UNL     1      -5.984   2.295  -0.183  0.00  0.00    +0.059 A 
ATOM     11  C   UNL     1      -7.140   1.661  -0.634  0.00  0.00    +0.047 A 
ATOM     12  C   UNL     1      -8.345   2.334  -0.635  0.00  0.00    +0.069 A 
ATOM     13  C   UNL     1      -8.414   3.642  -0.188  0.00  0.00    +0.125 A 
ATOM     14  C   UNL     1      -7.267   4.278   0.267  0.00  0.00    +0.056 A 
ATOM     15 CL   UNL     1      -9.781   1.536  -1.199  0.00  0.00    -0.081 Cl
ENDROOT
BRANCH   1  18
ATOM     16  C   UNL     1      -1.484  -1.164  -1.135  0.00  0.00    +0.162 A 
ATOM     17  C   UNL     1      -2.648  -0.421  -1.178  0.00  0.00    +0.064 A 
ATOM     18  C   UNL     1      -3.596  -0.555  -0.160  0.00  0.00    +0.071 A 
ATOM     19  C   UNL     1      -3.363  -1.439   0.897  0.00  0.00    +0.142 A 
ATOM     20  C   UNL     1      -2.199  -2.176   0.934  0.00  0.00    +0.082 A 
ATOM     21  C   UNL     1      -1.260  -2.048  -0.080  0.00  0.00    +0.164 A 
BRANCH  19  22
ATOM     22  N   UNL     1      -4.365  -1.583   1.976  0.00  0.00    +0.057 N 
ATOM     23  O   UNL     1      -4.138  -2.305   2.919  0.00  0.00    -0.126 OA
ATOM     24  O   UNL     1      -5.410  -0.978   1.915  0.00  0.00    -0.126 OA
ENDBRANCH  19  22
BRANCH  16  26
ATOM     25  C   UNL     1      -0.854  -0.113  -3.173  0.00  0.00    +0.277 C 
ATOM     26  O   UNL     1      -0.559  -1.037  -2.124  0.00  0.00    -0.491 OA
ENDBRANCH  16  26
BRANCH  21  27
ATOM     27  O   UNL     1      -0.117  -2.781  -0.042  0.00  0.00    -0.491 OA
ATOM     28  C   UNL     1       0.048  -3.667   1.067  0.00  0.00    +0.277 C 
ENDBRANCH  21  27
ENDBRANCH   1  18
BRANCH  13  29
ATOM     29  S   UNL     1      -9.956   4.494  -0.184  0.00  0.00    +0.057 S 
ATOM     30  O   UNL     1     -10.897   3.628   0.436  0.00  0.00    -0.153 OA
ATOM     31  O   UNL     1      -9.695   5.805   0.298  0.00  0.00    -0.153 OA
BRANCH  29  32
ATOM     32  N   UNL     1     -10.431   4.656  -1.762  0.00  0.00    -0.203 NA
ATOM     33  H   UNL     1      -9.874   4.304  -2.474  0.00  0.00    +0.144 HD
ATOM     34  H   UNL     1     -11.265   5.103  -1.974  0.00  0.00    +0.144 HD
ENDBRANCH  29  32
ENDBRANCH  13  29
TORSDOF 6
