REMARK  Name = ZINC58386520
REMARK  6 active torsions:
REMARK  status: ('A' for Active; 'I' for Inactive)
REMARK    1  A    between atoms: C_1  and  O_2
REMARK    2  A    between atoms: O_2  and  C_3
REMARK    3  A    between atoms: C_3  and  C_4
REMARK    4  A    between atoms: C_12  and  C_13
REMARK    5  A    between atoms: N_15  and  C_16
REMARK    6  A    between atoms: C_21  and  N_22
REMARK                            x       y       z     vdW  Elec       q    Type
REMARK                         _______ _______ _______ _____ _____    ______ ____
ROOT
ATOM      1  C   UNL     1       3.109  -2.599   0.193  0.00  0.00    +0.284 C 
ATOM      2  O   UNL     1       3.675  -1.595   0.584  0.00  0.00    -0.266 OA
ATOM      3  N   UNL     1       3.608  -3.292  -0.850  0.00  0.00    -0.277 N 
ATOM      4  H   UNL     1       3.205  -4.134  -1.111  0.00  0.00    +0.155 HD
ENDROOT
BRANCH   1  13
ATOM      5  C   UNL     1       1.288  -2.442   1.914  0.00  0.00    +0.036 A 
ATOM      6  C   UNL     1       0.103  -3.237   2.233  0.00  0.00    +0.026 A 
ATOM      7  C   UNL     1      -0.908  -3.136   3.191  0.00  0.00    +0.012 A 
ATOM      8  C   UNL     1      -1.903  -4.071   3.227  0.00  0.00    +0.001 A 
ATOM      9  C   UNL     1      -1.915  -5.121   2.318  0.00  0.00    +0.004 A 
ATOM     10  C   UNL     1      -0.925  -5.239   1.366  0.00  0.00    +0.047 A 
ATOM     11  C   UNL     1       0.097  -4.299   1.310  0.00  0.00    +0.136 A 
ATOM     12  O   UNL     1       1.174  -4.153   0.514  0.00  0.00    -0.450 OA
ATOM     13  C   UNL     1       1.881  -3.057   0.858  0.00  0.00    +0.196 A 
BRANCH   5  14
ATOM     14  C   UNL     1       1.753  -1.189   2.611  0.00  0.00    +0.199 C 
BRANCH  14  16
ATOM     15  C   UNL     1       1.543   1.198   2.572  0.00  0.00    +0.194 C 
ATOM     16  O   UNL     1       1.165  -0.048   1.984  0.00  0.00    -0.378 OA
ENDBRANCH  14  16
ENDBRANCH   5  14
ENDBRANCH   1  13
BRANCH   3  17
ATOM     17  C   UNL     1       4.710  -2.794  -1.557  0.00  0.00    +0.055 A 
ATOM     18  C   UNL     1       4.975  -1.433  -1.564  0.00  0.00    +0.025 A 
ATOM     19  C   UNL     1       6.062  -0.944  -2.263  0.00  0.00    +0.002 A 
ATOM     20  C   UNL     1       6.889  -1.809  -2.956  0.00  0.00    +0.002 A 
ATOM     21  C   UNL     1       6.632  -3.167  -2.955  0.00  0.00    +0.025 A 
ATOM     22  C   UNL     1       5.547  -3.667  -2.251  0.00  0.00    +0.056 A 
BRANCH  22  23
ATOM     23  N   UNL     1       5.288  -5.044  -2.243  0.00  0.00    -0.268 N 
ATOM     24  C   UNL     1       5.728  -5.818  -3.255  0.00  0.00    +0.306 C 
ATOM     25  O   UNL     1       6.259  -5.309  -4.223  0.00  0.00    -0.252 OA
ATOM     26  N   UNL     1       5.578  -7.156  -3.195  0.00  0.00    -0.285 N 
ATOM     27  C   UNL     1       4.951  -7.899  -2.092  0.00  0.00    +0.109 C 
ATOM     28  C   UNL     1       5.029  -9.399  -2.447  0.00  0.00    +0.020 C 
ATOM     29  C   UNL     1       6.199  -9.455  -3.464  0.00  0.00    +0.020 C 
ATOM     30  C   UNL     1       6.011  -8.117  -4.226  0.00  0.00    +0.109 C 
ATOM     31  H   UNL     1       4.793  -5.441  -1.510  0.00  0.00    +0.156 HD
ENDBRANCH  22  23
ENDBRANCH   3  17
TORSDOF 5
