REMARK  Name = ZINC04202485
REMARK  6 active torsions:
REMARK  status: ('A' for Active; 'I' for Inactive)
REMARK    1  A    between atoms: C_1  and  C_2
REMARK    2  A    between atoms: C_2  and  C_3
REMARK    3  A    between atoms: C_2  and  C_4
REMARK    4  A    between atoms: C_2  and  O_5
REMARK    5  A    between atoms: O_5  and  C_6
REMARK    6  A    between atoms: N_8  and  C_9
REMARK                            x       y       z     vdW  Elec       q    Type
REMARK                         _______ _______ _______ _____ _____    ______ ____
ROOT
ATOM      1  C   UNL     1      -1.087  -2.090  -0.092  0.00  0.00    +0.037 A 
ATOM      2  C   UNL     1       0.148  -2.725  -0.105  0.00  0.00    +0.025 A 
ATOM      3  C   UNL     1       0.212  -4.100  -0.201  0.00  0.00    +0.025 A 
ATOM      4  C   UNL     1      -0.956  -4.848  -0.295  0.00  0.00    +0.030 A 
ATOM      5  C   UNL     1      -2.190  -4.217  -0.285  0.00  0.00    -0.025 A 
ATOM      6  C   UNL     1      -2.252  -2.837  -0.184  0.00  0.00    +0.028 A 
ATOM      7  C   UNL     1      -3.475  -4.998  -0.375  0.00  0.00    +0.038 C 
ATOM      8  C   UNL     1      -3.220  -6.381  -0.973  0.00  0.00    +0.023 C 
ATOM      9  C   UNL     1      -2.075  -7.052  -0.202  0.00  0.00    +0.102 C 
ATOM     10  N   UNL     1      -0.865  -6.243  -0.403  0.00  0.00    -0.344 N 
ATOM     11  H   UNL     1      -0.017  -6.668  -0.606  0.00  0.00    +0.146 HD
ENDROOT
BRANCH   1  14
ATOM     12  C   UNL     1      -0.234  -0.024   0.729  0.00  0.00    +0.405 C 
ATOM     13  O   UNL     1       0.599  -0.635   1.368  0.00  0.00    -0.226 OA
ATOM     14  N   UNL     1      -1.156  -0.694   0.009  0.00  0.00    -0.251 N 
ATOM     15  H   UNL     1      -1.867  -0.210  -0.439  0.00  0.00    +0.158 HD
BRANCH  12  16
ATOM     16  O   UNL     1      -0.236   1.323   0.739  0.00  0.00    -0.444 OA
BRANCH  16  18
ATOM     17  C   UNL     1       2.170   1.573   1.023  0.00  0.00    +0.055 C 
ATOM     18  C   UNL     1       0.786   1.978   1.536  0.00  0.00    +0.107 C 
ATOM     19  C   UNL     1       0.625   3.495   1.424  0.00  0.00    +0.055 C 
ATOM     20  C   UNL     1       0.640   1.555   2.999  0.00  0.00    +0.055 C 
ENDBRANCH  16  18
ENDBRANCH  12  16
ENDBRANCH   1  14
TORSDOF 3
