REMARK  Name = ZINC20275428
REMARK  6 active torsions:
REMARK  status: ('A' for Active; 'I' for Inactive)
REMARK    1  A    between atoms: C_1  and  C_2
REMARK    2  A    between atoms: C_7  and  C_8
REMARK    3  A    between atoms: C_8  and  N_9
REMARK    4  A    between atoms: C_13  and  N_22
REMARK    5  A    between atoms: C_17  and  C_20
REMARK    6  A    between atoms: C_17  and  C_21
REMARK                            x       y       z     vdW  Elec       q    Type
REMARK                         _______ _______ _______ _____ _____    ______ ____
ROOT
ATOM      1  N   UNL     1      -0.014   0.025  -0.000  0.00  0.00    -0.261 N 
ATOM      2  C   UNL     1      -0.046   1.430  -0.009  0.00  0.00    +0.079 A 
ATOM      3  C   UNL     1      -1.253   2.109  -0.016  0.00  0.00    +0.029 A 
ATOM      4  C   UNL     1      -1.266   3.491  -0.020  0.00  0.00    +0.025 A 
ATOM      5  C   UNL     1      -0.071   4.199  -0.028  0.00  0.00    +0.028 A 
ATOM      6  C   UNL     1       1.141   3.521  -0.027  0.00  0.00    +0.070 A 
ATOM      7  C   UNL     1       1.155   2.138  -0.018  0.00  0.00    +0.145 A 
ATOM      8  O   UNL     1       2.332   1.457  -0.016  0.00  0.00    -0.475 OA
ATOM      9  C   UNL     1       2.354   0.212   0.686  0.00  0.00    +0.181 C 
ATOM     10  C   UNL     1       1.140  -0.601   0.315  0.00  0.00    +0.263 C 
ATOM     11  O   UNL     1       1.200  -1.812   0.300  0.00  0.00    -0.271 OA
ATOM     12  C   UNL     1       2.349   0.477   2.193  0.00  0.00    +0.065 C 
ATOM     13  C   UNL     1       3.620  -0.562   0.309  0.00  0.00    +0.065 C 
ENDROOT
BRANCH   5  14
ATOM     14  N   UNL     1      -0.088   5.598  -0.037  0.00  0.00    -0.358 N 
ATOM     15  H   UNL     1       0.857   6.160  -0.044  0.00  0.00    +0.142 HD
ATOM     16  H   UNL     1      -1.048   6.136  -0.038  0.00  0.00    +0.142 HD
ENDBRANCH   5  14
BRANCH   1  17
ATOM     17  C   UNL     1      -1.215  -0.748  -0.327  0.00  0.00    +0.149 C 
BRANCH  17  24
ATOM     18  C   UNL     1      -3.541  -2.010  -1.487  0.00  0.00    +0.044 C 
ATOM     19  C   UNL     1      -2.437  -1.501  -2.378  0.00  0.00    -0.046 A 
ATOM     20  C   UNL     1      -2.539  -1.634  -3.750  0.00  0.00    +0.003 A 
ATOM     21  C   UNL     1      -1.524  -1.172  -4.567  0.00  0.00    +0.000 A 
ATOM     22  C   UNL     1      -0.409  -0.573  -4.011  0.00  0.00    +0.000 A 
ATOM     23  C   UNL     1      -0.309  -0.436  -2.640  0.00  0.00    +0.005 A 
ATOM     24  C   UNL     1      -1.324  -0.897  -1.823  0.00  0.00    -0.027 A 
ENDBRANCH  17  24
ENDBRANCH   1  17
TORSDOF 3
