REMARK  Name = ZINC20821381
REMARK  7 active torsions:
REMARK  status: ('A' for Active; 'I' for Inactive)
REMARK    1  A    between atoms: C_1  and  C_2
REMARK    2  A    between atoms: C_3  and  C_10
REMARK    3  A    between atoms: N_5  and  C_7
REMARK    4  A    between atoms: C_7  and  C_8
REMARK    5  A    between atoms: N_16  and  C_19
REMARK    6  A    between atoms: C_19  and  C_21
REMARK    7  A    between atoms: C_19  and  C_22
REMARK                            x       y       z     vdW  Elec       q    Type
REMARK                         _______ _______ _______ _____ _____    ______ ____
ROOT
ATOM      1  C   UNL     1      -0.006  -0.369  -2.551  0.00  0.00    +0.144 A 
ATOM      2  N   UNL     1      -0.005  -1.185  -3.647  0.00  0.00    -0.335 N 
ATOM      3  H   UNL     1       0.004  -2.155  -3.646  0.00  0.00    +0.167 HD
ATOM      4  C   UNL     1      -0.021  -0.362  -4.763  0.00  0.00    +0.105 A 
ATOM      5  C   UNL     1      -0.031  -0.297  -6.162  0.00  0.00    +0.162 A 
ATOM      6  N   UNL     1      -0.045   0.958  -6.523  0.00  0.00    -0.175 NA
ATOM      7  N   UNL     1      -0.046   1.766  -5.379  0.00  0.00    -0.238 N 
ATOM      8  C   UNL     1      -0.031   0.943  -4.284  0.00  0.00    +0.177 A 
ATOM      9  N   UNL     1      -0.026   0.884  -2.942  0.00  0.00    -0.208 NA
ENDROOT
BRANCH   1  12
ATOM     10  C   UNL     1      -0.018   1.503   0.010  0.00  0.00    +0.068 C 
ATOM     11  C   UNL     1       0.002  -0.004   0.002  0.00  0.00    +0.071 A 
ATOM     12  C   UNL     1       0.008  -0.826  -1.145  0.00  0.00    +0.058 A 
ATOM     13  C   UNL     1       0.029  -2.133  -0.711  0.00  0.00    +0.120 A 
ATOM     14  N   UNL     1       0.035  -2.111   0.635  0.00  0.00    -0.267 N 
ATOM     15  N   UNL     1       0.023  -0.776   1.055  0.00  0.00    -0.175 NA
BRANCH  14  16
ATOM     16  C   UNL     1       0.056  -3.285   1.512  0.00  0.00    +0.170 C 
BRANCH  16  17
ATOM     17  C   UNL     1       1.223  -3.183   2.460  0.00  0.00    -0.012 C 
ATOM     18  C   UNL     1       1.025  -3.260   3.752  0.00  0.00    +0.006 C 
ENDBRANCH  16  17
ENDBRANCH  14  16
ENDBRANCH   1  12
BRANCH   7  19
ATOM     19  C   UNL     1      -0.061   3.230  -5.357  0.00  0.00    +0.136 C 
ATOM     20  C   UNL     1      -1.321   3.738  -6.061  0.00  0.00    +0.038 C 
BRANCH  19  21
ATOM     21  C   UNL     1       1.159   3.756  -6.069  0.00  0.00    -0.023 A 
ATOM     22  C   UNL     1       1.369   3.448  -7.400  0.00  0.00    +0.006 A 
ATOM     23  C   UNL     1       2.488   3.930  -8.053  0.00  0.00    +0.000 A 
ATOM     24  C   UNL     1       3.397   4.720  -7.374  0.00  0.00    +0.000 A 
ATOM     25  C   UNL     1       3.187   5.028  -6.043  0.00  0.00    +0.000 A 
ATOM     26  C   UNL     1       2.066   4.550  -5.391  0.00  0.00    +0.006 A 
ENDBRANCH  19  21
ENDBRANCH   7  19
TORSDOF 5
