REMARK  Name = ZINC63767037
REMARK  5 active torsions:
REMARK  status: ('A' for Active; 'I' for Inactive)
REMARK    1  A    between atoms: C_5  and  S_8
REMARK    2  A    between atoms: S_8  and  C_9
REMARK    3  A    between atoms: C_9  and  C_10
REMARK    4  A    between atoms: N_12  and  C_13
REMARK    5  A    between atoms: C_15  and  C_26
REMARK                            x       y       z     vdW  Elec       q    Type
REMARK                         _______ _______ _______ _____ _____    ______ ____
ROOT
ATOM      1  C   UNL     1       5.440  -5.785  -0.082  0.00  0.00    +0.143 C 
ATOM      2  C   UNL     1       5.245  -6.968   0.887  0.00  0.00    +0.109 C 
ATOM      3  C   UNL     1       5.652  -8.300   0.307  0.00  0.00    +0.016 C 
ATOM      4  C   UNL     1       6.348  -9.220   1.258  0.00  0.00    +0.005 C 
ATOM      5  C   UNL     1       7.845  -9.345   1.050  0.00  0.00    +0.000 C 
ATOM      6  C   UNL     1       8.175  -9.543  -0.427  0.00  0.00    +0.001 C 
ATOM      7  C   UNL     1       7.662  -8.336  -1.213  0.00  0.00    +0.014 C 
ATOM      8  C   UNL     1       6.155  -8.283  -1.126  0.00  0.00    +0.052 C 
ATOM      9  S   UNL     1       5.608  -6.614  -1.715  0.00  0.00    -0.134 S 
ENDROOT
BRANCH   2  10
ATOM     10  C   UNL     1       3.790  -7.039   1.273  0.00  0.00    +0.216 C 
ATOM     11  O   UNL     1       3.138  -8.025   1.003  0.00  0.00    -0.276 OA
ATOM     12  N   UNL     1       3.213  -6.007   1.920  0.00  0.00    -0.329 N 
ATOM     13  H   UNL     1       3.735  -5.218   2.136  0.00  0.00    +0.145 HD
ATOM     14  H   UNL     1       2.277  -6.053   2.168  0.00  0.00    +0.145 HD
ENDBRANCH   2  10
BRANCH   1  17
ATOM     15  C   UNL     1       4.437  -3.565  -0.060  0.00  0.00    +0.224 C 
ATOM     16  O   UNL     1       5.554  -3.092  -0.069  0.00  0.00    -0.275 OA
ATOM     17  N   UNL     1       4.271  -4.902  -0.066  0.00  0.00    -0.302 N 
ATOM     18  H   UNL     1       3.378  -5.280  -0.059  0.00  0.00    +0.150 HD
BRANCH  15  19
ATOM     19  C   UNL     1       3.235  -2.656  -0.043  0.00  0.00    +0.173 C 
BRANCH  19  20
ATOM     20  S   UNL     1       3.783  -0.927  -0.040  0.00  0.00    -0.075 S 
BRANCH  20  25
ATOM     21  C   UNL     1      -0.016   1.315   0.009  0.00  0.00    +0.207 A 
ATOM     22  C   UNL     1       1.193   2.013   0.002  0.00  0.00    +0.292 A 
ATOM     23  O   UNL     1       1.209   3.368   0.009  0.00  0.00    -0.264 OA
ATOM     24  N   UNL     1       2.328   1.323  -0.013  0.00  0.00    -0.180 NA
ATOM     25  C   UNL     1       2.282  -0.004  -0.020  0.00  0.00    +0.213 A 
ATOM     26  N   UNL     1       1.119  -0.643  -0.012  0.00  0.00    -0.122 NA
ATOM     27  N   UNL     1       0.002  -0.004   0.002  0.00  0.00    -0.150 NA
ENDBRANCH  20  25
ENDBRANCH  19  20
ENDBRANCH  15  19
ENDBRANCH   1  17
TORSDOF 5
