REMARK  Name = ZINC43095889
REMARK  5 active torsions:
REMARK  status: ('A' for Active; 'I' for Inactive)
REMARK    1  A    between atoms: C_5  and  C_7
REMARK    2  A    between atoms: C_7  and  C_9
REMARK    3  A    between atoms: C_7  and  S_11
REMARK    4  A    between atoms: C_9  and  N_10
REMARK    5  A    between atoms: S_11  and  C_12
REMARK                            x       y       z     vdW  Elec       q    Type
REMARK                         _______ _______ _______ _____ _____    ______ ____
ROOT
ATOM      1  C   UNL     1       1.213  -2.188  -0.048  0.00  0.00    +0.068 C 
ENDROOT
BRANCH   1   6
ATOM      2  C   UNL     1      -0.317   1.263  -0.118  0.00  0.00    +0.000 A 
ATOM      3  C   UNL     1       0.809   2.064  -0.158  0.00  0.00    +0.001 A 
ATOM      4  C   UNL     1       2.066   1.490  -0.163  0.00  0.00    +0.015 A 
ATOM      5  C   UNL     1       2.197   0.113  -0.127  0.00  0.00    +0.022 A 
ATOM      6  C   UNL     1       1.071  -0.688  -0.087  0.00  0.00    -0.022 A 
ATOM      7  C   UNL     1      -0.186  -0.113  -0.082  0.00  0.00    +0.006 A 
ATOM      8 BR   UNL     1       3.917  -0.673  -0.134  0.00  0.00    -0.050 Br
ENDBRANCH   1   6
BRANCH   1   9
ATOM      9  C   UNL     1       1.363  -2.723  -1.474  0.00  0.00    -0.067 C 
BRANCH   9  10
ATOM     10  N   UNL     1       0.131  -2.456  -2.228  0.00  0.00    +0.379 N 
ATOM     11  H   UNL     1      -0.657  -2.851  -1.736  0.00  0.00    -0.090 HD
ATOM     12  H   UNL     1       0.003  -1.460  -2.323  0.00  0.00    -0.090 HD
ATOM     13  H   UNL     1       0.200  -2.875  -3.143  0.00  0.00    -0.090 HD
ENDBRANCH   9  10
ENDBRANCH   1   9
BRANCH   1  14
ATOM     14  S   UNL     1      -0.260  -2.916   0.720  0.00  0.00    -0.080 S 
BRANCH  14  15
ATOM     15  C   UNL     1       0.156  -4.617   0.912  0.00  0.00    +0.192 A 
ATOM     16  N   UNL     1       1.255  -5.207   0.497  0.00  0.00    -0.122 NA
ATOM     17  N   UNL     1       1.229  -6.454   0.814  0.00  0.00    -0.134 NA
ATOM     18  C   UNL     1       0.127  -6.728   1.446  0.00  0.00    +0.134 A 
ATOM     19  N   UNL     1      -0.596  -5.571   1.525  0.00  0.00    -0.306 N 
ATOM     20  C   UNL     1      -1.917  -5.410   2.132  0.00  0.00    +0.125 C 
ATOM     21  C   UNL     1      -2.094  -6.449   3.244  0.00  0.00    +0.022 C 
ATOM     22  C   UNL     1      -2.685  -7.731   2.663  0.00  0.00    +0.002 C 
ATOM     23  C   UNL     1      -1.748  -8.332   1.620  0.00  0.00    +0.008 C 
ATOM     24  C   UNL     1      -0.297  -8.060   2.009  0.00  0.00    +0.076 C 
ENDBRANCH  14  15
ENDBRANCH   1  14
TORSDOF 5
