REMARK  Name = ZINC01054732
REMARK  3 active torsions:
REMARK  status: ('A' for Active; 'I' for Inactive)
REMARK    1  A    between atoms: C_8  and  C_12
REMARK    2  A    between atoms: N_14  and  C_15
REMARK    3  A    between atoms: C_15  and  C_16
REMARK                            x       y       z     vdW  Elec       q    Type
REMARK                         _______ _______ _______ _____ _____    ______ ____
ROOT
ATOM      1  C   UNL     1      -1.255  -0.771   0.010  0.00  0.00    +0.251 C 
ATOM      2  O   UNL     1      -2.323  -0.188   0.024  0.00  0.00    -0.270 OA
ATOM      3  N   UNL     1      -1.223  -2.118   0.003  0.00  0.00    -0.307 N 
ATOM      4  H   UNL     1      -0.372  -2.583  -0.008  0.00  0.00    +0.149 HD
ENDROOT
BRANCH   1  12
ATOM      5  C   UNL     1       4.802   0.251  -0.042  0.00  0.00    +0.001 A 
ATOM      6  C   UNL     1       4.726   1.637  -0.033  0.00  0.00    +0.004 A 
ATOM      7  C   UNL     1       3.504   2.274  -0.019  0.00  0.00    +0.047 A 
ATOM      8  C   UNL     1       2.331   1.527  -0.012  0.00  0.00    +0.139 A 
ATOM      9  C   UNL     1       2.409   0.123  -0.020  0.00  0.00    +0.018 A 
ATOM     10  C   UNL     1       3.665  -0.504  -0.035  0.00  0.00    +0.011 A 
ATOM     11  C   UNL     1       1.224  -0.654  -0.013  0.00  0.00    +0.031 A 
ATOM     12  C   UNL     1       0.002  -0.004   0.002  0.00  0.00    +0.122 A 
ATOM     13  C   UNL     1      -0.018   1.463   0.010  0.00  0.00    +0.350 A 
ATOM     14  O   UNL     1      -1.081   2.056   0.018  0.00  0.00    -0.244 OA
ATOM     15  O   UNL     1       1.135   2.154   0.003  0.00  0.00    -0.422 OA
ENDBRANCH   1  12
BRANCH   3  16
ATOM     16  C   UNL     1      -2.474  -2.881   0.011  0.00  0.00    +0.142 C 
BRANCH  16  17
ATOM     17  C   UNL     1      -2.163  -4.356   0.000  0.00  0.00    +0.005 A 
ATOM     18  C   UNL     1      -2.241  -5.070  -1.181  0.00  0.00    +0.008 A 
ATOM     19  C   UNL     1      -1.950  -6.421  -1.192  0.00  0.00    +0.000 A 
ATOM     20  C   UNL     1      -1.593  -7.062  -0.021  0.00  0.00    +0.003 A 
ATOM     21  C   UNL     1      -1.519  -6.351   1.162  0.00  0.00    +0.038 A 
ATOM     22  C   UNL     1      -1.805  -4.996   1.174  0.00  0.00    +0.128 A 
ATOM     23  F   UNL     1      -1.734  -4.301   2.330  0.00  0.00    -0.205 F 
ENDBRANCH  16  17
ENDBRANCH   3  16
TORSDOF 3
