REMARK  Name = ZINC21037906
REMARK  7 active torsions:
REMARK  status: ('A' for Active; 'I' for Inactive)
REMARK    1  A    between atoms: C_1  and  N_2
REMARK    2  A    between atoms: C_6  and  S_7
REMARK    3  A    between atoms: S_7  and  C_8
REMARK    4  A    between atoms: N_13  and  N_14
REMARK    5  A    between atoms: C_15  and  C_16
REMARK    6  A    between atoms: N_23  and  C_30
REMARK    7  A    between atoms: N_26  and  C_29
REMARK                            x       y       z     vdW  Elec       q    Type
REMARK                         _______ _______ _______ _____ _____    ______ ____
ROOT
ATOM      1  C   UNL     1       4.151   9.447   0.009  0.00  0.00    +0.217 A 
ATOM      2  N   UNL     1       4.660   8.175  -0.001  0.00  0.00    -0.186 NA
ATOM      3  C   UNL     1       3.571   7.343   0.005  0.00  0.00    +0.232 A 
ATOM      4  N   UNL     1       2.504   8.102   0.013  0.00  0.00    -0.245 N 
ATOM      5  N   UNL     1       2.845   9.341   0.021  0.00  0.00    -0.144 NA
ATOM      6  N   UNL     1       3.595   5.956  -0.002  0.00  0.00    -0.205 N 
ATOM      7  H   UNL     1       4.557   5.422  -0.014  0.00  0.00    +0.177 HD
ATOM      8  H   UNL     1       1.503   7.645   0.013  0.00  0.00    +0.192 HD
ENDROOT
BRANCH   6   9
ATOM      9  N   UNL     1       2.394   5.234   0.006  0.00  0.00    -0.188 NA
ATOM     10  C   UNL     1       2.417   3.936  -0.001  0.00  0.00    +0.138 C 
BRANCH  10  11
ATOM     11  C   UNL     1       1.153   3.177   0.008  0.00  0.00    -0.004 A 
ATOM     12  C   UNL     1       1.173   1.780   0.000  0.00  0.00    +0.009 A 
ATOM     13  C   UNL     1      -0.013   1.076   0.008  0.00  0.00    +0.002 A 
ATOM     14  C   UNL     1      -1.221   1.750   0.017  0.00  0.00    +0.015 A 
ATOM     15  C   UNL     1      -1.250   3.134   0.030  0.00  0.00    +0.018 A 
ATOM     16  C   UNL     1      -0.070   3.851   0.022  0.00  0.00    +0.024 A 
ATOM     17 BR   UNL     1      -2.907   4.043   0.049  0.00  0.00    -0.050 Br
ENDBRANCH  10  11
ENDBRANCH   6   9
BRANCH   1  18
ATOM     18  S   UNL     1       5.079  10.945   0.007  0.00  0.00    -0.010 S 
BRANCH  18  24
ATOM     19  C   UNL     1       5.185  14.207   0.021  0.00  0.00    +0.151 C 
ATOM     20  N   UNL     1       3.919  13.471   0.030  0.00  0.00    -0.316 N 
ATOM     21  C   UNL     1       2.643  14.018   0.043  0.00  0.00    +0.152 A 
ATOM     22  C   UNL     1       1.757  12.945   0.047  0.00  0.00    +0.169 A 
ATOM     23  N   UNL     1       2.481  11.825   0.030  0.00  0.00    -0.203 NA
ATOM     24  C   UNL     1       3.765  12.119   0.025  0.00  0.00    +0.179 A 
ATOM     25  N   UNL     1       0.396  13.203   0.060  0.00  0.00    -0.280 N 
ATOM     26  C   UNL     1      -0.049  14.474   0.070  0.00  0.00    +0.333 A 
ATOM     27  O   UNL     1      -1.247  14.683   0.081  0.00  0.00    -0.246 OA
ATOM     28  N   UNL     1       0.798  15.518   0.066  0.00  0.00    -0.262 N 
ATOM     29  C   UNL     1       2.134  15.328   0.054  0.00  0.00    +0.282 A 
ATOM     30  O   UNL     1       2.891  16.283   0.052  0.00  0.00    -0.265 OA
ATOM     31  C   UNL     1       0.263  16.881   0.077  0.00  0.00    +0.157 C 
ATOM     32  C   UNL     1      -0.560  12.093   0.064  0.00  0.00    +0.155 C 
ENDBRANCH  18  24
ENDBRANCH   1  18
TORSDOF 4
