REMARK  Name = ZINC59183827
REMARK  4 active torsions:
REMARK  status: ('A' for Active; 'I' for Inactive)
REMARK    1  A    between atoms: C_1  and  C_2
REMARK    2  A    between atoms: C_3  and  C_21
REMARK    3  A    between atoms: C_7  and  N_20
REMARK    4  A    between atoms: C_9  and  C_11
REMARK                            x       y       z     vdW  Elec       q    Type
REMARK                         _______ _______ _______ _____ _____    ______ ____
ROOT
ATOM      1  C   UNL     1      -1.291   1.427   0.447  0.00  0.00    +0.045 C 
ATOM      2  C   UNL     1      -1.150  -0.073   0.397  0.00  0.00    -0.028 A 
ATOM      3  C   UNL     1      -1.700  -0.773  -0.607  0.00  0.00    -0.008 A 
ATOM      4  S   UNL     1      -1.268  -2.460  -0.225  0.00  0.00    -0.073 S 
ATOM      5  C   UNL     1      -0.359  -2.180   1.273  0.00  0.00    +0.114 A 
ATOM      6  C   UNL     1      -0.413  -0.776   1.432  0.00  0.00    +0.050 A 
ATOM      7  C   UNL     1       0.255  -0.262   2.579  0.00  0.00    +0.129 A 
ATOM      8  N   UNL     1       0.870  -1.097   3.397  0.00  0.00    -0.209 NA
ATOM      9  C   UNL     1       0.887  -2.411   3.186  0.00  0.00    +0.199 A 
ATOM     10  N   UNL     1       0.271  -2.947   2.136  0.00  0.00    -0.217 NA
ATOM     11  C   UNL     1      -2.496  -0.257  -1.778  0.00  0.00    +0.052 C 
ENDROOT
BRANCH   9  12
ATOM     12  C   UNL     1       1.593  -3.290   4.138  0.00  0.00    +0.173 A 
ATOM     13  C   UNL     1       2.244  -2.870   5.250  0.00  0.00    +0.061 A 
ATOM     14  C   UNL     1       2.786  -4.074   5.882  0.00  0.00    +0.021 A 
ATOM     15  C   UNL     1       3.540  -4.315   7.032  0.00  0.00    +0.011 A 
ATOM     16  C   UNL     1       3.896  -5.595   7.353  0.00  0.00    +0.001 A 
ATOM     17  C   UNL     1       3.512  -6.655   6.544  0.00  0.00    +0.004 A 
ATOM     18  C   UNL     1       2.767  -6.438   5.405  0.00  0.00    +0.047 A 
ATOM     19  C   UNL     1       2.394  -5.145   5.059  0.00  0.00    +0.136 A 
ATOM     20  O   UNL     1       1.681  -4.631   4.036  0.00  0.00    -0.452 OA
ENDBRANCH   9  12
BRANCH   7  21
ATOM     21  N   UNL     1       0.261   1.098   2.833  0.00  0.00    -0.343 N 
ATOM     22  H   UNL     1       0.110   1.727   2.111  0.00  0.00    +0.144 HD
ATOM     23  H   UNL     1       0.418   1.422   3.734  0.00  0.00    +0.144 HD
ENDBRANCH   7  21
TORSDOF 2
