REMARK  Name = ZINC04869353
REMARK  7 active torsions:
REMARK  status: ('A' for Active; 'I' for Inactive)
REMARK    1  A    between atoms: C_10  and  N_12
REMARK    2  A    between atoms: C_13  and  C_15
REMARK    3  A    between atoms: C_15  and  O_16
REMARK    4  A    between atoms: O_16  and  C_17
REMARK    5  A    between atoms: C_17  and  C_19
REMARK    6  A    between atoms: C_22  and  N_28
REMARK    7  A    between atoms: C_23  and  N_25
REMARK                            x       y       z     vdW  Elec       q    Type
REMARK                         _______ _______ _______ _____ _____    ______ ____
ROOT
ATOM      1  C   UNL     1       6.301   1.766   1.278  0.00  0.00    +0.328 C 
ENDROOT
BRANCH   1   3
ATOM      2  N   UNL     1       4.924  -0.195   0.661  0.00  0.00    -0.306 N 
ATOM      3  C   UNL     1       5.621   0.886   0.260  0.00  0.00    +0.251 C 
ATOM      4  O   UNL     1       5.702   1.152  -0.921  0.00  0.00    -0.272 OA
ATOM      5  H   UNL     1       4.860  -0.407   1.606  0.00  0.00    +0.149 HD
BRANCH   2  15
ATOM      6  C   UNL     1       0.478   0.700  -1.278  0.00  0.00    +0.000 A 
ATOM      7  C   UNL     1       1.605   1.488  -1.127  0.00  0.00    +0.000 A 
ATOM      8  C   UNL     1       2.814   0.901  -0.819  0.00  0.00    +0.006 A 
ATOM      9  C   UNL     1       2.910  -0.475  -0.657  0.00  0.00    -0.024 A 
ATOM     10  C   UNL     1       1.788  -1.258  -0.802  0.00  0.00    -0.042 A 
ATOM     11  C   UNL     1       0.572  -0.666  -1.116  0.00  0.00    +0.004 A 
ATOM     12  C   UNL     1       1.815  -2.754  -0.624  0.00  0.00    +0.035 C 
ATOM     13  C   UNL     1       3.246  -3.280  -0.715  0.00  0.00    +0.007 C 
ATOM     14  C   UNL     1       4.124  -2.461   0.238  0.00  0.00    +0.027 C 
ATOM     15  C   UNL     1       4.264  -1.050  -0.328  0.00  0.00    +0.104 C 
ENDBRANCH   2  15
ENDBRANCH   1   3
BRANCH   1  16
ATOM     16  O   UNL     1       6.970   2.838   0.611  0.00  0.00    -0.452 OA
BRANCH  16  17
ATOM     17  C   UNL     1       7.631   3.721   1.384  0.00  0.00    +0.340 C 
ATOM     18  O   UNL     1       7.641   3.585   2.591  0.00  0.00    -0.245 OA
BRANCH  17  19
ATOM     19  C   UNL     1       8.344   4.853   0.765  0.00  0.00    +0.061 A 
ATOM     20  C   UNL     1       8.330   5.015  -0.624  0.00  0.00    +0.017 A 
ATOM     21  C   UNL     1       8.991   6.064  -1.198  0.00  0.00    +0.026 A 
ATOM     22  C   UNL     1       9.680   6.976  -0.403  0.00  0.00    +0.055 A 
ATOM     23  C   UNL     1       9.700   6.822   0.981  0.00  0.00    +0.147 A 
ATOM     24  C   UNL     1       9.032   5.771   1.565  0.00  0.00    +0.049 A 
BRANCH  23  25
ATOM     25  N   UNL     1      10.434   7.793   1.823  0.00  0.00    +0.058 N 
ATOM     26  O   UNL     1      11.030   7.413   2.804  0.00  0.00    -0.126 OA
ATOM     27  O   UNL     1      10.438   8.966   1.530  0.00  0.00    -0.126 OA
ENDBRANCH  23  25
BRANCH  22  28
ATOM     28  N   UNL     1      10.350   8.042  -0.992  0.00  0.00    -0.356 N 
ATOM     29  H   UNL     1      10.245   8.216  -1.941  0.00  0.00    +0.142 HD
ATOM     30  H   UNL     1      10.923   8.611  -0.455  0.00  0.00    +0.142 HD
ENDBRANCH  22  28
ENDBRANCH  17  19
ENDBRANCH  16  17
ENDBRANCH   1  16
TORSDOF 7
