REMARK  Name = ZINC28349873
REMARK  8 active torsions:
REMARK  status: ('A' for Active; 'I' for Inactive)
REMARK    1  A    between atoms: C_1  and  C_2
REMARK    2  A    between atoms: C_5  and  C_25
REMARK    3  A    between atoms: C_6  and  N_8
REMARK    4  A    between atoms: N_8  and  C_9
REMARK    5  A    between atoms: C_9  and  N_11
REMARK    6  A    between atoms: N_11  and  N_12
REMARK    7  A    between atoms: C_13  and  C_15
REMARK    8  A    between atoms: C_15  and  C_16
REMARK                            x       y       z     vdW  Elec       q    Type
REMARK                         _______ _______ _______ _____ _____    ______ ____
ROOT
ATOM      1  N   UNL     1      -0.729   2.041  -3.601  0.00  0.00    -0.246 N 
ATOM      2  H   UNL     1      -1.413   2.896  -3.494  0.00  0.00    +0.172 HD
ENDROOT
BRANCH   1   3
ATOM      3  N   UNL     1      -0.361   1.293  -2.475  0.00  0.00    -0.235 N 
ATOM      4  C   UNL     1      -0.844   1.621  -1.260  0.00  0.00    +0.235 C 
ATOM      5  O   UNL     1      -1.598   2.564  -1.142  0.00  0.00    -0.274 OA
ATOM      6  H   UNL     1       0.323   0.438  -2.582  0.00  0.00    +0.173 HD
BRANCH   4   7
ATOM      7  C   UNL     1      -0.448   0.817  -0.049  0.00  0.00    +0.156 C 
BRANCH   7   8
ATOM      8  C   UNL     1      -1.120   1.386   1.174  0.00  0.00    +0.100 A 
ATOM      9  C   UNL     1      -2.430   0.997   1.704  0.00  0.00    +0.045 A 
ATOM     10  C   UNL     1      -3.397   0.072   1.306  0.00  0.00    +0.013 A 
ATOM     11  C   UNL     1      -4.548  -0.062   2.029  0.00  0.00    +0.001 A 
ATOM     12  C   UNL     1      -4.765   0.716   3.158  0.00  0.00    +0.004 A 
ATOM     13  C   UNL     1      -3.823   1.635   3.568  0.00  0.00    +0.049 A 
ATOM     14  C   UNL     1      -2.646   1.786   2.846  0.00  0.00    +0.168 A 
ATOM     15  O   UNL     1      -1.564   2.578   2.991  0.00  0.00    -0.354 OA
ATOM     16  N   UNL     1      -0.643   2.306   1.954  0.00  0.00    -0.082 NA
ENDBRANCH   7   8
ENDBRANCH   4   7
ENDBRANCH   1   3
BRANCH   1  17
ATOM     17  C   UNL     1      -0.245   1.712  -4.815  0.00  0.00    +0.151 C 
ATOM     18  S   UNL     1      -0.696   2.626  -6.191  0.00  0.00    -0.017 S 
BRANCH  17  19
ATOM     19  N   UNL     1       0.592   0.664  -4.947  0.00  0.00    -0.296 N 
ATOM     20  H   UNL     1       0.953   0.133  -4.053  0.00  0.00    +0.154 HD
BRANCH  19  26
ATOM     21  C   UNL     1      -0.514  -0.355  -9.627  0.00  0.00    +0.044 C 
ATOM     22  C   UNL     1       0.488  -0.250  -8.506  0.00  0.00    -0.049 A 
ATOM     23  C   UNL     1       1.816  -0.562  -8.735  0.00  0.00    +0.004 A 
ATOM     24  C   UNL     1       2.738  -0.468  -7.709  0.00  0.00    +0.005 A 
ATOM     25  C   UNL     1       2.335  -0.061  -6.452  0.00  0.00    -0.029 A 
ATOM     26  C   UNL     1       1.003   0.253  -6.219  0.00  0.00    +0.036 A 
ATOM     27  C   UNL     1       0.078   0.151  -7.250  0.00  0.00    +0.027 A 
ATOM     28  C   UNL     1       3.341   0.042  -5.334  0.00  0.00    +0.045 C 
ENDBRANCH  19  26
ENDBRANCH  17  19
ENDBRANCH   1  17
TORSDOF 6
