REMARK  Name = ZINC36823621
REMARK  10 active torsions:
REMARK  status: ('A' for Active; 'I' for Inactive)
REMARK    1  A    between atoms: C_1  and  C_2
REMARK    2  A    between atoms: C_3  and  C_30
REMARK    3  A    between atoms: N_9  and  C_27
REMARK    4  A    between atoms: C_10  and  S_12
REMARK    5  A    between atoms: S_12  and  C_13
REMARK    6  A    between atoms: C_13  and  C_14
REMARK    7  A    between atoms: C_23  and  O_26
REMARK    8  A    between atoms: C_24  and  C_25
REMARK    9  A    between atoms: C_27  and  C_28
REMARK   10  A    between atoms: C_27  and  C_29
REMARK                            x       y       z     vdW  Elec       q    Type
REMARK                         _______ _______ _______ _____ _____    ______ ____
ROOT
ATOM      1  S   UNL     1      -0.523  -3.544   4.941  0.00  0.00    -0.083 S 
ENDROOT
BRANCH   1  11
ATOM      2  C   UNL     1       0.348   1.162  -0.115  0.00  0.00    +0.045 C 
ATOM      3  C   UNL     1       0.055  -0.314  -0.028  0.00  0.00    -0.026 A 
ATOM      4  C   UNL     1      -0.099  -1.042  -1.144  0.00  0.00    -0.008 A 
ATOM      5  S   UNL     1      -0.421  -2.683  -0.526  0.00  0.00    -0.073 S 
ATOM      6  C   UNL     1      -0.339  -2.344   1.214  0.00  0.00    +0.117 A 
ATOM      7  C   UNL     1      -0.057  -0.966   1.266  0.00  0.00    +0.075 A 
ATOM      8  C   UNL     1       0.071  -0.406   2.576  0.00  0.00    +0.263 A 
ATOM      9  O   UNL     1       0.310   0.781   2.719  0.00  0.00    -0.267 OA
ATOM     10  N   UNL     1      -0.074  -1.206   3.648  0.00  0.00    -0.285 N 
ATOM     11  C   UNL     1      -0.341  -2.537   3.506  0.00  0.00    +0.173 A 
ATOM     12  N   UNL     1      -0.475  -3.077   2.312  0.00  0.00    -0.216 NA
ATOM     13  C   UNL     1      -0.021  -0.582  -2.577  0.00  0.00    +0.052 C 
BRANCH  10  14
ATOM     14  C   UNL     1       0.057  -0.638   4.992  0.00  0.00    +0.087 C 
ATOM     15  C   UNL     1       1.442  -0.005   5.145  0.00  0.00    +0.031 C 
ATOM     16  C   UNL     1      -1.018   0.429   5.202  0.00  0.00    +0.031 C 
ENDBRANCH  10  14
ENDBRANCH   1  11
BRANCH   1  17
ATOM     17  C   UNL     1      -0.862  -5.198   4.276  0.00  0.00    +0.113 C 
BRANCH  17  18
ATOM     18  C   UNL     1      -1.041  -6.170   5.413  0.00  0.00    -0.020 A 
ATOM     19  C   UNL     1      -2.274  -6.627   5.753  0.00  0.00    +0.097 A 
ATOM     20  C   UNL     1      -2.415  -7.536   6.821  0.00  0.00    +0.338 A 
ATOM     21  O   UNL     1      -3.527  -7.938   7.115  0.00  0.00    -0.245 OA
ATOM     22  O   UNL     1      -1.356  -7.971   7.522  0.00  0.00    -0.422 OA
ATOM     23  C   UNL     1      -0.104  -7.556   7.237  0.00  0.00    +0.146 A 
ATOM     24  C   UNL     1       0.111  -6.652   6.179  0.00  0.00    +0.022 A 
ATOM     25  C   UNL     1       1.408  -6.223   5.876  0.00  0.00    +0.015 A 
ATOM     26  C   UNL     1       2.464  -6.688   6.606  0.00  0.00    +0.046 A 
ATOM     27  C   UNL     1       2.258  -7.587   7.651  0.00  0.00    +0.123 A 
ATOM     28  C   UNL     1       0.979  -8.014   7.971  0.00  0.00    +0.034 A 
ATOM     29  C   UNL     1       0.768  -8.985   9.103  0.00  0.00    +0.051 C 
BRANCH  27  30
ATOM     30  O   UNL     1       3.318  -8.040   8.367  0.00  0.00    -0.506 OA
ATOM     31  H   UNL     1       3.534  -7.497   9.137  0.00  0.00    +0.292 HD
ENDBRANCH  27  30
ENDBRANCH  17  18
ENDBRANCH   1  17
TORSDOF 5
