REMARK  Name = ZINC22712843
REMARK  10 active torsions:
REMARK  status: ('A' for Active; 'I' for Inactive)
REMARK    1  A    between atoms: C_1  and  C_2
REMARK    2  A    between atoms: C_2  and  C_4
REMARK    3  A    between atoms: C_2  and  N_11
REMARK    4  A    between atoms: C_12  and  C_14
REMARK    5  A    between atoms: C_14  and  C_16
REMARK    6  A    between atoms: C_14  and  O_17
REMARK    7  A    between atoms: O_17  and  C_18
REMARK    8  A    between atoms: C_18  and  C_20
REMARK    9  A    between atoms: C_22  and  N_27
REMARK   10  A    between atoms: C_25  and  N_26
REMARK                            x       y       z     vdW  Elec       q    Type
REMARK                         _______ _______ _______ _____ _____    ______ ____
ROOT
ATOM      1  C   UNL     1       0.738  -1.053  -3.631  0.00  0.00    +0.259 C 
ATOM      2  C   UNL     1       1.805  -0.048  -4.071  0.00  0.00    +0.062 C 
ENDROOT
BRANCH   1   4
ATOM      3  N   UNL     1       0.727  -0.393  -1.247  0.00  0.00    -0.306 N 
ATOM      4  C   UNL     1       0.041  -0.537  -2.398  0.00  0.00    +0.254 C 
ATOM      5  O   UNL     1      -1.137  -0.251  -2.443  0.00  0.00    -0.272 OA
ATOM      6  H   UNL     1       1.669  -0.622  -1.211  0.00  0.00    +0.149 HD
BRANCH   3   8
ATOM      7  C   UNL     1       0.047   1.638  -0.067  0.00  0.00    +0.033 C 
ATOM      8  C   UNL     1       0.049   0.108  -0.049  0.00  0.00    +0.100 C 
BRANCH   8   9
ATOM      9  C   UNL     1       0.774  -0.378   1.180  0.00  0.00    -0.027 A 
ATOM     10  C   UNL     1       2.156  -0.405   1.200  0.00  0.00    +0.008 A 
ATOM     11  C   UNL     1       2.822  -0.850   2.326  0.00  0.00    +0.038 A 
ATOM     12  C   UNL     1       2.105  -1.270   3.434  0.00  0.00    +0.123 A 
ATOM     13  C   UNL     1       0.721  -1.243   3.412  0.00  0.00    +0.038 A 
ATOM     14  C   UNL     1       0.057  -0.792   2.287  0.00  0.00    +0.008 A 
ATOM     15  F   UNL     1       2.755  -1.707   4.535  0.00  0.00    -0.205 F 
ENDBRANCH   8   9
ENDBRANCH   3   8
ENDBRANCH   1   4
BRANCH   1  16
ATOM     16  O   UNL     1      -0.216  -1.225  -4.680  0.00  0.00    -0.449 OA
BRANCH  16  17
ATOM     17  C   UNL     1       0.034  -2.197  -5.581  0.00  0.00    +0.342 C 
ATOM     18  O   UNL     1       1.035  -2.878  -5.477  0.00  0.00    -0.245 OA
BRANCH  17  19
ATOM     19  C   UNL     1      -0.906  -2.432  -6.690  0.00  0.00    +0.082 A 
ATOM     20  C   UNL     1      -2.117  -1.736  -6.745  0.00  0.00    +0.049 A 
ATOM     21  C   UNL     1      -2.991  -1.961  -7.786  0.00  0.00    +0.127 A 
ATOM     22  C   UNL     1      -2.677  -2.875  -8.780  0.00  0.00    +0.034 A 
ATOM     23  C   UNL     1      -1.486  -3.569  -8.740  0.00  0.00    +0.026 A 
ATOM     24  C   UNL     1      -0.588  -3.352  -7.702  0.00  0.00    +0.039 A 
BRANCH  24  25
ATOM     25  N   UNL     1       0.614  -4.045  -7.662  0.00  0.00    -0.357 N 
ATOM     26  H   UNL     1       1.201  -3.955  -6.896  0.00  0.00    +0.142 HD
ATOM     27  H   UNL     1       0.867  -4.620  -8.402  0.00  0.00    +0.142 HD
ENDBRANCH  24  25
BRANCH  21  28
ATOM     28  N   UNL     1      -4.274  -1.224  -7.842  0.00  0.00    +0.056 N 
ATOM     29  O   UNL     1      -4.551  -0.427  -6.976  0.00  0.00    -0.126 OA
ATOM     30  O   UNL     1      -5.043  -1.419  -8.753  0.00  0.00    -0.126 OA
ENDBRANCH  21  28
ENDBRANCH  17  19
ENDBRANCH  16  17
ENDBRANCH   1  16
TORSDOF 8
