REMARK  Name = ZINC24901262
REMARK  8 active torsions:
REMARK  status: ('A' for Active; 'I' for Inactive)
REMARK    1  A    between atoms: C_3  and  C_6
REMARK    2  A    between atoms: C_6  and  N_7
REMARK    3  A    between atoms: C_8  and  C_10
REMARK    4  A    between atoms: C_10  and  N_11
REMARK    5  A    between atoms: N_17  and  C_23
REMARK    6  A    between atoms: C_23  and  C_24
REMARK    7  A    between atoms: C_24  and  O_25
REMARK    8  A    between atoms: O_25  and  C_26
REMARK                            x       y       z     vdW  Elec       q    Type
REMARK                         _______ _______ _______ _____ _____    ______ ____
ROOT
ATOM      1  N   UNL     1      -0.735   2.471  -2.801  0.00  0.00    -0.215 N 
ATOM      2  C   UNL     1      -2.013   2.302  -2.399  0.00  0.00    +0.245 C 
ATOM      3  O   UNL     1      -3.005   2.812  -2.874  0.00  0.00    -0.273 OA
ATOM      4  C   UNL     1      -1.949   1.342  -1.233  0.00  0.00    +0.178 C 
ATOM      5  C   UNL     1      -2.568   1.961   0.024  0.00  0.00    +0.116 C 
ATOM      6  N   UNL     1      -2.145   1.174   1.192  0.00  0.00    -0.295 NA
ATOM      7  C   UNL     1      -0.696   1.249   1.427  0.00  0.00    +0.103 C 
ATOM      8  C   UNL     1       0.053   0.625   0.237  0.00  0.00    +0.125 C 
ATOM      9  N   UNL     1      -0.494   1.230  -0.980  0.00  0.00    -0.271 N 
ATOM     10  C   UNL     1       0.123   1.800  -2.016  0.00  0.00    +0.312 C 
ATOM     11  O   UNL     1       1.317   1.720  -2.225  0.00  0.00    -0.252 OA
ENDROOT
BRANCH   1  12
ATOM     12  C   UNL     1      -0.335   3.285  -3.951  0.00  0.00    +0.213 C 
BRANCH  12  14
ATOM     13  N   UNL     1       0.030   2.967  -6.377  0.00  0.00    -0.307 N 
ATOM     14  C   UNL     1      -0.312   2.428  -5.190  0.00  0.00    +0.231 C 
ATOM     15  O   UNL     1      -0.603   1.252  -5.120  0.00  0.00    -0.274 OA
ATOM     16  H   UNL     1       0.293   4.033  -6.441  0.00  0.00    +0.149 HD
BRANCH  13  17
ATOM     17  C   UNL     1       0.051   2.134  -7.581  0.00  0.00    +0.178 C 
BRANCH  17  20
ATOM     18  C   UNL     1       1.650   4.009 -10.322  0.00  0.00    +0.041 A 
ATOM     19  C   UNL     1       1.725   3.166  -9.189  0.00  0.00    +0.046 A 
ATOM     20  C   UNL     1       0.464   2.971  -8.764  0.00  0.00    +0.122 A 
ATOM     21  O   UNL     1      -0.366   3.655  -9.570  0.00  0.00    -0.466 OA
ATOM     22  C   UNL     1       0.348   4.286 -10.516  0.00  0.00    +0.195 A 
ENDBRANCH  17  20
ENDBRANCH  13  17
ENDBRANCH  12  14
ENDBRANCH   1  12
BRANCH   6  23
ATOM     23  C   UNL     1      -2.893   1.569   2.393  0.00  0.00    +0.125 C 
BRANCH  23  24
ATOM     24  C   UNL     1      -4.307   0.990   2.327  0.00  0.00    +0.244 C 
BRANCH  24  25
ATOM     25  O   UNL     1      -4.240  -0.437   2.365  0.00  0.00    -0.491 OA
BRANCH  25  26
ATOM     26  C   UNL     1      -5.419  -1.112   2.314  0.00  0.00    +0.121 A 
ATOM     27  C   UNL     1      -6.615  -0.415   2.236  0.00  0.00    +0.048 A 
ATOM     28  C   UNL     1      -7.812  -1.102   2.179  0.00  0.00    +0.042 A 
ATOM     29  C   UNL     1      -7.819  -2.486   2.212  0.00  0.00    +0.124 A 
ATOM     30  C   UNL     1      -6.625  -3.184   2.295  0.00  0.00    +0.042 A 
ATOM     31  C   UNL     1      -5.426  -2.499   2.346  0.00  0.00    +0.048 A 
ATOM     32  F   UNL     1      -8.990  -3.157   2.162  0.00  0.00    -0.205 F 
ENDBRANCH  25  26
ENDBRANCH  24  25
ENDBRANCH  23  24
ENDBRANCH   6  23
TORSDOF 8
