REMARK  Name = ZINC67101611
REMARK  8 active torsions:
REMARK  status: ('A' for Active; 'I' for Inactive)
REMARK    1  A    between atoms: C_6  and  C_7
REMARK    2  A    between atoms: C_7  and  C_9
REMARK    3  A    between atoms: C_7  and  O_25
REMARK    4  A    between atoms: C_9  and  N_10
REMARK    5  A    between atoms: N_13  and  N_14
REMARK    6  A    between atoms: C_15  and  C_17
REMARK    7  A    between atoms: C_17  and  C_18
REMARK    8  A    between atoms: C_18  and  C_19
REMARK                            x       y       z     vdW  Elec       q    Type
REMARK                         _______ _______ _______ _____ _____    ______ ____
ROOT
ATOM      1  N   UNL     1      -2.933  -1.887  -1.423  0.00  0.00    -0.295 N 
ATOM      2  C   UNL     1      -3.429  -2.381  -2.575  0.00  0.00    +0.316 C 
ATOM      3  O   UNL     1      -2.785  -2.292  -3.602  0.00  0.00    -0.251 OA
ATOM      4  N   UNL     1      -4.639  -2.974  -2.587  0.00  0.00    -0.218 N 
ATOM      5  H   UNL     1      -3.446  -1.959  -0.604  0.00  0.00    +0.150 HD
ATOM      6  H   UNL     1      -4.997  -3.330  -3.416  0.00  0.00    +0.174 HD
ENDROOT
BRANCH   4   7
ATOM      7  N   UNL     1      -5.381  -3.078  -1.403  0.00  0.00    -0.233 N 
ATOM      8  C   UNL     1      -6.591  -3.671  -1.416  0.00  0.00    +0.229 C 
ATOM      9  O   UNL     1      -7.038  -4.115  -2.452  0.00  0.00    -0.274 OA
ATOM     10  H   UNL     1      -5.024  -2.722  -0.575  0.00  0.00    +0.173 HD
BRANCH   8  11
ATOM     11  C   UNL     1      -7.389  -3.781  -0.142  0.00  0.00    +0.097 C 
BRANCH  11  12
ATOM     12  C   UNL     1      -8.714  -4.490  -0.430  0.00  0.00    +0.013 C 
BRANCH  12  13
ATOM     13  C   UNL     1      -9.524  -4.603   0.863  0.00  0.00    -0.011 C 
ATOM     14  C   UNL     1      -8.786  -5.510   1.850  0.00  0.00    +0.003 C 
ATOM     15  C   UNL     1      -9.596  -5.622   3.143  0.00  0.00    +0.000 C 
ATOM     16  C   UNL     1     -10.971  -6.218   2.833  0.00  0.00    +0.000 C 
ATOM     17  C   UNL     1     -11.709  -5.311   1.846  0.00  0.00    +0.000 C 
ATOM     18  C   UNL     1     -10.899  -5.199   0.553  0.00  0.00    +0.003 C 
ENDBRANCH  12  13
ENDBRANCH  11  12
ENDBRANCH   8  11
ENDBRANCH   4   7
BRANCH   1  19
ATOM     19  C   UNL     1      -1.617  -1.243  -1.410  0.00  0.00    +0.142 C 
BRANCH  19  20
ATOM     20  C   UNL     1      -1.293  -0.774   0.010  0.00  0.00    +0.162 C 
BRANCH  20  26
ATOM     21  C   UNL     1      -0.017   1.378   0.010  0.00  0.00    +0.009 A 
ATOM     22  C   UNL     1       1.170   2.087   0.002  0.00  0.00    +0.041 A 
ATOM     23  C   UNL     1       2.379   1.413  -0.013  0.00  0.00    +0.158 A 
ATOM     24  C   UNL     1       2.397   0.026  -0.021  0.00  0.00    +0.159 A 
ATOM     25  C   UNL     1       1.208  -0.680  -0.013  0.00  0.00    +0.047 A 
ATOM     26  C   UNL     1       0.002  -0.004   0.002  0.00  0.00    -0.015 A 
ATOM     27  F   UNL     1       3.576  -0.634  -0.036  0.00  0.00    -0.202 F 
ATOM     28  F   UNL     1       3.539   2.105  -0.021  0.00  0.00    -0.202 F 
ENDBRANCH  20  26
BRANCH  20  29
ATOM     29  O   UNL     1      -1.167  -1.910   0.869  0.00  0.00    -0.386 OA
ATOM     30  H   UNL     1      -0.470  -2.526   0.606  0.00  0.00    +0.210 HD
ENDBRANCH  20  29
ENDBRANCH  19  20
ENDBRANCH   1  19
TORSDOF 8
