REMARK  Name = ZINC19837540
REMARK  4 active torsions:
REMARK  status: ('A' for Active; 'I' for Inactive)
REMARK    1  A    between atoms: C_1  and  N_2
REMARK    2  A    between atoms: C_5  and  C_7
REMARK    3  A    between atoms: C_15  and  C_17
REMARK    4  A    between atoms: C_20  and  N_23
REMARK                            x       y       z     vdW  Elec       q    Type
REMARK                         _______ _______ _______ _____ _____    ______ ____
ROOT
ATOM      1  C   UNL     1      -0.018   1.461   0.010  0.00  0.00    +0.174 C 
ATOM      2  N   UNL     1       0.002  -0.004   0.002  0.00  0.00    -0.248 N 
ATOM      3  C   UNL     1       0.008  -0.802  -1.113  0.00  0.00    +0.177 A 
ATOM      4  C   UNL     1       0.029  -2.119  -0.667  0.00  0.00    +0.113 A 
ATOM      5  C   UNL     1       0.035  -2.088   0.743  0.00  0.00    +0.120 A 
ATOM      6  N   UNL     1       0.025  -0.832   1.131  0.00  0.00    -0.167 NA
ATOM      7  N   UNL     1       0.034  -2.913  -1.799  0.00  0.00    -0.335 N 
ATOM      8  H   UNL     1       0.048  -3.882  -1.824  0.00  0.00    +0.167 HD
ATOM      9  C   UNL     1       0.017  -2.071  -2.876  0.00  0.00    +0.141 A 
ATOM     10  N   UNL     1       0.002  -0.828  -2.454  0.00  0.00    -0.209 NA
ENDROOT
BRANCH   5  11
ATOM     11  C   UNL     1       0.057  -3.272   1.636  0.00  0.00    +0.022 A 
ATOM     12  C   UNL     1       0.748  -3.233   2.850  0.00  0.00    +0.013 A 
ATOM     13  C   UNL     1       0.737  -4.364   3.648  0.00  0.00    +0.020 A 
ATOM     14  C   UNL     1       0.049  -5.486   3.223  0.00  0.00    +0.111 A 
ATOM     15  N   UNL     1      -0.595  -5.492   2.071  0.00  0.00    -0.263 NA
ATOM     16  C   UNL     1      -0.617  -4.438   1.281  0.00  0.00    +0.120 A 
ENDBRANCH   5  11
BRANCH   9  17
ATOM     17  C   UNL     1       0.017  -2.494  -4.293  0.00  0.00    +0.017 A 
ATOM     18  C   UNL     1       0.030  -3.852  -4.617  0.00  0.00    +0.013 A 
ATOM     19  C   UNL     1       0.029  -4.242  -5.939  0.00  0.00    +0.028 A 
ATOM     20  C   UNL     1       0.017  -3.286  -6.948  0.00  0.00    +0.065 A 
ATOM     21  C   UNL     1       0.005  -1.934  -6.628  0.00  0.00    +0.028 A 
ATOM     22  C   UNL     1      -0.002  -1.536  -5.309  0.00  0.00    +0.013 A 
BRANCH  20  23
ATOM     23  N   UNL     1       0.017  -3.687  -8.289  0.00  0.00    -0.240 N 
ATOM     24  C   UNL     1       0.011  -2.864  -9.370  0.00  0.00    +0.114 A 
ATOM     25  C   UNL     1       0.013  -3.643 -10.477  0.00  0.00    +0.041 A 
ATOM     26  C   UNL     1       0.021  -4.980 -10.065  0.00  0.00    +0.135 A 
ATOM     27  N   UNL     1       0.029  -5.008  -8.757  0.00  0.00    -0.175 NA
ENDBRANCH  20  23
ENDBRANCH   9  17
TORSDOF 3
