REMARK  Name = ZINC37556263
REMARK  6 active torsions:
REMARK  status: ('A' for Active; 'I' for Inactive)
REMARK    1  A    between atoms: C_1  and  C_2
REMARK    2  A    between atoms: C_7  and  N_10
REMARK    3  A    between atoms: N_10  and  S_11
REMARK    4  A    between atoms: S_11  and  C_14
REMARK    5  A    between atoms: C_15  and  N_22
REMARK    6  A    between atoms: N_22  and  N_23
REMARK                            x       y       z     vdW  Elec       q    Type
REMARK                         _______ _______ _______ _____ _____    ______ ____
ROOT
ATOM      1  C   UNL     1       1.291  -5.231   0.429  0.00  0.00    +0.222 A 
ATOM      2  C   UNL     1       0.950  -5.687   1.652  0.00  0.00    +0.179 A 
ATOM      3  N   UNL     1       0.106  -6.722   1.496  0.00  0.00    -0.203 NA
ATOM      4  C   UNL     1      -0.087  -6.923   0.223  0.00  0.00    +0.181 A 
ATOM      5  N   UNL     1       0.624  -6.016  -0.515  0.00  0.00    -0.276 N 
ATOM      6  C   UNL     1       0.514  -6.102  -1.886  0.00  0.00    +0.102 A 
ATOM      7  C   UNL     1      -0.258  -7.030  -2.451  0.00  0.00    +0.067 A 
ATOM      8  S   UNL     1      -0.902  -7.892  -1.026  0.00  0.00    -0.058 S 
ENDROOT
BRANCH   1   9
ATOM      9  S   UNL     1       2.375  -3.885   0.086  0.00  0.00    +0.078 S 
ATOM     10  O   UNL     1       2.877  -4.092  -1.227  0.00  0.00    -0.151 OA
ATOM     11  O   UNL     1       3.227  -3.751   1.215  0.00  0.00    -0.151 OA
BRANCH   9  12
ATOM     12  N   UNL     1       1.448  -2.513   0.028  0.00  0.00    -0.185 NA
ATOM     13  H   UNL     1       1.360  -2.023  -0.804  0.00  0.00    +0.148 HD
BRANCH  12  19
ATOM     14  C   UNL     1      -0.019   1.526   0.010  0.00  0.00    +0.007 C 
ATOM     15  C   UNL     1       0.002  -0.004   0.002  0.00  0.00    -0.013 C 
ATOM     16  C   UNL     1      -1.433  -0.534   0.013  0.00  0.00    +0.003 C 
ATOM     17  C   UNL     1      -1.413  -2.063   0.004  0.00  0.00    +0.002 C 
ATOM     18  C   UNL     1      -0.673  -2.570   1.244  0.00  0.00    +0.020 C 
ATOM     19  C   UNL     1       0.763  -2.041   1.233  0.00  0.00    +0.077 C 
ATOM     20  C   UNL     1       0.742  -0.511   1.242  0.00  0.00    +0.023 C 
ENDBRANCH  12  19
ENDBRANCH   9  12
ENDBRANCH   1   9
BRANCH   2  21
ATOM     21  N   UNL     1       1.398  -5.170   2.877  0.00  0.00    -0.265 N 
ATOM     22  H   UNL     1       2.010  -4.417   2.891  0.00  0.00    +0.168 HD
BRANCH  21  23
ATOM     23  N   UNL     1       0.974  -5.727   4.050  0.00  0.00    -0.255 NA
ATOM     24  H   UNL     1       1.180  -6.715   4.077  0.00  0.00    +0.140 HD
ATOM     25  H   UNL     1       1.378  -5.252   4.843  0.00  0.00    +0.140 HD
ENDBRANCH  21  23
ENDBRANCH   2  21
TORSDOF 5
