REMARK  Name = ZINC39323858
REMARK  5 active torsions:
REMARK  status: ('A' for Active; 'I' for Inactive)
REMARK    1  A    between atoms: C_1  and  C_2
REMARK    2  A    between atoms: C_2  and  C_3
REMARK    3  A    between atoms: C_3  and  C_4
REMARK    4  A    between atoms: C_10  and  N_25
REMARK    5  A    between atoms: C_11  and  C_23
REMARK                            x       y       z     vdW  Elec       q    Type
REMARK                         _______ _______ _______ _____ _____    ______ ____
ROOT
ATOM      1  C   UNL     1       0.762  -2.018   1.233  0.00  0.00    +0.198 A 
ATOM      2  N   UNL     1       1.691  -2.761   0.693  0.00  0.00    -0.214 NA
ATOM      3  C   UNL     1       1.375  -4.043   0.882  0.00  0.00    +0.127 A 
ATOM      4  C   UNL     1       0.201  -4.080   1.571  0.00  0.00    +0.217 A 
ATOM      5  O   UNL     1      -0.171  -2.816   1.786  0.00  0.00    -0.426 OA
ATOM      6  N   UNL     1      -0.402  -5.281   1.936  0.00  0.00    -0.273 N 
ATOM      7  C   UNL     1       0.333  -6.435   1.811  0.00  0.00    +0.087 C 
ATOM      8  C   UNL     1       1.495  -6.485   1.141  0.00  0.00    +0.089 C 
ATOM      9  C   UNL     1       2.097  -5.290   0.458  0.00  0.00    +0.158 C 
ATOM     10  C   UNL     1       2.071  -5.448  -1.030  0.00  0.00    +0.001 A 
ATOM     11  C   UNL     1       1.024  -5.597  -1.915  0.00  0.00    +0.022 A 
ATOM     12  C   UNL     1       1.350  -5.720  -3.262  0.00  0.00    +0.018 A 
ATOM     13  C   UNL     1       2.662  -5.695  -3.689  0.00  0.00    +0.017 A 
ATOM     14  C   UNL     1       3.719  -5.546  -2.805  0.00  0.00    +0.025 A 
ATOM     15  C   UNL     1       3.406  -5.422  -1.450  0.00  0.00    +0.038 A 
ATOM     16  N   UNL     1       4.250  -5.266  -0.364  0.00  0.00    -0.284 N 
ATOM     17  C   UNL     1       3.568  -5.181   0.797  0.00  0.00    +0.239 C 
ATOM     18  O   UNL     1       4.045  -5.043   1.904  0.00  0.00    -0.274 OA
ATOM     19 BR   UNL     1      -0.035  -5.927  -4.533  0.00  0.00    -0.050 Br
ATOM     20  H   UNL     1      -1.312  -5.302   2.268  0.00  0.00    +0.156 HD
ATOM     21  H   UNL     1       5.216  -5.223  -0.430  0.00  0.00    +0.155 HD
ENDROOT
BRANCH   7  22
ATOM     22  N   UNL     1      -0.149  -7.605   2.406  0.00  0.00    -0.405 NA
ATOM     23  H   UNL     1      -1.024  -7.411   2.869  0.00  0.00    +0.122 HD
ATOM     24  H   UNL     1      -0.292  -8.308   1.697  0.00  0.00    +0.122 HD
ATOM     25  H   UNL     1       0.522  -7.940   3.081  0.00  0.00    +0.122 HD
ENDBRANCH   7  22
BRANCH   8  26
ATOM     26  C   UNL     1       2.192  -7.734   1.076  0.00  0.00    +0.100 C 
ATOM     27  N   UNL     1       2.746  -8.724   1.024  0.00  0.00    -0.191 NA
ENDBRANCH   8  26
BRANCH   1  28
ATOM     28  C   UNL     1       0.742  -0.511   1.242  0.00  0.00    +0.096 C 
BRANCH  28  30
ATOM     29  C   UNL     1      -0.019   1.526   0.010  0.00  0.00    +0.004 C 
ATOM     30  C   UNL     1       0.002  -0.004   0.002  0.00  0.00    +0.006 C 
ENDBRANCH  28  30
ENDBRANCH   1  28
TORSDOF 4
