REMARK  Name = ZINC37988157
REMARK  6 active torsions:
REMARK  status: ('A' for Active; 'I' for Inactive)
REMARK    1  A    between atoms: C_1  and  C_2
REMARK    2  A    between atoms: C_2  and  N_3
REMARK    3  A    between atoms: C_4  and  N_20
REMARK    4  A    between atoms: C_5  and  N_12
REMARK    5  A    between atoms: N_12  and  C_13
REMARK    6  A    between atoms: C_13  and  C_14
REMARK                            x       y       z     vdW  Elec       q    Type
REMARK                         _______ _______ _______ _____ _____    ______ ____
ROOT
ATOM      1  N   UNL     1       0.688  -0.476  -1.203  0.00  0.00    -0.281 N 
ATOM      2  C   UNL     1      -0.031  -0.703  -2.355  0.00  0.00    +0.127 A 
ATOM      3  C   UNL     1       0.619  -1.143  -3.476  0.00  0.00    +0.131 A 
ATOM      4  C   UNL     1       2.009  -1.354  -3.420  0.00  0.00    +0.277 A 
ATOM      5  O   UNL     1       2.610  -1.746  -4.406  0.00  0.00    -0.266 OA
ATOM      6  N   UNL     1       2.671  -1.120  -2.271  0.00  0.00    -0.273 N 
ATOM      7  H   UNL     1       3.630  -1.264  -2.230  0.00  0.00    +0.173 HD
ATOM      8  C   UNL     1       2.018  -0.682  -1.179  0.00  0.00    +0.331 A 
ATOM      9  O   UNL     1       2.637  -0.472  -0.154  0.00  0.00    -0.246 OA
ENDROOT
BRANCH   2  10
ATOM     10  N   UNL     1      -1.390  -0.488  -2.380  0.00  0.00    -0.343 N 
ATOM     11  H   UNL     1      -1.846  -0.176  -1.583  0.00  0.00    +0.144 HD
ATOM     12  H   UNL     1      -1.892  -0.649  -3.194  0.00  0.00    +0.144 HD
ENDBRANCH   2  10
BRANCH   1  14
ATOM     13  C   UNL     1      -0.019   1.526   0.010  0.00  0.00    +0.027 C 
ATOM     14  C   UNL     1       0.002  -0.004   0.002  0.00  0.00    +0.125 C 
ENDBRANCH   1  14
BRANCH   3  15
ATOM     15  N   UNL     1      -0.096  -1.384  -4.672  0.00  0.00    -0.337 N 
ATOM     16  H   UNL     1      -1.054  -1.236  -4.703  0.00  0.00    +0.146 HD
BRANCH  15  17
ATOM     17  C   UNL     1       0.611  -1.856  -5.866  0.00  0.00    +0.107 C 
BRANCH  17  18
ATOM     18  C   UNL     1      -0.387  -2.035  -7.012  0.00  0.00    +0.034 C 
ATOM     19  C   UNL     1       0.338  -2.482  -8.311  0.00  0.00    +0.035 C 
ATOM     20  C   UNL     1      -0.793  -3.264  -9.024  0.00  0.00    +0.160 C 
ATOM     21  O   UNL     1      -1.511  -3.929  -7.972  0.00  0.00    -0.379 OA
ATOM     22  C   UNL     1      -1.334  -3.222  -6.735  0.00  0.00    +0.165 C 
ENDBRANCH  17  18
ENDBRANCH  15  17
ENDBRANCH   3  15
TORSDOF 5
