REMARK  Name = ZINC53150906
REMARK  2 active torsions:
REMARK  status: ('A' for Active; 'I' for Inactive)
REMARK    1  A    between atoms: N_11  and  C_12
REMARK    2  A    between atoms: N_17  and  C_20
REMARK                            x       y       z     vdW  Elec       q    Type
REMARK                         _______ _______ _______ _____ _____    ______ ____
ROOT
ATOM      1  C   UNL     1       4.927  -3.246   0.065  0.00  0.00    +0.281 C 
ATOM      2  O   UNL     1       5.630  -4.402   0.047  0.00  0.00    -0.265 OA
ATOM      3  C   UNL     1       5.590  -2.034   0.154  0.00  0.00    +0.082 C 
ATOM      4  C   UNL     1       7.090  -1.831   0.125  0.00  0.00    +0.065 C 
ATOM      5  C   UNL     1       7.254  -0.306   0.259  0.00  0.00    +0.119 C 
ATOM      6  N   UNL     1       5.887   0.217   0.349  0.00  0.00    -0.267 N 
ATOM      7  C   UNL     1       4.996  -0.779   0.281  0.00  0.00    +0.252 C 
ATOM      8  O   UNL     1       3.789  -0.607   0.328  0.00  0.00    -0.270 OA
ENDROOT
BRANCH   1  19
ATOM      9  C   UNL     1       0.164  -8.055   0.104  0.00  0.00    +0.002 A 
ATOM     10  C   UNL     1       1.375  -8.724   0.061  0.00  0.00    +0.002 A 
ATOM     11  C   UNL     1       2.560  -8.016   0.022  0.00  0.00    +0.028 A 
ATOM     12  C   UNL     1       2.537  -6.629   0.025  0.00  0.00    +0.065 A 
ATOM     13  C   UNL     1       1.315  -5.954   0.069  0.00  0.00    +0.065 A 
ATOM     14  C   UNL     1       0.130  -6.675   0.108  0.00  0.00    +0.028 A 
ATOM     15  N   UNL     1       1.597  -4.591   0.062  0.00  0.00    -0.324 N 
ATOM     16  H   UNL     1       0.943  -3.876   0.086  0.00  0.00    +0.169 HD
ATOM     17  C   UNL     1       2.950  -4.436   0.016  0.00  0.00    +0.210 A 
ATOM     18  N   UNL     1       3.539  -5.663  -0.007  0.00  0.00    -0.324 N 
ATOM     19  N   UNL     1       3.590  -3.275  -0.004  0.00  0.00    -0.175 NA
ATOM     20  H   UNL     1       4.493  -5.835  -0.039  0.00  0.00    +0.169 HD
ENDBRANCH   1  19
BRANCH   6  21
ATOM     21  C   UNL     1       5.559   1.571   0.483  0.00  0.00    +0.037 A 
ATOM     22  C   UNL     1       4.230   1.972   0.443  0.00  0.00    +0.026 A 
ATOM     23  C   UNL     1       3.908   3.308   0.576  0.00  0.00    +0.040 A 
ATOM     24  C   UNL     1       4.910   4.248   0.748  0.00  0.00    +0.124 A 
ATOM     25  C   UNL     1       6.236   3.851   0.788  0.00  0.00    +0.040 A 
ATOM     26  C   UNL     1       6.561   2.515   0.661  0.00  0.00    +0.026 A 
ATOM     27  F   UNL     1       4.593   5.556   0.876  0.00  0.00    -0.205 F 
ENDBRANCH   6  21
TORSDOF 2
