REMARK  Name = ZINC53476499
REMARK  4 active torsions:
REMARK  status: ('A' for Active; 'I' for Inactive)
REMARK    1  A    between atoms: C_2  and  C_3
REMARK    2  A    between atoms: C_3  and  N_4
REMARK    3  A    between atoms: C_10  and  C_16
REMARK    4  A    between atoms: N_18  and  C_19
REMARK                            x       y       z     vdW  Elec       q    Type
REMARK                         _______ _______ _______ _____ _____    ______ ____
ROOT
ATOM      1  N   UNL     1       1.367  -1.676   1.111  0.00  0.00    -0.283 N 
ATOM      2  C   UNL     1       1.862  -1.266   2.303  0.00  0.00    +0.263 A 
ATOM      3  O   UNL     1       2.268  -0.130   2.460  0.00  0.00    -0.267 OA
ATOM      4  C   UNL     1       1.890  -2.245   3.401  0.00  0.00    +0.065 A 
ATOM      5  C   UNL     1       2.381  -1.915   4.664  0.00  0.00    +0.016 A 
ATOM      6  C   UNL     1       2.389  -2.852   5.657  0.00  0.00    +0.014 A 
ATOM      7  C   UNL     1       1.909  -4.146   5.420  0.00  0.00    +0.039 A 
ATOM      8  C   UNL     1       1.416  -4.497   4.170  0.00  0.00    +0.041 A 
ATOM      9  C   UNL     1       1.401  -3.546   3.146  0.00  0.00    +0.080 A 
ATOM     10  N   UNL     1       0.929  -3.844   1.912  0.00  0.00    -0.222 NA
ATOM     11  C   UNL     1       0.910  -2.952   0.952  0.00  0.00    +0.183 A 
ATOM     12  S   UNL     1       0.271  -3.425  -0.620  0.00  0.00    -0.011 SA
ENDROOT
BRANCH   7  13
ATOM     13  C   UNL     1       1.928  -5.148   6.510  0.00  0.00    +0.245 C 
ATOM     14  O   UNL     1       1.513  -6.272   6.309  0.00  0.00    -0.270 OA
ATOM     15  N   UNL     1       2.406  -4.813   7.725  0.00  0.00    -0.305 N 
ATOM     16  H   UNL     1       2.738  -3.915   7.885  0.00  0.00    +0.150 HD
BRANCH  15  17
ATOM     17  C   UNL     1       2.425  -5.804   8.803  0.00  0.00    +0.104 C 
ATOM     18  C   UNL     1       2.434  -5.100  10.177  0.00  0.00    +0.032 C 
ATOM     19  C   UNL     1       3.943  -4.998  10.487  0.00  0.00    +0.037 C 
ATOM     20  C   UNL     1       4.582  -6.141   9.727  0.00  0.00    -0.042 A 
ATOM     21  C   UNL     1       3.708  -6.605   8.758  0.00  0.00    -0.024 A 
ATOM     22  C   UNL     1       4.082  -7.655   7.936  0.00  0.00    +0.006 A 
ATOM     23  C   UNL     1       5.324  -8.242   8.080  0.00  0.00    +0.000 A 
ATOM     24  C   UNL     1       6.198  -7.780   9.046  0.00  0.00    +0.000 A 
ATOM     25  C   UNL     1       5.827  -6.728   9.871  0.00  0.00    +0.004 A 
ENDBRANCH  15  17
ENDBRANCH   7  13
BRANCH   1  26
ATOM     26  C   UNL     1       1.317  -0.740  -0.015  0.00  0.00    +0.154 C 
BRANCH  26  28
ATOM     27  C   UNL     1      -0.016   1.306   0.009  0.00  0.00    +0.005 C 
ATOM     28  C   UNL     1       0.002  -0.004   0.002  0.00  0.00    -0.013 C 
ENDBRANCH  26  28
ENDBRANCH   1  26
TORSDOF 4
