REMARK  Name = ZINC00878221
REMARK  8 active torsions:
REMARK  status: ('A' for Active; 'I' for Inactive)
REMARK    1  A    between atoms: C_1  and  C_2
REMARK    2  A    between atoms: C_4  and  C_24
REMARK    3  A    between atoms: C_8  and  N_23
REMARK    4  A    between atoms: C_9  and  C_11
REMARK    5  A    between atoms: N_13  and  C_14
REMARK    6  A    between atoms: C_15  and  C_21
REMARK    7  A    between atoms: C_16  and  C_20
REMARK    8  A    between atoms: C_17  and  C_19
REMARK                            x       y       z     vdW  Elec       q    Type
REMARK                         _______ _______ _______ _____ _____    ______ ____
ROOT
ATOM      1  C   UNL     1       7.604  -8.228  -1.855  0.00  0.00    +0.044 C 
ATOM      2  C   UNL     1       6.159  -8.621  -1.688  0.00  0.00    -0.037 A 
ATOM      3  C   UNL     1       5.796  -9.947  -1.647  0.00  0.00    +0.027 A 
ATOM      4  C   UNL     1       4.465 -10.306  -1.494  0.00  0.00    +0.040 A 
ATOM      5  N   UNL     1       3.532  -9.380  -1.385  0.00  0.00    -0.245 NA
ATOM      6  C   UNL     1       3.828  -8.099  -1.419  0.00  0.00    +0.111 A 
ATOM      7  C   UNL     1       5.153  -7.630  -1.572  0.00  0.00    +0.032 A 
ATOM      8  C   UNL     1       5.297  -6.182  -1.595  0.00  0.00    +0.054 A 
ATOM      9  C   UNL     1       4.164  -5.410  -1.458  0.00  0.00    +0.097 A 
ATOM     10  S   UNL     1       2.859  -6.615  -1.308  0.00  0.00    -0.062 S 
ATOM     11  C   UNL     1       4.083 -11.763  -1.451  0.00  0.00    +0.065 C 
ENDROOT
BRANCH   9  12
ATOM     12  C   UNL     1       4.060  -3.998  -1.446  0.00  0.00    +0.257 C 
ATOM     13  O   UNL     1       5.060  -3.312  -1.562  0.00  0.00    -0.269 OA
ATOM     14  N   UNL     1       2.854  -3.412  -1.306  0.00  0.00    -0.274 N 
ATOM     15  H   UNL     1       2.057  -3.958  -1.214  0.00  0.00    +0.156 HD
BRANCH  14  16
ATOM     16  C   UNL     1       2.752  -2.029  -1.294  0.00  0.00    +0.090 A 
ATOM     17  C   UNL     1       1.610  -1.249  -1.162  0.00  0.00    +0.083 A 
ATOM     18  C   UNL     1       1.795   0.182  -1.184  0.00  0.00    -0.021 A 
ATOM     19  C   UNL     1       3.054   0.637  -1.329  0.00  0.00    -0.007 A 
ATOM     20  S   UNL     1       4.018  -0.856  -1.441  0.00  0.00    -0.077 S 
ATOM     21  C   UNL     1       3.531   2.065  -1.385  0.00  0.00    +0.052 C 
ATOM     22  C   UNL     1       0.628   1.127  -1.055  0.00  0.00    +0.046 C 
BRANCH  17  23
ATOM     23  C   UNL     1       0.313  -1.836  -1.013  0.00  0.00    +0.102 C 
ATOM     24  N   UNL     1      -0.717  -2.302  -0.894  0.00  0.00    -0.191 NA
ENDBRANCH  17  23
ENDBRANCH  14  16
ENDBRANCH   9  12
BRANCH   8  25
ATOM     25  N   UNL     1       6.545  -5.594  -1.746  0.00  0.00    -0.356 N 
ATOM     26  H   UNL     1       6.619  -4.705  -2.129  0.00  0.00    +0.142 HD
ATOM     27  H   UNL     1       7.343  -6.070  -1.468  0.00  0.00    +0.142 HD
ENDBRANCH   8  25
TORSDOF 4
