REMARK  Name = ZINC28078451
REMARK  4 active torsions:
REMARK  status: ('A' for Active; 'I' for Inactive)
REMARK    1  A    between atoms: C_1  and  N_2
REMARK    2  A    between atoms: C_6  and  S_7
REMARK    3  A    between atoms: S_7  and  C_8
REMARK    4  A    between atoms: C_8  and  C_9
REMARK                            x       y       z     vdW  Elec       q    Type
REMARK                         _______ _______ _______ _____ _____    ______ ____
ROOT
ATOM      1  C   UNL     1       4.579   4.633  -0.025  0.00  0.00    +0.143 A 
ATOM      2  N   UNL     1       5.053   5.077   1.126  0.00  0.00    -0.216 NA
ATOM      3  C   UNL     1       5.874   6.113   1.197  0.00  0.00    +0.128 A 
ATOM      4  C   UNL     1       6.262   6.772  -0.002  0.00  0.00    +0.051 A 
ATOM      5  C   UNL     1       7.149   7.925  -0.168  0.00  0.00    -0.025 A 
ATOM      6  C   UNL     1       7.355   8.361  -1.428  0.00  0.00    -0.004 A 
ATOM      7  S   UNL     1       6.397   7.280  -2.455  0.00  0.00    -0.073 S 
ATOM      8  C   UNL     1       5.717   6.241  -1.188  0.00  0.00    +0.114 A 
ATOM      9  N   UNL     1       4.908   5.199  -1.169  0.00  0.00    -0.224 NA
ATOM     10  C   UNL     1       8.211   9.512  -1.861  0.00  0.00    +0.043 C 
ATOM     11  C   UNL     1       8.535  10.367  -0.627  0.00  0.00    +0.005 C 
ATOM     12  C   UNL     1       8.999   9.442   0.502  0.00  0.00    +0.005 C 
ATOM     13  C   UNL     1       7.819   8.616   1.016  0.00  0.00    +0.037 C 
ATOM     14  N   UNL     1       6.348   6.548   2.422  0.00  0.00    -0.343 N 
ATOM     15  H   UNL     1       7.030   7.409   2.473  0.00  0.00    +0.144 HD
ATOM     16  H   UNL     1       6.043   6.032   3.344  0.00  0.00    +0.144 HD
ENDROOT
BRANCH   1  17
ATOM     17  C   UNL     1       3.648   3.448  -0.030  0.00  0.00    +0.153 C 
BRANCH  17  18
ATOM     18  S   UNL     1       1.938   4.024   0.113  0.00  0.00    -0.080 S 
BRANCH  18  24
ATOM     19  C   UNL     1      -1.264   3.367   0.283  0.00  0.00    +0.151 C 
ATOM     20  N   UNL     1      -0.258   2.309   0.160  0.00  0.00    -0.329 N 
ATOM     21  C   UNL     1      -0.496   0.955   0.095  0.00  0.00    +0.107 A 
ATOM     22  C   UNL     1       0.699   0.351  -0.010  0.00  0.00    +0.131 A 
ATOM     23  N   UNL     1       1.652   1.298  -0.019  0.00  0.00    -0.230 NA
ATOM     24  C   UNL     1       1.091   2.480   0.082  0.00  0.00    +0.169 A 
ENDBRANCH  18  24
ENDBRANCH  17  18
ENDBRANCH   1  17
TORSDOF 3
