REMARK  Name = ZINC59248405
REMARK  9 active torsions:
REMARK  status: ('A' for Active; 'I' for Inactive)
REMARK    1  A    between atoms: C_1  and  C_2
REMARK    2  A    between atoms: C_2  and  C_3
REMARK    3  A    between atoms: C_8  and  N_9
REMARK    4  A    between atoms: N_12  and  N_13
REMARK    5  A    between atoms: C_14  and  C_15
REMARK    6  A    between atoms: C_17  and  C_31
REMARK    7  A    between atoms: N_18  and  C_21
REMARK    8  A    between atoms: C_19  and  C_20
REMARK    9  A    between atoms: C_24  and  C_28
REMARK                            x       y       z     vdW  Elec       q    Type
REMARK                         _______ _______ _______ _____ _____    ______ ____
ROOT
ATOM      1  C   UNL     1       4.188   0.904   4.488  0.00  0.00    +0.016 A 
ATOM      2  C   UNL     1       4.797   1.206   5.787  0.00  0.00    +0.032 A 
ATOM      3  C   UNL     1       3.800   1.607   6.596  0.00  0.00    +0.022 A 
ATOM      4  N   UNL     1       2.625   1.577   5.898  0.00  0.00    -0.317 N 
ATOM      5  C   UNL     1       2.853   1.158   4.623  0.00  0.00    +0.030 A 
ATOM      6  C   UNL     1       1.811   0.998   3.546  0.00  0.00    +0.064 C 
ATOM      7  C   UNL     1       3.953   2.022   8.037  0.00  0.00    +0.064 C 
ENDROOT
BRANCH   4   8
ATOM      8  C   UNL     1       1.376   1.927   6.415  0.00  0.00    +0.048 A 
ATOM      9  C   UNL     1       0.382   0.962   6.543  0.00  0.00    +0.027 A 
ATOM     10  C   UNL     1      -0.850   1.302   7.052  0.00  0.00    +0.018 A 
ATOM     11  C   UNL     1      -1.103   2.622   7.443  0.00  0.00    +0.082 A 
ATOM     12  C   UNL     1      -0.101   3.591   7.313  0.00  0.00    +0.057 A 
ATOM     13  C   UNL     1       1.132   3.239   6.807  0.00  0.00    +0.047 A 
ATOM     14 CL   UNL     1      -0.408   5.230   7.795  0.00  0.00    -0.083 Cl
BRANCH  11  15
ATOM     15  C   UNL     1      -2.420   2.990   7.987  0.00  0.00    +0.388 C 
ATOM     16  O   UNL     1      -3.295   2.142   8.100  0.00  0.00    -0.241 OA
ATOM     17  O   UNL     1      -2.640   4.145   8.328  0.00  0.00    -0.241 OA
ENDBRANCH  11  15
ENDBRANCH   4   8
BRANCH   1  19
ATOM     18  N   UNL     1       4.207   0.208   2.189  0.00  0.00    -0.186 NA
ATOM     19  C   UNL     1       4.880   0.428   3.276  0.00  0.00    +0.140 C 
BRANCH  18  23
ATOM     20  N   UNL     1       2.833  -0.268  -0.113  0.00  0.00    -0.268 N 
ATOM     21  C   UNL     1       4.165  -0.474  -0.091  0.00  0.00    +0.323 C 
ATOM     22  O   UNL     1       4.736  -0.866  -1.091  0.00  0.00    -0.251 OA
ATOM     23  N   UNL     1       4.864  -0.245   1.038  0.00  0.00    -0.191 N 
ATOM     24  H   UNL     1       2.388   0.107   0.663  0.00  0.00    +0.156 HD
ATOM     25  H   UNL     1       5.822  -0.393   1.053  0.00  0.00    +0.179 HD
BRANCH  20  31
ATOM     26  C   UNL     1       0.800  -1.085  -1.129  0.00  0.00    -0.026 A 
ATOM     27  C   UNL     1       0.070  -1.400  -2.258  0.00  0.00    +0.005 A 
ATOM     28  C   UNL     1       0.627  -1.234  -3.512  0.00  0.00    +0.000 A 
ATOM     29  C   UNL     1       1.917  -0.751  -3.641  0.00  0.00    +0.002 A 
ATOM     30  C   UNL     1       2.652  -0.434  -2.516  0.00  0.00    +0.023 A 
ATOM     31  C   UNL     1       2.093  -0.594  -1.255  0.00  0.00    +0.038 A 
BRANCH  26  33
ATOM     32  C   UNL     1      -0.422   0.056   0.703  0.00  0.00    +0.009 C 
ATOM     33  C   UNL     1       0.192  -1.266   0.238  0.00  0.00    +0.033 C 
ENDBRANCH  26  33
ENDBRANCH  20  31
ENDBRANCH  18  23
ENDBRANCH   1  19
TORSDOF 6
