REMARK  Name = ZINC42740669
REMARK  3 active torsions:
REMARK  status: ('A' for Active; 'I' for Inactive)
REMARK    1  A    between atoms: C_1  and  C_2
REMARK    2  A    between atoms: C_13  and  C_19
REMARK    3  A    between atoms: C_15  and  N_18
REMARK                            x       y       z     vdW  Elec       q    Type
REMARK                         _______ _______ _______ _____ _____    ______ ____
ROOT
ATOM      1  C   UNL     1      -0.250   1.518   0.255  0.00  0.00    +0.033 C 
ATOM      2  C   UNL     1      -0.122  -0.001   0.124  0.00  0.00    +0.103 C 
ATOM      3  C   UNL     1      -1.482  -0.657   0.355  0.00  0.00    -0.017 A 
ATOM      4  C   UNL     1      -2.655  -0.218  -0.256  0.00  0.00    +0.013 A 
ATOM      5  C   UNL     1      -3.825  -0.850  -0.008  0.00  0.00    +0.046 A 
ATOM      6  S   UNL     1      -3.317  -2.130   1.131  0.00  0.00    -0.101 S 
ATOM      7  C   UNL     1      -1.592  -1.725   1.192  0.00  0.00    -0.004 A 
ATOM      8  C   UNL     1      -0.509  -2.392   1.977  0.00  0.00    +0.061 C 
ATOM      9  C   UNL     1       0.851  -1.958   1.407  0.00  0.00    +0.112 C 
ATOM     10  N   UNL     1       0.803  -0.512   1.145  0.00  0.00    -0.307 N 
ATOM     11  C   UNL     1       1.619   0.357   1.852  0.00  0.00    +0.134 A 
ATOM     12  C   UNL     1       2.917   0.628   1.388  0.00  0.00    +0.078 A 
ATOM     13  C   UNL     1       3.724   1.509   2.117  0.00  0.00    +0.040 A 
ATOM     14  C   UNL     1       3.203   2.078   3.272  0.00  0.00    +0.044 A 
ATOM     15  C   UNL     1       1.909   1.760   3.664  0.00  0.00    +0.135 A 
ATOM     16  N   UNL     1       1.166   0.930   2.956  0.00  0.00    -0.238 NA
ENDROOT
BRANCH  12  17
ATOM     17  C   UNL     1       3.420  -0.005   0.156  0.00  0.00    +0.245 C 
ATOM     18  O   UNL     1       2.678  -0.691  -0.522  0.00  0.00    -0.270 OA
ATOM     19  N   UNL     1       4.702   0.175  -0.220  0.00  0.00    -0.325 N 
ATOM     20  H   UNL     1       5.293   0.721   0.321  0.00  0.00    +0.145 HD
ATOM     21  H   UNL     1       5.033  -0.242  -1.031  0.00  0.00    +0.145 HD
ENDBRANCH  12  17
BRANCH  14  22
ATOM     22  N   UNL     1       3.974   2.965   4.033  0.00  0.00    -0.357 N 
ATOM     23  H   UNL     1       4.877   3.184   3.755  0.00  0.00    +0.142 HD
ATOM     24  H   UNL     1       3.605   3.360   4.839  0.00  0.00    +0.142 HD
ENDBRANCH  14  22
TORSDOF 2
