REMARK  Name = ZINC12836352
REMARK  8 active torsions:
REMARK  status: ('A' for Active; 'I' for Inactive)
REMARK    1  A    between atoms: C_1  and  C_2
REMARK    2  A    between atoms: C_3  and  C_8
REMARK    3  A    between atoms: N_6  and  C_7
REMARK    4  A    between atoms: C_8  and  N_59
REMARK    5  A    between atoms: C_9  and  N_59
REMARK    6  A    between atoms: C_12  and  C_27
REMARK    7  A    between atoms: C_12  and  C_28
REMARK    8  A    between atoms: C_23  and  O_26
REMARK                            x       y       z     vdW  Elec       q    Type
REMARK                         _______ _______ _______ _____ _____    ______ ____
ROOT
ATOM      1  C   UNL     1      -2.963   3.150   1.554  0.00  0.00    -0.037 C 
ATOM      2  C   UNL     1      -2.969   3.737   2.965  0.00  0.00    -0.005 C 
ATOM      3  C   UNL     1      -4.313   4.438   3.195  0.00  0.00    -0.031 C 
ATOM      4  C   UNL     1      -5.406   3.374   3.286  0.00  0.00    +0.062 C 
ATOM      5  C   UNL     1      -5.327   2.437   2.111  0.00  0.00    +0.048 A 
ATOM      6  C   UNL     1      -4.202   2.330   1.322  0.00  0.00    -0.022 A 
ATOM      7  C   UNL     1      -4.215   1.427   0.265  0.00  0.00    +0.118 A 
ATOM      8  N   UNL     1      -5.298   0.702   0.044  0.00  0.00    -0.223 NA
ATOM      9  C   UNL     1      -6.365   0.832   0.819  0.00  0.00    +0.218 A 
ATOM     10  N   UNL     1      -6.383   1.681   1.833  0.00  0.00    -0.219 NA
ATOM     11  N   UNL     1      -7.486   0.062   0.561  0.00  0.00    -0.299 N 
ATOM     12  C   UNL     1      -8.673   0.905   0.375  0.00  0.00    +0.110 C 
ATOM     13  C   UNL     1      -9.913   0.020   0.238  0.00  0.00    +0.050 C 
ATOM     14  C   UNL     1      -9.736  -0.916  -0.961  0.00  0.00    +0.118 C 
ATOM     15  C   UNL     1      -8.467  -1.749  -0.765  0.00  0.00    +0.050 C 
ATOM     16  C   UNL     1      -7.268  -0.812  -0.599  0.00  0.00    +0.110 C 
ATOM     17  C   UNL     1      -4.608   5.379   2.025  0.00  0.00    +0.011 C 
ATOM     18  C   UNL     1      -4.264   5.238   4.498  0.00  0.00    +0.011 C 
ENDROOT
BRANCH   1  19
ATOM     19  N   UNL     1      -1.778   2.287   1.389  0.00  0.00    +0.386 N 
ATOM     20  H   UNL     1      -1.582   1.807   2.275  0.00  0.00    -0.085 HD
ATOM     21  H   UNL     1      -1.966   1.591   0.657  0.00  0.00    -0.085 HD
BRANCH  19  22
ATOM     22  C   UNL     1      -0.606   3.095   1.003  0.00  0.00    -0.043 C 
BRANCH  22  25
ATOM     23  C   UNL     1       0.194   1.160  -1.320  0.00  0.00    +0.065 C 
ATOM     24  C   UNL     1       0.960   1.375  -0.041  0.00  0.00    +0.037 A 
ATOM     25  C   UNL     1       0.613   2.211   0.966  0.00  0.00    -0.024 A 
ATOM     26  C   UNL     1       1.589   2.112   1.962  0.00  0.00    +0.136 A 
ATOM     27  N   UNL     1       2.490   1.249   1.569  0.00  0.00    -0.179 NA
ATOM     28  N   UNL     1       2.114   0.769   0.307  0.00  0.00    -0.271 N 
ATOM     29  C   UNL     1       2.846  -0.216  -0.493  0.00  0.00    +0.172 C 
ENDBRANCH  22  25
ENDBRANCH  19  22
ENDBRANCH   1  19
BRANCH  14  30
ATOM     30  O   UNL     1     -10.867  -1.784  -1.060  0.00  0.00    -0.392 OA
ATOM     31  H   UNL     1     -11.707  -1.323  -1.185  0.00  0.00    +0.210 HD
ENDBRANCH  14  30
TORSDOF 4
