REMARK  Name = ZINC22780164
REMARK  4 active torsions:
REMARK  status: ('A' for Active; 'I' for Inactive)
REMARK    1  A    between atoms: C_8  and  C_12
REMARK    2  A    between atoms: C_12  and  N_13
REMARK    3  A    between atoms: N_16  and  C_19
REMARK    4  A    between atoms: C_19  and  C_20
REMARK                            x       y       z     vdW  Elec       q    Type
REMARK                         _______ _______ _______ _____ _____    ______ ____
ROOT
ATOM      1  N   UNL     1       1.802  -4.789   1.167  0.00  0.00    -0.300 NA
ATOM      2  C   UNL     1       0.354  -4.548   1.231  0.00  0.00    +0.066 C 
ATOM      3  C   UNL     1      -0.201  -5.136   2.530  0.00  0.00    -0.063 C 
ATOM      4  N   UNL     1       0.075  -6.578   2.573  0.00  0.00    +0.384 N 
ATOM      5  C   UNL     1       1.526  -6.802   2.533  0.00  0.00    -0.063 C 
ATOM      6  C   UNL     1       2.096  -6.228   1.234  0.00  0.00    +0.066 C 
ATOM      7  H   UNL     1      -0.356  -7.027   1.778  0.00  0.00    -0.081 HD
ENDROOT
BRANCH   1   8
ATOM      8  C   UNL     1       2.384  -4.189  -0.041  0.00  0.00    +0.137 C 
BRANCH   8  16
ATOM      9  C   UNL     1       7.443  -1.999   2.438  0.00  0.00    +0.005 A 
ATOM     10  C   UNL     1       8.346  -2.714   1.639  0.00  0.00    +0.018 A 
ATOM     11  C   UNL     1       7.890  -3.559   0.688  0.00  0.00    +0.096 A 
ATOM     12  N   UNL     1       6.553  -3.729   0.491  0.00  0.00    -0.270 N 
ATOM     13  C   UNL     1       5.648  -3.047   1.254  0.00  0.00    +0.118 A 
ATOM     14  C   UNL     1       6.103  -2.162   2.249  0.00  0.00    +0.045 A 
ATOM     15  N   UNL     1       4.339  -3.208   1.068  0.00  0.00    -0.343 N 
ATOM     16  C   UNL     1       3.871  -4.030   0.143  0.00  0.00    +0.037 A 
ATOM     17  C   UNL     1       4.745  -4.743  -0.655  0.00  0.00    +0.093 A 
ATOM     18  C   UNL     1       6.122  -4.579  -0.466  0.00  0.00    +0.258 A 
ATOM     19  O   UNL     1       6.920  -5.194  -1.155  0.00  0.00    -0.267 OA
ATOM     20  H   UNL     1       3.716  -2.712   1.623  0.00  0.00    +0.167 HD
ENDBRANCH   8  16
ENDBRANCH   1   8
BRANCH   4  21
ATOM     21  C   UNL     1      -0.474  -7.145   3.812  0.00  0.00    -0.043 C 
BRANCH  21  22
ATOM     22  C   UNL     1      -0.300  -8.642   3.799  0.00  0.00    -0.060 A 
ATOM     23  C   UNL     1      -1.287  -9.447   3.260  0.00  0.00    +0.005 A 
ATOM     24  C   UNL     1      -1.131 -10.820   3.246  0.00  0.00    +0.050 A 
ATOM     25  C   UNL     1       0.014 -11.394   3.773  0.00  0.00    +0.166 A 
ATOM     26  C   UNL     1       1.008 -10.583   4.317  0.00  0.00    +0.166 A 
ATOM     27  C   UNL     1       0.848  -9.207   4.322  0.00  0.00    +0.051 A 
ATOM     28  O   UNL     1       2.023 -11.378   4.765  0.00  0.00    -0.453 OA
ATOM     29  C   UNL     1       1.461 -12.701   4.862  0.00  0.00    +0.466 C 
ATOM     30  O   UNL     1       0.407 -12.697   3.881  0.00  0.00    -0.453 OA
ENDBRANCH  21  22
ENDBRANCH   4  21
TORSDOF 4
