REMARK  Name = ZINC38704341
REMARK  8 active torsions:
REMARK  status: ('A' for Active; 'I' for Inactive)
REMARK    1  A    between atoms: C_1  and  C_2
REMARK    2  A    between atoms: C_4  and  C_10
REMARK    3  A    between atoms: C_5  and  O_9
REMARK    4  A    between atoms: C_7  and  C_8
REMARK    5  A    between atoms: C_13  and  C_15
REMARK    6  A    between atoms: N_17  and  C_18
REMARK    7  A    between atoms: C_20  and  C_29
REMARK    8  A    between atoms: N_31  and  C_32
REMARK                            x       y       z     vdW  Elec       q    Type
REMARK                         _______ _______ _______ _____ _____    ______ ____
ROOT
ATOM      1  C   UNL     1      -0.471  -3.699  -6.167  0.00  0.00    +0.261 C 
ATOM      2  O   UNL     1      -0.982  -2.812  -6.824  0.00  0.00    -0.269 OA
ATOM      3  N   UNL     1       0.070  -4.768  -6.784  0.00  0.00    -0.294 N 
ATOM      4  H   UNL     1       0.478  -5.476  -6.260  0.00  0.00    +0.150 HD
ENDROOT
BRANCH   3   5
ATOM      5  C   UNL     1       0.043  -4.862  -8.245  0.00  0.00    +0.167 C 
ATOM      6  C   UNL     1       1.174  -5.735  -8.759  0.00  0.00    +0.045 C 
ATOM      7  C   UNL     1       1.908  -5.298  -9.750  0.00  0.00    -0.046 C 
ATOM      8  C   UNL     1       3.148  -6.000 -10.306  0.00  0.00    +0.032 C 
ATOM      9  C   UNL     1       3.494  -5.293 -11.620  0.00  0.00    +0.004 C 
ATOM     10  C   UNL     1       3.802  -3.818 -11.409  0.00  0.00    +0.002 C 
ATOM     11  C   UNL     1       2.861  -3.150 -10.410  0.00  0.00    +0.018 C 
ATOM     12  C   UNL     1       1.546  -3.930 -10.346  0.00  0.00    +0.075 C 
ATOM     13  S   UNL     1       0.468  -3.243  -9.024  0.00  0.00    -0.126 S 
BRANCH   6  14
ATOM     14  C   UNL     1       1.440  -7.048  -8.152  0.00  0.00    +0.242 C 
ATOM     15  O   UNL     1       2.414  -7.690  -8.495  0.00  0.00    -0.270 OA
ATOM     16  N   UNL     1       0.605  -7.540  -7.216  0.00  0.00    -0.315 N 
ATOM     17  C   UNL     1       0.926  -8.796  -6.534  0.00  0.00    +0.128 C 
ATOM     18  H   UNL     1      -0.209  -7.062  -6.993  0.00  0.00    +0.149 HD
ENDBRANCH   6  14
ENDBRANCH   3   5
BRANCH   1  22
ATOM     19  C   UNL     1      -0.658  -2.983  -2.443  0.00  0.00    +0.080 C 
ATOM     20  N   UNL     1      -0.050  -4.133  -2.635  0.00  0.00    -0.153 NA
ATOM     21  N   UNL     1       0.063  -4.466  -3.861  0.00  0.00    -0.148 NA
ATOM     22  C   UNL     1      -0.444  -3.605  -4.704  0.00  0.00    +0.131 C 
ATOM     23  C   UNL     1      -1.004  -2.489  -3.838  0.00  0.00    +0.120 C 
BRANCH  19  27
ATOM     24  C   UNL     1      -2.594   0.842   0.092  0.00  0.00    +0.044 C 
ATOM     25  C   UNL     1      -1.876  -0.483   0.065  0.00  0.00    -0.047 A 
ATOM     26  C   UNL     1      -1.611  -1.094  -1.140  0.00  0.00    +0.017 A 
ATOM     27  C   UNL     1      -0.943  -2.326  -1.166  0.00  0.00    +0.040 A 
ATOM     28  C   UNL     1      -0.550  -2.927   0.044  0.00  0.00    +0.126 A 
ATOM     29  C   UNL     1      -0.827  -2.294   1.245  0.00  0.00    +0.049 A 
ATOM     30  C   UNL     1      -1.481  -1.077   1.253  0.00  0.00    -0.044 A 
ATOM     31  C   UNL     1      -1.773  -0.394   2.564  0.00  0.00    +0.044 C 
BRANCH  28  32
ATOM     32  O   UNL     1       0.097  -4.119   0.034  0.00  0.00    -0.506 OA
ATOM     33  H   UNL     1       1.060  -4.044  -0.012  0.00  0.00    +0.292 HD
ENDBRANCH  28  32
ENDBRANCH  19  27
ENDBRANCH   1  22
TORSDOF 5
