REMARK  Name = ZINC59158062
REMARK  11 active torsions:
REMARK  status: ('A' for Active; 'I' for Inactive)
REMARK    1  A    between atoms: C_1  and  C_2
REMARK    2  A    between atoms: C_5  and  N_9
REMARK    3  A    between atoms: C_6  and  C_8
REMARK    4  A    between atoms: C_10  and  C_29
REMARK    5  A    between atoms: C_11  and  C_15
REMARK    6  A    between atoms: C_12  and  C_14
REMARK    7  A    between atoms: N_16  and  N_17
REMARK    8  A    between atoms: C_18  and  C_20
REMARK    9  A    between atoms: C_24  and  C_28
REMARK   10  A    between atoms: C_25  and  O_26
REMARK   11  A    between atoms: O_26  and  C_27
REMARK                            x       y       z     vdW  Elec       q    Type
REMARK                         _______ _______ _______ _____ _____    ______ ____
ROOT
ATOM      1  N   UNL     1       0.213  -4.147  -0.111  0.00  0.00    -0.236 N 
ATOM      2  C   UNL     1       0.179  -4.892  -1.237  0.00  0.00    +0.051 A 
ATOM      3  C   UNL     1       0.297  -6.213  -0.860  0.00  0.00    +0.038 A 
ATOM      4  C   UNL     1       0.405  -6.239   0.548  0.00  0.00    +0.069 A 
ATOM      5  N   UNL     1       0.359  -5.008   0.983  0.00  0.00    -0.171 NA
ATOM      6  C   UNL     1       0.552  -7.472   1.401  0.00  0.00    +0.068 C 
ATOM      7  C   UNL     1       0.038  -4.375  -2.645  0.00  0.00    +0.066 C 
ENDROOT
BRANCH   1  12
ATOM      8  C   UNL     1      -0.152   1.511   0.138  0.00  0.00    +0.044 C 
ATOM      9  C   UNL     1      -0.055   0.008   0.072  0.00  0.00    -0.050 A 
ATOM     10  C   UNL     1       0.818  -0.588  -0.820  0.00  0.00    +0.005 A 
ATOM     11  C   UNL     1       0.909  -1.965  -0.883  0.00  0.00    +0.028 A 
ATOM     12  C   UNL     1       0.123  -2.750  -0.049  0.00  0.00    +0.069 A 
ATOM     13  C   UNL     1      -0.751  -2.148   0.845  0.00  0.00    -0.025 A 
ATOM     14  C   UNL     1      -0.834  -0.771   0.907  0.00  0.00    +0.008 A 
ATOM     15  C   UNL     1      -1.606  -2.997   1.752  0.00  0.00    +0.046 C 
ENDBRANCH   1  12
BRANCH   3  16
ATOM     16  C   UNL     1       0.309  -7.382  -1.759  0.00  0.00    +0.142 C 
ATOM     17  N   UNL     1       0.427  -8.577  -1.269  0.00  0.00    -0.187 NA
BRANCH  17  18
ATOM     18  N   UNL     1       0.438  -9.688  -2.123  0.00  0.00    -0.203 N 
ATOM     19  C   UNL     1       0.561 -10.929  -1.613  0.00  0.00    +0.267 C 
ATOM     20  O   UNL     1       0.662 -11.086  -0.411  0.00  0.00    -0.268 OA
ATOM     21  H   UNL     1       0.357  -9.562  -3.082  0.00  0.00    +0.178 HD
BRANCH  19  22
ATOM     22  C   UNL     1       0.573 -12.098  -2.513  0.00  0.00    +0.080 A 
ATOM     23  C   UNL     1       0.462 -11.922  -3.895  0.00  0.00    +0.017 A 
ATOM     24  C   UNL     1       0.474 -13.018  -4.730  0.00  0.00    +0.001 A 
ATOM     25  C   UNL     1       0.594 -14.295  -4.205  0.00  0.00    +0.007 A 
ATOM     26  C   UNL     1       0.704 -14.483  -2.842  0.00  0.00    -0.008 A 
ATOM     27  C   UNL     1       0.700 -13.391  -1.987  0.00  0.00    +0.135 A 
ATOM     28  C   UNL     1       0.834 -15.876  -2.283  0.00  0.00    +0.047 C 
BRANCH  27  29
ATOM     29  O   UNL     1       0.814 -13.573  -0.648  0.00  0.00    -0.494 OA
ATOM     30  C   UNL     1      -0.399 -13.747   0.089  0.00  0.00    +0.277 C 
ENDBRANCH  27  29
ENDBRANCH  19  22
ENDBRANCH  17  18
ENDBRANCH   3  16
TORSDOF 5
