REMARK  Name = ZINC45621752
REMARK  8 active torsions:
REMARK  status: ('A' for Active; 'I' for Inactive)
REMARK    1  A    between atoms: C_1  and  C_2
REMARK    2  A    between atoms: C_5  and  S_20
REMARK    3  A    between atoms: C_7  and  C_8
REMARK    4  A    between atoms: N_10  and  C_11
REMARK    5  A    between atoms: C_14  and  N_18
REMARK    6  A    between atoms: S_20  and  N_23
REMARK    7  A    between atoms: N_23  and  C_24
REMARK    8  A    between atoms: C_24  and  C_25
REMARK                            x       y       z     vdW  Elec       q    Type
REMARK                         _______ _______ _______ _____ _____    ______ ____
ROOT
ATOM      1  C   UNL     1       0.058   1.546   0.030  0.00  0.00    +0.044 C 
ATOM      2  C   UNL     1       0.127   0.041  -0.002  0.00  0.00    -0.038 A 
ATOM      3  C   UNL     1       0.022  -0.631  -1.202  0.00  0.00    +0.006 A 
ATOM      4  C   UNL     1       0.086  -2.012  -1.234  0.00  0.00    +0.029 A 
ATOM      5  C   UNL     1       0.255  -2.730  -0.062  0.00  0.00    +0.106 A 
ATOM      6  C   UNL     1       0.361  -2.071   1.145  0.00  0.00    +0.041 A 
ATOM      7  C   UNL     1       0.304  -0.676   1.182  0.00  0.00    +0.042 A 
ENDROOT
BRANCH   7   8
ATOM      8  C   UNL     1       0.423   0.037   2.471  0.00  0.00    +0.249 C 
ATOM      9  O   UNL     1       0.489   1.251   2.491  0.00  0.00    -0.270 OA
ATOM     10  N   UNL     1       0.460  -0.658   3.625  0.00  0.00    -0.281 N 
ATOM     11  H   UNL     1       0.483  -1.628   3.607  0.00  0.00    +0.155 HD
BRANCH  10  12
ATOM     12  C   UNL     1       0.463   0.019   4.851  0.00  0.00    +0.037 A 
ATOM     13  C   UNL     1       1.171  -0.498   5.928  0.00  0.00    +0.045 A 
ATOM     14  C   UNL     1       1.175   0.170   7.138  0.00  0.00    +0.065 A 
ATOM     15  C   UNL     1       0.472   1.360   7.276  0.00  0.00    +0.062 A 
ATOM     16  C   UNL     1      -0.236   1.878   6.198  0.00  0.00    +0.065 A 
ATOM     17  C   UNL     1      -0.235   1.212   4.988  0.00  0.00    +0.045 A 
ATOM     18 CL   UNL     1      -1.115   3.365   6.370  0.00  0.00    -0.082 Cl
ATOM     19 CL   UNL     1       2.059  -0.478   8.484  0.00  0.00    -0.082 Cl
BRANCH  15  20
ATOM     20  N   UNL     1       0.475   2.038   8.502  0.00  0.00    -0.356 N 
ATOM     21  H   UNL     1       0.969   1.676   9.254  0.00  0.00    +0.142 HD
ATOM     22  H   UNL     1      -0.016   2.869   8.598  0.00  0.00    +0.142 HD
ENDBRANCH  15  20
ENDBRANCH  10  12
ENDBRANCH   7   8
BRANCH   5  23
ATOM     23  S   UNL     1       0.334  -4.489  -0.113  0.00  0.00    +0.059 S 
ATOM     24  O   UNL     1      -0.051  -4.950   1.175  0.00  0.00    -0.153 OA
ATOM     25  O   UNL     1      -0.338  -4.892  -1.298  0.00  0.00    -0.153 OA
BRANCH  23  26
ATOM     26  N   UNL     1       1.926  -4.902  -0.307  0.00  0.00    -0.183 NA
ATOM     27  H   UNL     1       2.215  -5.349  -1.118  0.00  0.00    +0.148 HD
BRANCH  26  28
ATOM     28  C   UNL     1       2.897  -4.593   0.745  0.00  0.00    +0.180 C 
BRANCH  28  29
ATOM     29  C   UNL     1       4.162  -5.376   0.507  0.00  0.00    +0.120 A 
ATOM     30  C   UNL     1       5.218  -4.963  -0.217  0.00  0.00    +0.046 A 
ATOM     31  C   UNL     1       6.175  -6.004  -0.176  0.00  0.00    +0.041 A 
ATOM     32  C   UNL     1       5.646  -6.990   0.570  0.00  0.00    +0.195 A 
ATOM     33  O   UNL     1       4.429  -6.602   0.986  0.00  0.00    -0.466 OA
ENDBRANCH  28  29
ENDBRANCH  26  28
ENDBRANCH  23  26
ENDBRANCH   5  23
TORSDOF 7
