REMARK  Name = ZINC22589476
REMARK  10 active torsions:
REMARK  status: ('A' for Active; 'I' for Inactive)
REMARK    1  A    between atoms: C_4  and  C_7
REMARK    2  A    between atoms: C_7  and  O_8
REMARK    3  A    between atoms: O_8  and  C_9
REMARK    4  A    between atoms: C_12  and  C_18
REMARK    5  A    between atoms: C_14  and  C_15
REMARK    6  A    between atoms: C_18  and  C_20
REMARK    7  A    between atoms: C_18  and  O_34
REMARK    8  A    between atoms: C_20  and  N_21
REMARK    9  A    between atoms: N_21  and  C_22
REMARK   10  A    between atoms: C_22  and  C_23
REMARK                            x       y       z     vdW  Elec       q    Type
REMARK                         _______ _______ _______ _____ _____    ______ ____
ROOT
ATOM      1  C   UNL     1       2.088  -1.407   3.471  0.00  0.00    +0.133 A 
ATOM      2  C   UNL     1       2.489  -0.241   2.836  0.00  0.00    +0.047 A 
ATOM      3  C   UNL     1       1.816   0.204   1.716  0.00  0.00    +0.010 A 
ATOM      4  C   UNL     1       0.731  -0.503   1.223  0.00  0.00    -0.020 A 
ATOM      5  C   UNL     1       0.319  -1.664   1.841  0.00  0.00    +0.022 A 
ATOM      6  C   UNL     1       0.994  -2.128   2.972  0.00  0.00    +0.078 A 
ENDROOT
BRANCH   6   7
ATOM      7  C   UNL     1       0.559  -3.370   3.639  0.00  0.00    +0.245 C 
ATOM      8  O   UNL     1       1.149  -3.771   4.623  0.00  0.00    -0.270 OA
ATOM      9  N   UNL     1      -0.493  -4.061   3.156  0.00  0.00    -0.325 N 
ATOM     10  H   UNL     1      -0.818  -4.987   3.652  0.00  0.00    +0.145 HD
ATOM     11  H   UNL     1      -1.027  -3.698   2.265  0.00  0.00    +0.145 HD
ENDBRANCH   6   7
BRANCH   1  12
ATOM     12  O   UNL     1       2.751  -1.848   4.569  0.00  0.00    -0.487 OA
BRANCH  12  13
ATOM     13  C   UNL     1       3.855  -1.061   5.019  0.00  0.00    +0.264 C 
BRANCH  13  17
ATOM     14  C   UNL     1       5.579  -2.874   8.481  0.00  0.00    +0.000 A 
ATOM     15  C   UNL     1       6.037  -3.215   7.222  0.00  0.00    +0.000 A 
ATOM     16  C   UNL     1       5.479  -2.628   6.102  0.00  0.00    +0.007 A 
ATOM     17  C   UNL     1       4.463  -1.701   6.241  0.00  0.00    -0.010 A 
ATOM     18  C   UNL     1       4.010  -1.356   7.500  0.00  0.00    +0.007 A 
ATOM     19  C   UNL     1       4.564  -1.947   8.620  0.00  0.00    +0.000 A 
ENDBRANCH  13  17
ENDBRANCH  12  13
ENDBRANCH   1  12
BRANCH   4  20
ATOM     20  C   UNL     1       0.002  -0.004   0.002  0.00  0.00    +0.128 C 
BRANCH  20  21
ATOM     21  O   UNL     1      -0.017   1.425   0.010  0.00  0.00    -0.389 OA
ATOM     22  H   UNL     1      -0.509   1.973  -0.807  0.00  0.00    +0.210 HD
ENDBRANCH  20  21
BRANCH  20  23
ATOM     23  C   UNL     1       0.718  -0.497  -1.257  0.00  0.00    -0.046 C 
BRANCH  23  24
ATOM     24  N   UNL     1       0.008  -0.011  -2.447  0.00  0.00    +0.383 N 
ATOM     25  H   UNL     1      -1.024  -0.392  -2.439  0.00  0.00    -0.086 HD
ATOM     26  H   UNL     1      -0.007   1.089  -2.441  0.00  0.00    -0.086 HD
BRANCH  24  27
ATOM     27  C   UNL     1       0.668  -0.466  -3.677  0.00  0.00    -0.046 C 
BRANCH  27  28
ATOM     28  C   UNL     1      -0.099   0.059  -4.893  0.00  0.00    +0.132 C 
ATOM     29  C   UNL     1       0.586  -0.403  -6.153  0.00  0.00    -0.017 A 
ATOM     30  C   UNL     1       1.970  -0.317  -6.226  0.00  0.00    +0.006 A 
ATOM     31  C   UNL     1       2.633  -0.725  -7.366  0.00  0.00    +0.000 A 
ATOM     32  C   UNL     1       1.916  -1.218  -8.441  0.00  0.00    +0.000 A 
ATOM     33  C   UNL     1       0.540  -1.302  -8.368  0.00  0.00    +0.004 A 
ATOM     34  C   UNL     1      -0.126  -0.894  -7.224  0.00  0.00    -0.040 A 
ATOM     35  C   UNL     1      -1.629  -1.004  -7.181  0.00  0.00    +0.063 C 
ATOM     36  C   UNL     1      -2.179  -0.139  -6.045  0.00  0.00    +0.165 C 
ATOM     37  O   UNL     1      -1.438  -0.431  -4.854  0.00  0.00    -0.374 OA
ENDBRANCH  27  28
ENDBRANCH  24  27
ENDBRANCH  23  24
ENDBRANCH  20  23
ENDBRANCH   4  20
TORSDOF 10
