REMARK  Name = ZINC23465852
REMARK  9 active torsions:
REMARK  status: ('A' for Active; 'I' for Inactive)
REMARK    1  A    between atoms: C_1  and  C_2
REMARK    2  A    between atoms: C_2  and  O_3
REMARK    3  A    between atoms: O_3  and  C_4
REMARK    4  A    between atoms: C_4  and  C_6
REMARK    5  A    between atoms: C_7  and  C_14
REMARK    6  A    between atoms: C_14  and  N_15
REMARK    7  A    between atoms: C_20  and  C_24
REMARK    8  A    between atoms: C_24  and  C_25
REMARK    9  A    between atoms: C_24  and  C_26
REMARK                            x       y       z     vdW  Elec       q    Type
REMARK                         _______ _______ _______ _____ _____    ______ ____
ROOT
ATOM      1  C   UNL     1       2.532  -0.318  -0.036  0.00  0.00    +0.140 C 
ENDROOT
BRANCH   1   2
ATOM      2  N   UNL     1       3.199  -0.726   1.207  0.00  0.00    -0.292 NA
ATOM      3  C   UNL     1       2.607  -0.049   2.369  0.00  0.00    +0.091 C 
ATOM      4  C   UNL     1       3.033  -0.767   3.657  0.00  0.00    +0.070 C 
ATOM      5  C   UNL     1       4.529  -0.956   3.608  0.00  0.00    +0.042 A 
ATOM      6  C   UNL     1       5.257  -0.830   2.467  0.00  0.00    +0.010 A 
ATOM      7  C   UNL     1       6.592  -1.065   2.782  0.00  0.00    +0.070 A 
ATOM      8  N   UNL     1       6.667  -1.324   4.066  0.00  0.00    -0.178 NA
ATOM      9  N   UNL     1       5.372  -1.261   4.604  0.00  0.00    -0.281 N 
ATOM     10  H   UNL     1       4.988  -1.411   5.624  0.00  0.00    +0.189 HD
ATOM     11  C   UNL     1       4.651  -0.493   1.128  0.00  0.00    +0.123 C 
BRANCH   7  12
ATOM     12  C   UNL     1       7.749  -1.026   1.818  0.00  0.00    +0.034 C 
ATOM     13  C   UNL     1       8.751   0.040   2.265  0.00  0.00    +0.014 C 
ATOM     14  C   UNL     1       8.436  -2.393   1.791  0.00  0.00    +0.014 C 
ENDBRANCH   7  12
ENDBRANCH   1   2
BRANCH   1  16
ATOM     15  C   UNL     1       0.002  -0.004   0.002  0.00  0.00    +0.149 A 
ATOM     16  C   UNL     1       1.101  -0.792  -0.018  0.00  0.00    +0.065 A 
ATOM     17  N   UNL     1       0.684  -2.096  -0.015  0.00  0.00    -0.308 N 
ATOM     18  H   UNL     1       1.424  -2.910  -0.023  0.00  0.00    +0.170 HD
ATOM     19  C   UNL     1      -0.661  -2.119  -0.003  0.00  0.00    +0.325 A 
ATOM     20  O   UNL     1      -1.355  -3.119  -0.003  0.00  0.00    -0.247 OA
ATOM     21  N   UNL     1      -1.113  -0.849   0.008  0.00  0.00    -0.301 N 
ATOM     22  H   UNL     1      -2.126  -0.422   0.019  0.00  0.00    +0.171 HD
BRANCH  15  23
ATOM     23  C   UNL     1      -0.018   1.460   0.010  0.00  0.00    +0.358 C 
ATOM     24  O   UNL     1       1.027   2.083   0.003  0.00  0.00    -0.243 OA
BRANCH  23  25
ATOM     25  O   UNL     1      -1.195   2.119   0.019  0.00  0.00    -0.460 OA
BRANCH  25  27
ATOM     26  C   UNL     1      -2.560   4.135   0.037  0.00  0.00    +0.048 C 
ATOM     27  C   UNL     1      -1.139   3.570   0.027  0.00  0.00    +0.229 C 
ENDBRANCH  25  27
ENDBRANCH  23  25
ENDBRANCH  15  23
ENDBRANCH   1  16
TORSDOF 6
