REMARK  Name = ZINC56135152
REMARK  11 active torsions:
REMARK  status: ('A' for Active; 'I' for Inactive)
REMARK    1  A    between atoms: C_1  and  C_2
REMARK    2  A    between atoms: C_2  and  C_3
REMARK    3  A    between atoms: C_2  and  C_4
REMARK    4  A    between atoms: C_2  and  C_5
REMARK    5  A    between atoms: C_8  and  N_11
REMARK    6  A    between atoms: N_11  and  C_12
REMARK    7  A    between atoms: C_13  and  C_15
REMARK    8  A    between atoms: C_15  and  C_16
REMARK    9  A    between atoms: C_15  and  C_17
REMARK   10  A    between atoms: C_15  and  N_18
REMARK   11  A    between atoms: N_21  and  C_22
REMARK                            x       y       z     vdW  Elec       q    Type
REMARK                         _______ _______ _______ _____ _____    ______ ____
ROOT
ATOM      1  N   UNL     1       2.487  -1.520  -5.037  0.00  0.00    -0.273 N 
ATOM      2  C   UNL     1       1.786  -2.196  -6.132  0.00  0.00    +0.138 C 
ATOM      3  C   UNL     1       3.827  -1.379  -5.081  0.00  0.00    +0.243 C 
ATOM      4  O   UNL     1       4.414  -0.868  -4.151  0.00  0.00    -0.273 OA
ENDROOT
BRANCH   1   8
ATOM      5  C   UNL     1       0.341  -0.035  -1.790  0.00  0.00    -0.042 A 
ATOM      6  C   UNL     1      -0.331  -0.537  -2.890  0.00  0.00    +0.006 A 
ATOM      7  C   UNL     1       0.378  -1.030  -3.968  0.00  0.00    +0.024 A 
ATOM      8  C   UNL     1       1.766  -1.021  -3.947  0.00  0.00    +0.036 A 
ATOM      9  C   UNL     1       2.438  -0.516  -2.841  0.00  0.00    +0.024 A 
ATOM     10  C   UNL     1       1.724  -0.020  -1.769  0.00  0.00    +0.006 A 
BRANCH   5  12
ATOM     11  C   UNL     1      -0.085   1.976  -0.404  0.00  0.00    +0.015 C 
ATOM     12  C   UNL     1      -0.436   0.502  -0.616  0.00  0.00    -0.013 C 
ATOM     13  C   UNL     1      -0.076  -0.294   0.640  0.00  0.00    +0.015 C 
ATOM     14  C   UNL     1      -1.935   0.369  -0.892  0.00  0.00    +0.015 C 
ENDBRANCH   5  12
ENDBRANCH   1   8
BRANCH   3  15
ATOM     15  C   UNL     1       4.596  -1.857  -6.286  0.00  0.00    +0.107 C 
ATOM     16  C   UNL     1       4.225  -1.002  -7.499  0.00  0.00    +0.041 C 
ATOM     17  C   UNL     1       6.097  -1.734  -6.015  0.00  0.00    +0.041 C 
BRANCH  15  18
ATOM     18  N   UNL     1       4.262  -3.258  -6.555  0.00  0.00    -0.286 N 
ATOM     19  C   UNL     1       4.810  -3.890  -7.611  0.00  0.00    +0.300 C 
ATOM     20  O   UNL     1       5.581  -3.298  -8.341  0.00  0.00    -0.253 OA
ATOM     21  N   UNL     1       4.503  -5.179  -7.859  0.00  0.00    -0.302 N 
ATOM     22  C   UNL     1       5.098  -5.867  -9.007  0.00  0.00    +0.129 C 
ATOM     23  H   UNL     1       3.647  -3.730  -5.972  0.00  0.00    +0.151 HD
ATOM     24  H   UNL     1       3.887  -5.651  -7.276  0.00  0.00    +0.150 HD
ENDBRANCH  15  18
ENDBRANCH   3  15
TORSDOF 4
