REMARK  Name = ZINC67576553
REMARK  5 active torsions:
REMARK  status: ('A' for Active; 'I' for Inactive)
REMARK    1  A    between atoms: C_1  and  C_2
REMARK    2  A    between atoms: N_4  and  C_5
REMARK    3  A    between atoms: C_8  and  N_12
REMARK    4  A    between atoms: N_15  and  C_16
REMARK    5  A    between atoms: C_16  and  C_17
REMARK                            x       y       z     vdW  Elec       q    Type
REMARK                         _______ _______ _______ _____ _____    ______ ____
ROOT
ATOM      1  N   UNL     1      -0.707  -6.245   0.176  0.00  0.00    -0.268 N 
ATOM      2  C   UNL     1       0.501  -6.819   0.342  0.00  0.00    +0.304 C 
ATOM      3  O   UNL     1       1.503  -6.131   0.364  0.00  0.00    -0.252 OA
ATOM      4  N   UNL     1       0.599  -8.156   0.482  0.00  0.00    -0.295 N 
ATOM      5  H   UNL     1      -1.500  -6.799   0.092  0.00  0.00    +0.156 HD
ATOM      6  H   UNL     1      -0.201  -8.705   0.465  0.00  0.00    +0.151 HD
ENDROOT
BRANCH   1  10
ATOM      7  C   UNL     1      -1.041  -2.090   0.024  0.00  0.00    +0.035 A 
ATOM      8  C   UNL     1       0.077  -2.718  -0.510  0.00  0.00    +0.025 A 
ATOM      9  C   UNL     1       0.187  -4.093  -0.460  0.00  0.00    +0.026 A 
ATOM     10  C   UNL     1      -0.819  -4.849   0.126  0.00  0.00    +0.053 A 
ATOM     11  C   UNL     1      -1.938  -4.222   0.661  0.00  0.00    +0.064 A 
ATOM     12  C   UNL     1      -2.045  -2.845   0.615  0.00  0.00    +0.045 A 
ATOM     13 CL   UNL     1      -3.196  -5.167   1.393  0.00  0.00    -0.082 Cl
BRANCH   7  17
ATOM     14  C   UNL     1      -1.763   1.480   0.981  0.00  0.00    +0.109 C 
ATOM     15  C   UNL     1      -1.734  -0.027   0.988  0.00  0.00    +0.214 C 
ATOM     16  O   UNL     1      -2.235  -0.639   1.908  0.00  0.00    -0.276 OA
ATOM     17  N   UNL     1      -1.152  -0.695  -0.028  0.00  0.00    -0.286 N 
ATOM     18  H   UNL     1      -0.811  -0.209  -0.795  0.00  0.00    +0.155 HD
ENDBRANCH   7  17
ENDBRANCH   1  10
BRANCH   4  19
ATOM     19  C   UNL     1       1.912  -8.780   0.662  0.00  0.00    +0.144 C 
BRANCH  19  20
ATOM     20  C   UNL     1       1.746 -10.271   0.795  0.00  0.00    +0.014 A 
ATOM     21  C   UNL     1       1.765 -10.860   2.044  0.00  0.00    +0.047 A 
ATOM     22  C   UNL     1       1.613 -12.231   2.166  0.00  0.00    +0.124 A 
ATOM     23  C   UNL     1       1.443 -13.012   1.036  0.00  0.00    +0.047 A 
ATOM     24  C   UNL     1       1.425 -12.426  -0.215  0.00  0.00    +0.023 A 
ATOM     25  C   UNL     1       1.568 -11.053  -0.338  0.00  0.00    +0.134 A 
ATOM     26  O   UNL     1       1.538 -10.462  -1.563  0.00  0.00    -0.465 OA
ATOM     27  C   UNL     1       1.716 -11.316  -2.697  0.00  0.00    +0.394 C 
ATOM     28  O   UNL     1       0.866 -12.459  -2.547  0.00  0.00    -0.339 OA
ATOM     29  C   UNL     1       1.243 -13.288  -1.439  0.00  0.00    +0.202 C 
ATOM     30  F   UNL     1       1.631 -12.806   3.389  0.00  0.00    -0.205 F 
ENDBRANCH  19  20
ENDBRANCH   4  19
TORSDOF 4
