REMARK  Name = ZINC35566494
REMARK  10 active torsions:
REMARK  status: ('A' for Active; 'I' for Inactive)
REMARK    1  A    between atoms: C_1  and  C_2
REMARK    2  A    between atoms: C_2  and  O_3
REMARK    3  A    between atoms: O_3  and  C_4
REMARK    4  A    between atoms: C_7  and  C_10
REMARK    5  A    between atoms: C_12  and  C_29
REMARK    6  A    between atoms: C_20  and  C_27
REMARK    7  A    between atoms: C_22  and  C_26
REMARK    8  A    between atoms: C_29  and  C_31
REMARK    9  A    between atoms: C_32  and  C_37
REMARK   10  A    between atoms: C_34  and  C_36
REMARK                            x       y       z     vdW  Elec       q    Type
REMARK                         _______ _______ _______ _____ _____    ______ ____
ROOT
ATOM      1  C   UNL     1      -2.065  -5.799   0.068  0.00  0.00    +0.152 C 
ATOM      2  C   UNL     1      -2.216  -6.540   1.376  0.00  0.00    +0.077 C 
ATOM      3  C   UNL     1      -3.342  -7.284   1.275  0.00  0.00    +0.250 C 
ATOM      4  C   UNL     1      -3.949  -7.068  -0.053  0.00  0.00    +0.293 C 
ATOM      5  O   UNL     1      -4.971  -7.596  -0.447  0.00  0.00    -0.266 OA
ATOM      6  N   UNL     1      -3.205  -6.200  -0.764  0.00  0.00    -0.232 N 
ATOM      7  C   UNL     1      -3.468  -5.762  -2.050  0.00  0.00    +0.169 A 
ATOM      8  N   UNL     1      -4.469  -6.079  -2.839  0.00  0.00    -0.224 NA
ATOM      9  C   UNL     1      -4.601  -5.570  -4.083  0.00  0.00    +0.083 A 
ATOM     10  C   UNL     1      -5.623  -5.827  -5.027  0.00  0.00    -0.024 A 
ATOM     11  C   UNL     1      -5.607  -5.223  -6.257  0.00  0.00    +0.009 A 
ATOM     12  C   UNL     1      -4.597  -4.344  -6.620  0.00  0.00    -0.049 A 
ATOM     13  C   UNL     1      -3.582  -4.070  -5.722  0.00  0.00    +0.020 A 
ATOM     14  C   UNL     1      -3.589  -4.670  -4.487  0.00  0.00    +0.041 A 
ATOM     15  S   UNL     1      -2.537  -4.617  -3.057  0.00  0.00    -0.052 S 
ATOM     16  C   UNL     1      -4.605  -3.695  -7.980  0.00  0.00    +0.044 C 
ATOM     17  C   UNL     1      -6.740  -6.775  -4.677  0.00  0.00    +0.046 C 
ATOM     18  O   UNL     1      -3.833  -8.098   2.239  0.00  0.00    -0.282 OA
ENDROOT
BRANCH   1  22
ATOM     19  C   UNL     1      -2.154  -1.581   0.750  0.00  0.00    +0.121 A 
ATOM     20  C   UNL     1      -0.967  -2.202   0.389  0.00  0.00    +0.046 A 
ATOM     21  C   UNL     1      -0.940  -3.566   0.170  0.00  0.00    +0.009 A 
ATOM     22  C   UNL     1      -2.096  -4.312   0.309  0.00  0.00    -0.022 A 
ATOM     23  C   UNL     1      -3.280  -3.695   0.668  0.00  0.00    +0.009 A 
ATOM     24  C   UNL     1      -3.311  -2.333   0.895  0.00  0.00    +0.046 A 
BRANCH  19  25
ATOM     25  O   UNL     1      -2.182  -0.240   0.967  0.00  0.00    -0.492 OA
BRANCH  25  27
ATOM     26  C   UNL     1      -1.180   1.956   1.085  0.00  0.00    +0.048 C 
ATOM     27  C   UNL     1      -0.953   0.470   0.800  0.00  0.00    +0.225 C 
ENDBRANCH  25  27
ENDBRANCH  19  25
ENDBRANCH   1  22
BRANCH   2  28
ATOM     28  C   UNL     1      -1.317  -6.467   2.533  0.00  0.00    +0.203 C 
ATOM     29  O   UNL     1      -1.712  -5.992   3.583  0.00  0.00    -0.286 OA
BRANCH  28  30
ATOM     30  C   UNL     1       0.058  -6.966   2.426  0.00  0.00    +0.082 A 
ATOM     31  C   UNL     1       1.054  -7.042   3.392  0.00  0.00    +0.057 A 
ATOM     32  N   UNL     1       2.201  -7.540   3.004  0.00  0.00    -0.249 NA
ATOM     33  C   UNL     1       2.395  -7.945   1.769  0.00  0.00    +0.076 A 
ATOM     34  S   UNL     1       0.917  -7.653   1.019  0.00  0.00    -0.069 S 
ATOM     35  C   UNL     1       3.644  -8.537   1.168  0.00  0.00    +0.073 C 
ATOM     36  C   UNL     1       0.828  -6.575   4.807  0.00  0.00    +0.067 C 
ENDBRANCH  28  30
ENDBRANCH   2  28
TORSDOF 5
