REMARK  Name = ZINC50279563
REMARK  4 active torsions:
REMARK  status: ('A' for Active; 'I' for Inactive)
REMARK    1  A    between atoms: C_4  and  C_7
REMARK    2  A    between atoms: C_7  and  C_9
REMARK    3  A    between atoms: C_7  and  O_21
REMARK    4  A    between atoms: C_9  and  N_10
REMARK                            x       y       z     vdW  Elec       q    Type
REMARK                         _______ _______ _______ _____ _____    ______ ____
ROOT
ATOM      1  N   UNL     1       5.358  -1.774  -1.497  0.00  0.00    -0.261 N 
ATOM      2  C   UNL     1       5.352  -3.143  -1.405  0.00  0.00    +0.071 A 
ATOM      3  C   UNL     1       4.168  -3.867  -1.296  0.00  0.00    +0.028 A 
ATOM      4  C   UNL     1       4.217  -5.240  -1.207  0.00  0.00    +0.002 A 
ATOM      5  C   UNL     1       5.432  -5.912  -1.223  0.00  0.00    +0.001 A 
ATOM      6  C   UNL     1       6.607  -5.222  -1.329  0.00  0.00    +0.014 A 
ATOM      7  C   UNL     1       6.580  -3.832  -1.421  0.00  0.00    +0.048 A 
ATOM      8  C   UNL     1       7.807  -3.025  -1.538  0.00  0.00    +0.208 A 
ATOM      9  O   UNL     1       8.913  -3.539  -1.560  0.00  0.00    -0.286 OA
ATOM     10  C   UNL     1       7.635  -1.617  -1.624  0.00  0.00    +0.184 A 
ATOM     11  N   UNL     1       6.442  -1.099  -1.603  0.00  0.00    -0.175 NA
ENDROOT
BRANCH   1  12
ATOM     12  C   UNL     1       4.080  -1.059  -1.480  0.00  0.00    +0.180 C 
BRANCH  12  13
ATOM     13  C   UNL     1       3.711  -0.707  -0.038  0.00  0.00    +0.166 C 
BRANCH  13  17
ATOM     14  C   UNL     1      -0.017   1.378   0.010  0.00  0.00    +0.000 A 
ATOM     15  C   UNL     1       1.171   2.086   0.002  0.00  0.00    +0.000 A 
ATOM     16  C   UNL     1       2.377   1.411  -0.013  0.00  0.00    +0.006 A 
ATOM     17  C   UNL     1       2.396   0.029  -0.020  0.00  0.00    -0.017 A 
ATOM     18  C   UNL     1       1.208  -0.679  -0.012  0.00  0.00    +0.006 A 
ATOM     19  C   UNL     1       0.002  -0.004   0.002  0.00  0.00    +0.000 A 
ENDBRANCH  13  17
BRANCH  13  20
ATOM     20  O   UNL     1       3.596  -1.907   0.731  0.00  0.00    -0.385 OA
ATOM     21  H   UNL     1       2.922  -2.519   0.405  0.00  0.00    +0.210 HD
ENDBRANCH  13  20
ENDBRANCH  12  13
ENDBRANCH   1  12
TORSDOF 4
