REMARK  Name = ZINC19731855
REMARK  9 active torsions:
REMARK  status: ('A' for Active; 'I' for Inactive)
REMARK    1  A    between atoms: C_1  and  C_2
REMARK    2  A    between atoms: C_2  and  C_3
REMARK    3  A    between atoms: C_2  and  N_4
REMARK    4  A    between atoms: C_7  and  N_10
REMARK    5  A    between atoms: N_13  and  C_20
REMARK    6  A    between atoms: C_15  and  C_17
REMARK    7  A    between atoms: C_17  and  C_18
REMARK    8  A    between atoms: C_18  and  O_19
REMARK    9  A    between atoms: C_20  and  C_21
REMARK                            x       y       z     vdW  Elec       q    Type
REMARK                         _______ _______ _______ _____ _____    ______ ____
ROOT
ATOM      1  N   UNL     1      -0.789   1.496  -1.073  0.00  0.00    +0.385 N 
ATOM      2  C   UNL     1      -0.047   0.862   0.026  0.00  0.00    -0.062 C 
ATOM      3  C   UNL     1      -0.645   1.303   1.363  0.00  0.00    +0.066 C 
ATOM      4  N   UNL     1      -0.584   2.768   1.466  0.00  0.00    -0.301 NA
ATOM      5  C   UNL     1      -1.326   3.402   0.367  0.00  0.00    +0.069 C 
ATOM      6  C   UNL     1      -0.727   2.961  -0.971  0.00  0.00    -0.052 C 
ATOM      7  H   UNL     1      -1.843   1.194  -0.989  0.00  0.00    -0.081 HD
ENDROOT
BRANCH   1  11
ATOM      8  N   UNL     1       1.496  -0.644  -3.899  0.00  0.00    -0.300 NA
ATOM      9  C   UNL     1       1.730   0.803  -3.823  0.00  0.00    +0.083 C 
ATOM     10  C   UNL     1       1.206   1.337  -2.488  0.00  0.00    +0.000 C 
ATOM     11  C   UNL     1      -0.292   1.038  -2.377  0.00  0.00    -0.066 C 
ATOM     12  C   UNL     1      -0.515  -0.472  -2.508  0.00  0.00    +0.000 C 
ATOM     13  C   UNL     1       0.061  -0.953  -3.842  0.00  0.00    +0.083 C 
BRANCH   8  15
ATOM     14  C   UNL     1       1.952  -2.736  -5.087  0.00  0.00    +0.024 C 
ATOM     15  C   UNL     1       2.110  -1.215  -5.105  0.00  0.00    +0.050 C 
ATOM     16  C   UNL     1       1.419  -0.646  -6.346  0.00  0.00    +0.024 C 
ENDBRANCH   8  15
ENDBRANCH   1  11
BRANCH   6  17
ATOM     17  C   UNL     1      -1.523   3.587  -2.118  0.00  0.00    +0.014 C 
BRANCH  17  18
ATOM     18  C   UNL     1      -1.391   5.110  -2.058  0.00  0.00    +0.154 C 
BRANCH  18  19
ATOM     19  O   UNL     1      -2.191   5.698  -3.086  0.00  0.00    -0.395 OA
ATOM     20  H   UNL     1      -2.224   6.791  -3.200  0.00  0.00    +0.209 HD
ENDBRANCH  18  19
ENDBRANCH  17  18
ENDBRANCH   6  17
BRANCH   4  21
ATOM     21  C   UNL     1      -1.081   3.226   2.770  0.00  0.00    +0.128 C 
BRANCH  21  22
ATOM     22  C   UNL     1      -0.149   2.754   3.856  0.00  0.00    +0.025 A 
ATOM     23  C   UNL     1       0.945   3.358   4.379  0.00  0.00    +0.125 A 
ATOM     24  N   UNL     1       1.605   2.741   5.340  0.00  0.00    -0.233 NA
ATOM     25  C   UNL     1       1.223   1.557   5.780  0.00  0.00    +0.161 A 
ATOM     26  S   UNL     1      -0.179   1.240   4.805  0.00  0.00    -0.056 S 
ATOM     27  N   UNL     1       1.794   0.768   6.766  0.00  0.00    -0.305 N 
ATOM     28  C   UNL     1       0.815   0.445   7.815  0.00  0.00    +0.135 C 
ATOM     29  C   UNL     1       1.469  -0.475   8.850  0.00  0.00    +0.179 C 
ATOM     30  O   UNL     1       2.636   0.163   9.377  0.00  0.00    -0.377 OA
ATOM     31  C   UNL     1       3.611   0.492   8.383  0.00  0.00    +0.179 C 
ATOM     32  C   UNL     1       2.978   1.421   7.343  0.00  0.00    +0.135 C 
ENDBRANCH  21  22
ENDBRANCH   4  21
TORSDOF 7
