REMARK  Name = ZINC42438937
REMARK  5 active torsions:
REMARK  status: ('A' for Active; 'I' for Inactive)
REMARK    1  A    between atoms: C_1  and  C_2
REMARK    2  A    between atoms: C_6  and  C_19
REMARK    3  A    between atoms: N_9  and  C_10
REMARK    4  A    between atoms: C_13  and  C_16
REMARK    5  A    between atoms: C_16  and  N_18
REMARK                            x       y       z     vdW  Elec       q    Type
REMARK                         _______ _______ _______ _____ _____    ______ ____
ROOT
ATOM      1  C   UNL     1       0.791   1.462  -0.357  0.00  0.00    +0.028 C 
ATOM      2  C   UNL     1       0.414  -0.013  -0.207  0.00  0.00    +0.070 C 
ATOM      3  C   UNL     1       1.137  -0.839  -1.274  0.00  0.00    +0.023 C 
ATOM      4  C   UNL     1       0.867  -2.326  -1.033  0.00  0.00    +0.016 C 
ATOM      5  C   UNL     1       1.410  -2.729   0.340  0.00  0.00    +0.092 C 
ATOM      6  C   UNL     1       0.689  -1.924   1.426  0.00  0.00    +0.118 C 
ATOM      7  N   UNL     1       0.819  -0.492   1.122  0.00  0.00    -0.326 N 
ENDROOT
BRANCH   7   8
ATOM      8  C   UNL     1       1.320   0.393   2.072  0.00  0.00    +0.030 A 
ATOM      9  C   UNL     1       0.445   1.084   2.905  0.00  0.00    +0.024 A 
ATOM     10  C   UNL     1       0.937   1.960   3.846  0.00  0.00    +0.012 A 
ATOM     11  C   UNL     1       2.317   2.154   3.965  0.00  0.00    +0.003 A 
ATOM     12  C   UNL     1       3.192   1.457   3.126  0.00  0.00    +0.012 A 
ATOM     13  C   UNL     1       2.694   0.580   2.190  0.00  0.00    +0.024 A 
BRANCH  11  14
ATOM     14  C   UNL     1       2.847   3.091   4.971  0.00  0.00    +0.077 C 
ATOM     15  S   UNL     1       2.064   3.256   6.484  0.00  0.00    -0.035 S 
BRANCH  14  16
ATOM     16  N   UNL     1       3.949   3.818   4.699  0.00  0.00    -0.352 N 
ATOM     17  H   UNL     1       4.393   3.725   3.842  0.00  0.00    +0.143 HD
ATOM     18  H   UNL     1       4.298   4.435   5.362  0.00  0.00    +0.143 HD
ENDBRANCH  14  16
ENDBRANCH  11  14
ENDBRANCH   7   8
BRANCH   5  19
ATOM     19  C   UNL     1       1.173  -4.200   0.563  0.00  0.00    +0.215 C 
ATOM     20  O   UNL     1       0.496  -4.570   1.499  0.00  0.00    -0.276 OA
ATOM     21  N   UNL     1       1.712  -5.105  -0.278  0.00  0.00    -0.329 N 
ATOM     22  H   UNL     1       2.253  -4.809  -1.027  0.00  0.00    +0.145 HD
ATOM     23  H   UNL     1       1.559  -6.052  -0.135  0.00  0.00    +0.145 HD
ENDBRANCH   5  19
TORSDOF 4
