REMARK  Name = ZINC63281536
REMARK  7 active torsions:
REMARK  status: ('A' for Active; 'I' for Inactive)
REMARK    1  A    between atoms: C_1  and  O_2
REMARK    2  A    between atoms: O_2  and  C_3
REMARK    3  A    between atoms: C_9  and  C_12
REMARK    4  A    between atoms: C_12  and  C_13
REMARK    5  A    between atoms: C_13  and  N_14
REMARK    6  A    between atoms: C_15  and  C_17
REMARK    7  A    between atoms: C_21  and  C_24
REMARK                            x       y       z     vdW  Elec       q    Type
REMARK                         _______ _______ _______ _____ _____    ______ ____
ROOT
ATOM      1  N   UNL     1      -0.685  -6.885  -1.634  0.00  0.00    -0.311 N 
ATOM      2  C   UNL     1      -1.941  -7.357  -1.763  0.00  0.00    +0.238 C 
ATOM      3  O   UNL     1      -2.732  -6.790  -2.495  0.00  0.00    -0.271 OA
ATOM      4  H   UNL     1      -0.055  -7.336  -1.050  0.00  0.00    +0.149 HD
ENDROOT
BRANCH   2   5
ATOM      5  C   UNL     1      -2.340  -8.510  -1.048  0.00  0.00    +0.086 C 
ATOM      6  C   UNL     1      -3.555  -9.053  -1.268  0.00  0.00    +0.020 C 
ATOM      7  C   UNL     1      -4.103 -10.193  -0.417  0.00  0.00    +0.121 C 
ATOM      8  S   UNL     1      -5.911  -9.861  -0.580  0.00  0.00    -0.128 S 
ATOM      9  C   UNL     1      -5.817  -8.872  -2.132  0.00  0.00    +0.159 C 
ATOM     10  N   UNL     1      -4.370  -8.620  -2.251  0.00  0.00    -0.331 N 
ATOM     11  H   UNL     1      -4.012  -8.154  -3.023  0.00  0.00    +0.147 HD
BRANCH   9  12
ATOM     12  C   UNL     1      -6.578  -7.579  -1.992  0.00  0.00    -0.017 A 
ATOM     13  C   UNL     1      -5.943  -6.454  -1.501  0.00  0.00    +0.009 A 
ATOM     14  C   UNL     1      -6.640  -5.267  -1.372  0.00  0.00    +0.039 A 
ATOM     15  C   UNL     1      -7.974  -5.206  -1.735  0.00  0.00    +0.123 A 
ATOM     16  C   UNL     1      -8.610  -6.334  -2.227  0.00  0.00    +0.039 A 
ATOM     17  C   UNL     1      -7.909  -7.518  -2.359  0.00  0.00    +0.009 A 
ATOM     18  F   UNL     1      -8.657  -4.047  -1.610  0.00  0.00    -0.205 F 
ENDBRANCH   9  12
ENDBRANCH   2   5
BRANCH   1  19
ATOM     19  C   UNL     1      -0.272  -5.690  -2.374  0.00  0.00    +0.109 C 
BRANCH  19  20
ATOM     20  C   UNL     1       1.189  -5.370  -2.051  0.00  0.00    +0.052 C 
BRANCH  20  27
ATOM     21  C   UNL     1       1.338  -0.921  -0.920  0.00  0.00    +0.121 A 
ATOM     22  C   UNL     1       1.809  -0.076  -1.940  0.00  0.00    +0.047 A 
ATOM     23  C   UNL     1       2.185  -0.538  -3.151  0.00  0.00    +0.029 A 
ATOM     24  C   UNL     1       2.109  -1.974  -3.438  0.00  0.00    +0.043 A 
ATOM     25  N   UNL     1       2.404  -2.670  -4.508  0.00  0.00    -0.380 N 
ATOM     26  C   UNL     1       2.129  -4.086  -4.234  0.00  0.00    +0.144 C 
ATOM     27  C   UNL     1       1.615  -4.141  -2.813  0.00  0.00    -0.040 C 
ATOM     28  C   UNL     1       1.613  -2.866  -2.364  0.00  0.00    +0.002 A 
ATOM     29  C   UNL     1       1.235  -2.262  -1.082  0.00  0.00    +0.055 A 
ATOM     30  H   UNL     1       2.746  -2.311  -5.341  0.00  0.00    +0.160 HD
BRANCH  21  32
ATOM     31  C   UNL     1       1.105   1.043   0.400  0.00  0.00    +0.277 C 
ATOM     32  O   UNL     1       0.980  -0.375   0.272  0.00  0.00    -0.495 OA
ENDBRANCH  21  32
ENDBRANCH  20  27
ENDBRANCH  19  20
ENDBRANCH   1  19
TORSDOF 6
