REMARK  Name = ZINC48949553
REMARK  4 active torsions:
REMARK  status: ('A' for Active; 'I' for Inactive)
REMARK    1  A    between atoms: C_1  and  N_2
REMARK    2  A    between atoms: N_5  and  N_6
REMARK    3  A    between atoms: C_7  and  C_9
REMARK    4  A    between atoms: C_12  and  C_14
REMARK                            x       y       z     vdW  Elec       q    Type
REMARK                         _______ _______ _______ _____ _____    ______ ____
ROOT
ATOM      1  C   UNL     1      -0.579  -4.821   1.120  0.00  0.00    +0.076 A 
ATOM      2  C   UNL     1      -0.661  -6.194   1.303  0.00  0.00    +0.021 A 
ATOM      3  C   UNL     1      -1.288  -6.670   2.420  0.00  0.00    +0.017 A 
ATOM      4  C   UNL     1      -1.816  -5.765   3.326  0.00  0.00    +0.020 A 
ATOM      5  S   UNL     1      -1.406  -4.198   2.575  0.00  0.00    -0.084 S 
ENDROOT
BRANCH   4   6
ATOM      6  C   UNL     1      -2.531  -6.029   4.592  0.00  0.00    -0.011 A 
ATOM      7  C   UNL     1      -2.744  -7.341   5.016  0.00  0.00    +0.010 A 
ATOM      8  C   UNL     1      -3.412  -7.581   6.199  0.00  0.00    +0.020 A 
ATOM      9  C   UNL     1      -3.870  -6.522   6.966  0.00  0.00    +0.041 A 
ATOM     10  C   UNL     1      -3.661  -5.218   6.550  0.00  0.00    +0.020 A 
ATOM     11  C   UNL     1      -2.990  -4.965   5.372  0.00  0.00    +0.010 A 
ATOM     12 CL   UNL     1      -4.709  -6.832   8.454  0.00  0.00    -0.084 Cl
ENDBRANCH   4   6
BRANCH   1  14
ATOM     13  N   UNL     1       0.016  -2.726   0.027  0.00  0.00    -0.229 N 
ATOM     14  C   UNL     1       0.035  -4.074   0.020  0.00  0.00    +0.267 C 
ATOM     15  O   UNL     1       0.561  -4.670  -0.901  0.00  0.00    -0.268 OA
ATOM     16  H   UNL     1      -0.403  -2.251   0.761  0.00  0.00    +0.173 HD
BRANCH  13  21
ATOM     17  C   UNL     1      -0.018   1.461   0.010  0.00  0.00    +0.129 C 
ATOM     18  N   UNL     1       0.002  -0.004   0.002  0.00  0.00    -0.301 N 
ATOM     19  C   UNL     1       0.585  -0.664  -1.018  0.00  0.00    +0.316 C 
ATOM     20  O   UNL     1       1.095  -0.045  -1.931  0.00  0.00    -0.251 OA
ATOM     21  N   UNL     1       0.603  -2.012  -1.025  0.00  0.00    -0.218 N 
ATOM     22  H   UNL     1      -0.404  -0.499   0.731  0.00  0.00    +0.150 HD
ATOM     23  H   UNL     1       1.023  -2.487  -1.760  0.00  0.00    +0.174 HD
ENDBRANCH  13  21
ENDBRANCH   1  14
TORSDOF 3
