REMARK  Name = ZINC13119415
REMARK  17 active torsions:
REMARK  status: ('A' for Active; 'I' for Inactive)
REMARK    1  A    between atoms: C_1  and  C_2
REMARK    2  A    between atoms: C_2  and  C_3
REMARK    3  A    between atoms: C_3  and  C_5
REMARK    4  A    between atoms: C_3  and  N_6
REMARK    5  A    between atoms: N_6  and  C_7
REMARK    6  A    between atoms: C_7  and  N_9
REMARK    7  A    between atoms: N_9  and  C_10
REMARK    8  A    between atoms: N_9  and  C_25
REMARK    9  A    between atoms: C_10  and  C_11
REMARK   10  A    between atoms: C_15  and  C_24
REMARK   11  A    between atoms: C_25  and  C_26
REMARK   12  A    between atoms: C_26  and  C_27
REMARK   13  A    between atoms: C_26  and  C_28
REMARK   14  A    between atoms: C_26  and  N_29
REMARK   15  A    between atoms: N_29  and  C_30
REMARK   16  A    between atoms: C_30  and  C_31
REMARK   17  A    between atoms: C_30  and  C_32
REMARK                            x       y       z     vdW  Elec       q    Type
REMARK                         _______ _______ _______ _____ _____    ______ ____
ROOT
ATOM      1  N   UNL     1      -0.626   0.975   4.609  0.00  0.00    -0.310 N 
ENDROOT
BRANCH   1   2
ATOM      2  C   UNL     1      -0.431   1.089   3.281  0.00  0.00    +0.133 C 
ATOM      3  S   UNL     1       1.146   0.947   2.631  0.00  0.00    -0.019 S 
BRANCH   2   4
ATOM      4  N   UNL     1      -1.479   1.316   2.463  0.00  0.00    -0.324 N 
ATOM      5  H   UNL     1      -2.373   1.397   2.831  0.00  0.00    +0.148 HD
BRANCH   4   6
ATOM      6  C   UNL     1      -1.267   1.441   1.019  0.00  0.00    +0.069 C 
ATOM      7  C   UNL     1      -1.259   0.050   0.383  0.00  0.00    +0.028 C 
BRANCH   6   9
ATOM      8  C   UNL     1      -2.325   3.703   0.952  0.00  0.00    +0.005 C 
ATOM      9  C   UNL     1      -2.395   2.275   0.408  0.00  0.00    +0.018 C 
ENDBRANCH   6   9
ENDBRANCH   4   6
ENDBRANCH   2   4
ENDBRANCH   1   2
BRANCH   1  10
ATOM     10  C   UNL     1       0.512   0.728   5.498  0.00  0.00    +0.145 C 
BRANCH  10  11
ATOM     11  C   UNL     1       1.090   2.044   5.951  0.00  0.00    +0.016 A 
ATOM     12  C   UNL     1       0.703   2.578   7.133  0.00  0.00    +0.019 A 
ATOM     13  C   UNL     1       1.277   3.857   7.554  0.00  0.00    +0.001 A 
ATOM     14  C   UNL     1       0.909   4.449   8.768  0.00  0.00    +0.013 A 
ATOM     15  C   UNL     1       1.462   5.643   9.135  0.00  0.00    -0.050 A 
ATOM     16  C   UNL     1       2.387   6.274   8.315  0.00  0.00    +0.005 A 
ATOM     17  C   UNL     1       2.764   5.710   7.115  0.00  0.00    +0.029 A 
ATOM     18  C   UNL     1       2.214   4.495   6.720  0.00  0.00    +0.077 A 
ATOM     19  N   UNL     1       2.573   3.907   5.527  0.00  0.00    -0.192 N 
ATOM     20  C   UNL     1       2.038   2.712   5.142  0.00  0.00    +0.184 A 
ATOM     21  N   UNL     1       2.582   2.415   3.970  0.00  0.00    -0.108 NA
ATOM     22  N   UNL     1       3.408   3.333   3.616  0.00  0.00    -0.022 NA
ATOM     23  N   UNL     1       3.454   4.272   4.498  0.00  0.00    -0.039 NA
ATOM     24  C   UNL     1       1.065   6.279  10.442  0.00  0.00    +0.044 C 
ENDBRANCH  10  11
ENDBRANCH   1  10
BRANCH   1  25
ATOM     25  C   UNL     1      -1.976   1.096   5.165  0.00  0.00    +0.094 C 
BRANCH  25  26
ATOM     26  C   UNL     1      -2.637  -0.283   5.208  0.00  0.00    -0.058 C 
ATOM     27  C   UNL     1      -4.047  -0.156   5.788  0.00  0.00    -0.009 C 
ATOM     28  C   UNL     1      -2.718  -0.854   3.790  0.00  0.00    -0.009 C 
BRANCH  26  29
ATOM     29  N   UNL     1      -1.839  -1.182   6.052  0.00  0.00    +0.385 N 
ATOM     30  H   UNL     1      -0.904  -1.254   5.678  0.00  0.00    -0.085 HD
ATOM     31  H   UNL     1      -1.798  -0.814   6.991  0.00  0.00    -0.085 HD
BRANCH  29  32
ATOM     32  C   UNL     1      -2.461  -2.513   6.075  0.00  0.00    -0.077 C 
ATOM     33  C   UNL     1      -1.951  -3.334   4.889  0.00  0.00    -0.014 C 
ATOM     34  C   UNL     1      -2.097  -3.223   7.380  0.00  0.00    -0.014 C 
ENDBRANCH  29  32
ENDBRANCH  26  29
ENDBRANCH  25  26
ENDBRANCH   1  25
TORSDOF 10
