REMARK  Name = ZINC41791092
REMARK  10 active torsions:
REMARK  status: ('A' for Active; 'I' for Inactive)
REMARK    1  A    between atoms: C_1  and  C_2
REMARK    2  A    between atoms: C_5  and  N_9
REMARK    3  A    between atoms: C_10  and  C_12
REMARK    4  A    between atoms: N_14  and  C_15
REMARK    5  A    between atoms: C_15  and  C_16
REMARK    6  A    between atoms: C_16  and  C_17
REMARK    7  A    between atoms: C_17  and  C_18
REMARK    8  A    between atoms: C_18  and  N_19
REMARK    9  A    between atoms: C_21  and  C_28
REMARK   10  A    between atoms: C_24  and  C_27
REMARK                            x       y       z     vdW  Elec       q    Type
REMARK                         _______ _______ _______ _____ _____    ______ ____
ROOT
ATOM      1  C   UNL     1       0.309  -6.336   1.119  0.00  0.00    +0.299 C 
ATOM      2  O   UNL     1       0.312  -6.933   0.062  0.00  0.00    -0.265 OA
ATOM      3  N   UNL     1       0.426  -7.015   2.277  0.00  0.00    -0.308 N 
ATOM      4  H   UNL     1       0.424  -6.538   3.121  0.00  0.00    +0.149 HD
ENDROOT
BRANCH   1   6
ATOM      5  N   UNL     1       0.059  -4.169  -0.022  0.00  0.00    -0.278 N 
ATOM      6  C   UNL     1       0.176  -4.848   1.136  0.00  0.00    +0.303 C 
ATOM      7  O   UNL     1       0.174  -4.251   2.193  0.00  0.00    -0.265 OA
ATOM      8  H   UNL     1      -0.015  -4.650  -0.861  0.00  0.00    +0.155 HD
BRANCH   5  13
ATOM      9  C   UNL     1       0.004   1.503   0.009  0.00  0.00    +0.045 C 
ATOM     10  C   UNL     1       0.019  -0.004   0.001  0.00  0.00    -0.032 A 
ATOM     11  C   UNL     1      -0.725  -0.696  -0.937  0.00  0.00    +0.006 A 
ATOM     12  C   UNL     1      -0.713  -2.077  -0.947  0.00  0.00    +0.023 A 
ATOM     13  C   UNL     1       0.046  -2.772  -0.014  0.00  0.00    +0.035 A 
ATOM     14  C   UNL     1       0.792  -2.074   0.927  0.00  0.00    +0.043 A 
ATOM     15  C   UNL     1       0.781  -0.692   0.929  0.00  0.00    +0.046 A 
ATOM     16 CL   UNL     1       1.718   0.182   2.101  0.00  0.00    -0.083 Cl
ENDBRANCH   5  13
ENDBRANCH   1   6
BRANCH   3  17
ATOM     17  C   UNL     1       0.556  -8.474   2.260  0.00  0.00    +0.104 C 
BRANCH  17  18
ATOM     18  C   UNL     1       0.672  -8.993   3.695  0.00  0.00    +0.017 C 
BRANCH  18  19
ATOM     19  C   UNL     1       0.807 -10.517   3.677  0.00  0.00    -0.017 C 
BRANCH  19  20
ATOM     20  C   UNL     1       0.923 -11.035   5.112  0.00  0.00    -0.079 C 
BRANCH  20  21
ATOM     21  N   UNL     1       1.054 -12.498   5.095  0.00  0.00    +0.380 N 
ATOM     22  C   UNL     1      -0.176 -13.091   4.557  0.00  0.00    -0.076 C 
ATOM     23  C   UNL     1      -0.015 -14.610   4.462  0.00  0.00    -0.031 C 
ATOM     24  C   UNL     1       0.259 -15.178   5.857  0.00  0.00    +0.003 C 
ATOM     25  C   UNL     1       1.502 -14.498   6.439  0.00  0.00    -0.031 C 
ATOM     26  C   UNL     1       1.284 -12.983   6.461  0.00  0.00    -0.076 C 
ATOM     27  C   UNL     1       2.718 -14.827   5.572  0.00  0.00    +0.005 C 
ATOM     28  C   UNL     1      -1.299 -15.226   3.902  0.00  0.00    +0.005 C 
ATOM     29  H   UNL     1       1.834 -12.758   4.511  0.00  0.00    -0.082 HD
ENDBRANCH  20  21
ENDBRANCH  19  20
ENDBRANCH  18  19
ENDBRANCH  17  18
ENDBRANCH   3  17
TORSDOF 7
