REMARK  Name = ZINC03624864
REMARK  10 active torsions:
REMARK  status: ('A' for Active; 'I' for Inactive)
REMARK    1  A    between atoms: C_1  and  C_2
REMARK    2  A    between atoms: C_2  and  C_3
REMARK    3  A    between atoms: C_2  and  C_4
REMARK    4  A    between atoms: C_4  and  N_5
REMARK    5  A    between atoms: C_11  and  C_25
REMARK    6  A    between atoms: C_13  and  O_24
REMARK    7  A    between atoms: C_15  and  O_22
REMARK    8  A    between atoms: C_15  and  O_23
REMARK    9  A    between atoms: C_28  and  O_31
REMARK   10  A    between atoms: O_31  and  C_32
REMARK                            x       y       z     vdW  Elec       q    Type
REMARK                         _______ _______ _______ _____ _____    ______ ____
ROOT
ATOM      1  N   UNL     1       3.821   2.622  -1.863  0.00  0.00    -0.274 N 
ATOM      2  C   UNL     1       5.114   3.036  -1.869  0.00  0.00    +0.288 C 
ATOM      3  O   UNL     1       5.703   3.479  -2.834  0.00  0.00    -0.266 OA
ATOM      4  C   UNL     1       5.701   2.862  -0.506  0.00  0.00    +0.249 C 
ATOM      5  O   UNL     1       6.851   3.101  -0.185  0.00  0.00    -0.282 OA
ATOM      6  C   UNL     1       4.697   2.378   0.333  0.00  0.00    +0.082 C 
ATOM      7  C   UNL     1       4.327   1.677   1.458  0.00  0.00    +0.141 C 
ATOM      8  O   UNL     1       3.046   1.199   1.377  0.00  0.00    -0.453 OA
ATOM      9  C   UNL     1       2.614   1.294  -0.009  0.00  0.00    +0.269 C 
ATOM     10  C   UNL     1       3.430   2.501  -0.489  0.00  0.00    +0.198 C 
ATOM     11  C   UNL     1       2.579   3.694  -0.015  0.00  0.00    +0.226 C 
ATOM     12  C   UNL     1       1.159   3.165   0.005  0.00  0.00    +0.023 A 
ATOM     13  C   UNL     1       1.177   1.782   0.000  0.00  0.00    +0.034 A 
ATOM     14  C   UNL     1      -0.013   1.076   0.008  0.00  0.00    +0.010 A 
ATOM     15  C   UNL     1      -1.220   1.749   0.017  0.00  0.00    +0.000 A 
ATOM     16  C   UNL     1      -1.238   3.131   0.031  0.00  0.00    +0.000 A 
ATOM     17  C   UNL     1      -0.051   3.838   0.023  0.00  0.00    +0.009 A 
ENDROOT
BRANCH   7  18
ATOM     18  C   UNL     1       5.210   1.447   2.612  0.00  0.00    +0.018 A 
ATOM     19  C   UNL     1       6.517   1.949   2.607  0.00  0.00    +0.015 A 
ATOM     20  C   UNL     1       7.337   1.735   3.691  0.00  0.00    +0.046 A 
ATOM     21  C   UNL     1       6.873   1.013   4.786  0.00  0.00    +0.120 A 
ATOM     22  C   UNL     1       5.578   0.508   4.793  0.00  0.00    +0.046 A 
ATOM     23  C   UNL     1       4.748   0.721   3.716  0.00  0.00    +0.015 A 
BRANCH  21  24
ATOM     24  O   UNL     1       7.688   0.801   5.850  0.00  0.00    -0.495 OA
ATOM     25  C   UNL     1       9.006   1.347   5.777  0.00  0.00    +0.277 C 
ENDBRANCH  21  24
ENDBRANCH   7  18
BRANCH  11  26
ATOM     26  O   UNL     1       2.978   4.101   1.296  0.00  0.00    -0.359 OA
ATOM     27  H   UNL     1       2.475   4.849   1.645  0.00  0.00    +0.213 HD
ENDBRANCH  11  26
BRANCH  11  28
ATOM     28  O   UNL     1       2.695   4.784  -0.931  0.00  0.00    -0.359 OA
ATOM     29  H   UNL     1       2.179   5.563  -0.683  0.00  0.00    +0.213 HD
ENDBRANCH  11  28
BRANCH   9  30
ATOM     30  O   UNL     1       2.819   0.102  -0.770  0.00  0.00    -0.350 OA
ATOM     31  H   UNL     1       2.318  -0.660  -0.450  0.00  0.00    +0.214 HD
ENDBRANCH   9  30
BRANCH   1  32
ATOM     32  C   UNL     1       2.986   2.352  -3.035  0.00  0.00    +0.112 C 
BRANCH  32  34
ATOM     33  C   UNL     1       3.275   4.675  -3.909  0.00  0.00    +0.009 C 
ATOM     34  C   UNL     1       2.255   3.632  -3.447  0.00  0.00    +0.000 C 
ATOM     35  C   UNL     1       1.289   3.322  -4.592  0.00  0.00    +0.009 C 
ENDBRANCH  32  34
ENDBRANCH   1  32
TORSDOF 7
