REMARK  Name = ZINC17179804
REMARK  8 active torsions:
REMARK  status: ('A' for Active; 'I' for Inactive)
REMARK    1  A    between atoms: C_1  and  C_2
REMARK    2  A    between atoms: C_9  and  O_20
REMARK    3  A    between atoms: C_12  and  C_14
REMARK    4  A    between atoms: C_23  and  O_36
REMARK    5  A    between atoms: C_24  and  C_31
REMARK    6  A    between atoms: C_27  and  O_30
REMARK    7  A    between atoms: N_32  and  C_33
REMARK    8  A    between atoms: C_33  and  C_34
REMARK                            x       y       z     vdW  Elec       q    Type
REMARK                         _______ _______ _______ _____ _____    ______ ____
ROOT
ATOM      1  C   UNL     1       3.844   1.991  -3.695  0.00  0.00    +0.014 C 
ATOM      2  C   UNL     1       4.356   1.501  -2.339  0.00  0.00    +0.004 C 
ATOM      3  C   UNL     1       4.342  -0.027  -2.249  0.00  0.00    +0.010 C 
ATOM      4  C   UNL     1       2.912  -0.548  -2.134  0.00  0.00    +0.005 C 
ATOM      5  C   UNL     1       2.299  -0.009  -0.836  0.00  0.00    +0.009 C 
ATOM      6  C   UNL     1       2.228   1.514  -0.932  0.00  0.00    +0.025 C 
ATOM      7  C   UNL     1       3.590   2.124  -1.159  0.00  0.00    +0.075 C 
ATOM      8  C   UNL     1       4.538   1.917   0.036  0.00  0.00    +0.036 C 
ATOM      9  C   UNL     1       5.938   2.187  -0.564  0.00  0.00    +0.011 C 
ATOM     10  C   UNL     1       5.820   1.949  -2.081  0.00  0.00    +0.027 C 
ATOM     11  C   UNL     1       1.597   2.078   0.343  0.00  0.00    +0.009 C 
ATOM     12  C   UNL     1       0.186   1.509   0.510  0.00  0.00    +0.036 C 
ATOM     13  C   UNL     1       0.260  -0.016   0.608  0.00  0.00    +0.079 C 
ATOM     14  C   UNL     1       0.889  -0.578  -0.669  0.00  0.00    +0.038 C 
ATOM     15  C   UNL     1       0.962  -2.103  -0.574  0.00  0.00    +0.018 C 
ATOM     16  C   UNL     1      -0.449  -2.671  -0.408  0.00  0.00    +0.032 C 
ATOM     17  C   UNL     1      -1.077  -2.111   0.869  0.00  0.00    +0.117 C 
ATOM     18  C   UNL     1      -1.150  -0.585   0.775  0.00  0.00    +0.067 C 
ENDROOT
BRANCH  10  19
ATOM     19  C   UNL     1       6.776   0.866  -2.510  0.00  0.00    -0.022 C 
ATOM     20  C   UNL     1       7.429   0.024  -1.714  0.00  0.00    +0.094 C 
ATOM     21  C   UNL     1       8.255  -0.875  -2.523  0.00  0.00    +0.332 C 
ATOM     22  O   UNL     1       8.966  -1.756  -2.082  0.00  0.00    -0.246 OA
ATOM     23  O   UNL     1       8.115  -0.577  -3.829  0.00  0.00    -0.457 OA
ATOM     24  C   UNL     1       7.180   0.533  -3.928  0.00  0.00    +0.264 C 
ENDBRANCH  10  19
BRANCH   7  25
ATOM     25  O   UNL     1       3.429   3.525  -1.393  0.00  0.00    -0.388 OA
ATOM     26  H   UNL     1       2.902   4.148  -0.655  0.00  0.00    +0.210 HD
ENDBRANCH   7  25
BRANCH  17  27
ATOM     27  O   UNL     1      -2.395  -2.642   1.025  0.00  0.00    -0.392 OA
ATOM     28  H   UNL     1      -3.006  -2.351   1.892  0.00  0.00    +0.210 HD
ENDBRANCH  17  27
BRANCH  14  29
ATOM     29  C   UNL     1       0.047  -0.188  -1.857  0.00  0.00    +0.088 C 
ATOM     30  N   UNL     1      -1.012   0.510  -1.688  0.00  0.00    -0.280 NA
BRANCH  30  31
ATOM     31  C   UNL     1      -1.831   0.888  -2.843  0.00  0.00    +0.259 C 
BRANCH  31  32
ATOM     32  C   UNL     1      -3.150   0.243  -2.742  0.00  0.00    +0.086 C 
ATOM     33  N   UNL     1      -4.168  -0.255  -2.663  0.00  0.00    -0.195 NA
ENDBRANCH  31  32
ENDBRANCH  30  31
ENDBRANCH  14  29
BRANCH  13  34
ATOM     34  O   UNL     1       1.060  -0.384   1.734  0.00  0.00    -0.388 OA
ATOM     35  H   UNL     1       1.228  -1.446   1.966  0.00  0.00    +0.210 HD
ENDBRANCH  13  34
TORSDOF 7
