REMARK  Name = ZINC38741816
REMARK  5 active torsions:
REMARK  status: ('A' for Active; 'I' for Inactive)
REMARK    1  A    between atoms: C_1  and  C_2
REMARK    2  A    between atoms: C_5  and  N_9
REMARK    3  A    between atoms: C_6  and  C_8
REMARK    4  A    between atoms: C_20  and  C_22
REMARK    5  A    between atoms: C_20  and  C_23
REMARK                            x       y       z     vdW  Elec       q    Type
REMARK                         _______ _______ _______ _____ _____    ______ ____
ROOT
ATOM      1  N   UNL     1       0.058  -4.168  -0.021  0.00  0.00    -0.301 N 
ATOM      2  C   UNL     1      -0.043  -4.855  -1.219  0.00  0.00    +0.130 C 
ATOM      3  N   UNL     1      -0.063  -4.327  -2.416  0.00  0.00    -0.165 NA
ATOM      4  N   UNL     1      -0.174  -5.306  -3.439  0.00  0.00    -0.187 N 
ATOM      5  C   UNL     1      -0.814  -6.430  -2.787  0.00  0.00    +0.119 C 
ATOM      6  C   UNL     1      -0.143  -6.330  -1.383  0.00  0.00    +0.143 C 
ATOM      7  C   UNL     1      -1.008  -7.147  -0.479  0.00  0.00    +0.146 C 
ATOM      8  O   UNL     1      -1.568  -6.687   0.487  0.00  0.00    -0.297 OA
ATOM      9  C   UNL     1      -1.121  -8.615  -0.883  0.00  0.00    +0.081 C 
ATOM     10  C   UNL     1      -1.486  -8.749  -2.359  0.00  0.00    -0.026 C 
ATOM     11  C   UNL     1      -0.617  -7.847  -3.251  0.00  0.00    +0.032 C 
ATOM     12  C   UNL     1      -2.957  -8.370  -2.542  0.00  0.00    +0.011 C 
ATOM     13  C   UNL     1      -1.295 -10.205  -2.787  0.00  0.00    +0.011 C 
ATOM     14  C   UNL     1       0.233  -5.208  -4.750  0.00  0.00    +0.217 A 
ATOM     15  N   UNL     1       0.101  -6.150  -5.652  0.00  0.00    -0.213 NA
ATOM     16  C   UNL     1       0.607  -5.721  -6.838  0.00  0.00    +0.091 A 
ATOM     17  C   UNL     1       0.721  -6.308  -8.101  0.00  0.00    +0.030 A 
ATOM     18  C   UNL     1       1.298  -5.601  -9.133  0.00  0.00    +0.002 A 
ATOM     19  C   UNL     1       1.765  -4.312  -8.929  0.00  0.00    +0.002 A 
ATOM     20  C   UNL     1       1.660  -3.718  -7.687  0.00  0.00    +0.028 A 
ATOM     21  C   UNL     1       1.083  -4.415  -6.636  0.00  0.00    +0.067 A 
ATOM     22  N   UNL     1       0.829  -4.112  -5.309  0.00  0.00    -0.325 N 
ATOM     23  H   UNL     1       0.149  -4.656   0.812  0.00  0.00    +0.153 HD
ATOM     24  H   UNL     1       1.036  -3.278  -4.858  0.00  0.00    +0.169 HD
ENDROOT
BRANCH   1  29
ATOM     25  C   UNL     1      -0.060   1.502   0.015  0.00  0.00    +0.044 C 
ATOM     26  C   UNL     1      -0.029  -0.005   0.005  0.00  0.00    -0.050 A 
ATOM     27  C   UNL     1      -0.291  -0.693  -1.166  0.00  0.00    +0.005 A 
ATOM     28  C   UNL     1      -0.263  -2.073  -1.178  0.00  0.00    +0.024 A 
ATOM     29  C   UNL     1       0.029  -2.771  -0.012  0.00  0.00    +0.035 A 
ATOM     30  C   UNL     1       0.292  -2.077   1.162  0.00  0.00    -0.029 A 
ATOM     31  C   UNL     1       0.268  -0.696   1.165  0.00  0.00    +0.008 A 
ATOM     32  C   UNL     1       0.610  -2.829   2.428  0.00  0.00    +0.045 C 
ENDBRANCH   1  29
TORSDOF 1
