REMARK  Name = ZINC43705648
REMARK  3 active torsions:
REMARK  status: ('A' for Active; 'I' for Inactive)
REMARK    1  A    between atoms: C_3  and  C_7
REMARK    2  A    between atoms: C_7  and  C_8
REMARK    3  A    between atoms: C_14  and  C_17
REMARK                            x       y       z     vdW  Elec       q    Type
REMARK                         _______ _______ _______ _____ _____    ______ ____
ROOT
ATOM      1  C   UNL     1       4.356  -0.489   0.732  0.00  0.00    +0.214 C 
ATOM      2  O   UNL     1       3.756  -1.218   1.492  0.00  0.00    -0.276 OA
ATOM      3  N   UNL     1       5.658  -0.716   0.467  0.00  0.00    -0.296 N 
ATOM      4  C   UNL     1       6.409   0.159  -0.447  0.00  0.00    +0.136 C 
ATOM      5  C   UNL     1       7.705   0.589   0.251  0.00  0.00    +0.180 C 
ATOM      6  O   UNL     1       8.391  -0.572   0.726  0.00  0.00    -0.362 OA
ATOM      7  C   UNL     1       7.668  -1.319   1.707  0.00  0.00    +0.248 C 
ATOM      8  C   UNL     1       6.372  -1.843   1.088  0.00  0.00    +0.151 C 
ENDROOT
BRANCH   7   9
ATOM      9  C   UNL     1       8.508  -2.477   2.178  0.00  0.00    +0.386 C 
ATOM     10  O   UNL     1       9.624  -2.648   1.718  0.00  0.00    -0.243 OA
ATOM     11  O   UNL     1       8.073  -3.243   3.021  0.00  0.00    -0.243 OA
ENDBRANCH   7   9
BRANCH   1  12
ATOM     12  C   UNL     1       3.647   0.672   0.083  0.00  0.00    +0.080 C 
BRANCH  12  15
ATOM     13  C   UNL     1      -0.019   1.536   0.011  0.00  0.00    -0.021 C 
ATOM     14  C   UNL     1       1.468   1.960  -0.001  0.00  0.00    -0.017 C 
ATOM     15  C   UNL     1       2.191   0.705   0.550  0.00  0.00    -0.063 C 
ATOM     16  N   UNL     1       1.421  -0.418  -0.044  0.00  0.00    +0.381 N 
ATOM     17  C   UNL     1       0.002  -0.004   0.002  0.00  0.00    -0.082 C 
ATOM     18  H   UNL     1       1.708  -0.571  -0.999  0.00  0.00    -0.086 HD
ATOM     19  H   UNL     1       1.556  -1.258   0.499  0.00  0.00    -0.086 HD
ENDBRANCH  12  15
ENDBRANCH   1  12
TORSDOF 3
