REMARK  Name = ZINC43090848
REMARK  9 active torsions:
REMARK  status: ('A' for Active; 'I' for Inactive)
REMARK    1  A    between atoms: C_1  and  C_2
REMARK    2  A    between atoms: C_2  and  C_3
REMARK    3  A    between atoms: C_3  and  C_5
REMARK    4  A    between atoms: C_3  and  N_24
REMARK    5  A    between atoms: C_5  and  C_7
REMARK    6  A    between atoms: C_5  and  N_14
REMARK    7  A    between atoms: C_19  and  C_21
REMARK    8  A    between atoms: C_21  and  C_22
REMARK    9  A    between atoms: C_22  and  O_23
REMARK                            x       y       z     vdW  Elec       q    Type
REMARK                         _______ _______ _______ _____ _____    ______ ____
ROOT
ATOM      1  C   UNL     1      -1.220  -2.058  -0.023  0.00  0.00    +0.074 C 
ENDROOT
BRANCH   1   2
ATOM      2  C   UNL     1      -2.698  -2.337   0.080  0.00  0.00    -0.018 A 
ATOM      3  C   UNL     1      -3.315  -2.344   1.317  0.00  0.00    +0.006 A 
ATOM      4  C   UNL     1      -4.670  -2.599   1.411  0.00  0.00    +0.000 A 
ATOM      5  C   UNL     1      -5.409  -2.847   0.269  0.00  0.00    +0.001 A 
ATOM      6  C   UNL     1      -4.793  -2.840  -0.968  0.00  0.00    +0.015 A 
ATOM      7  C   UNL     1      -3.437  -2.580  -1.063  0.00  0.00    +0.022 A 
ATOM      8 BR   UNL     1      -2.594  -2.563  -2.756  0.00  0.00    -0.050 Br
ENDBRANCH   1   2
BRANCH   1   9
ATOM      9  N   UNL     1      -0.512  -2.767   1.051  0.00  0.00    -0.294 NA
ATOM     10  C   UNL     1      -0.447  -1.948   2.268  0.00  0.00    +0.085 C 
ATOM     11  C   UNL     1       0.419  -2.654   3.314  0.00  0.00    +0.015 C 
ATOM     12  C   UNL     1      -0.186  -4.024   3.630  0.00  0.00    +0.003 C 
ATOM     13  C   UNL     1      -0.289  -4.839   2.338  0.00  0.00    +0.019 C 
ATOM     14  C   UNL     1      -1.134  -4.070   1.321  0.00  0.00    +0.059 C 
BRANCH  14  15
ATOM     15  C   UNL     1      -1.222  -4.872   0.021  0.00  0.00    +0.046 C 
BRANCH  15  16
ATOM     16  C   UNL     1      -1.991  -6.170   0.274  0.00  0.00    +0.157 C 
BRANCH  16  17
ATOM     17  O   UNL     1      -1.979  -6.969  -0.911  0.00  0.00    -0.395 OA
ATOM     18  H   UNL     1      -2.449  -7.810  -0.823  0.00  0.00    +0.209 HD
ENDBRANCH  16  17
ENDBRANCH  15  16
ENDBRANCH  14  15
ENDBRANCH   1   9
BRANCH   1  19
ATOM     19  C   UNL     1      -0.975  -0.554   0.110  0.00  0.00    -0.053 C 
BRANCH  19  20
ATOM     20  N   UNL     1      -1.788   0.165  -0.880  0.00  0.00    +0.381 N 
ATOM     21  H   UNL     1      -1.532  -0.137  -1.809  0.00  0.00    -0.090 HD
ATOM     22  H   UNL     1      -2.764  -0.032  -0.720  0.00  0.00    -0.090 HD
ATOM     23  H   UNL     1      -1.625   1.157  -0.793  0.00  0.00    -0.090 HD
ENDBRANCH  19  20
BRANCH  19  25
ATOM     24  C   UNL     1       0.769   1.235   0.086  0.00  0.00    +0.002 C 
ATOM     25  C   UNL     1       0.506  -0.256  -0.133  0.00  0.00    -0.018 C 
ENDBRANCH  19  25
ENDBRANCH   1  19
TORSDOF 8
