REMARK  Name = ZINC08176380
REMARK  6 active torsions:
REMARK  status: ('A' for Active; 'I' for Inactive)
REMARK    1  A    between atoms: C_1  and  C_2
REMARK    2  A    between atoms: C_8  and  C_10
REMARK    3  A    between atoms: C_10  and  C_12
REMARK    4  A    between atoms: C_10  and  S_13
REMARK    5  A    between atoms: S_13  and  C_14
REMARK    6  A    between atoms: N_28  and  C_29
REMARK                            x       y       z     vdW  Elec       q    Type
REMARK                         _______ _______ _______ _____ _____    ______ ____
ROOT
ATOM      1  C   UNL     1       1.381   8.081   0.767  0.00  0.00    +0.173 A 
ATOM      2  N   UNL     1       2.602   8.031   0.300  0.00  0.00    -0.223 NA
ATOM      3  C   UNL     1       3.395   9.134   0.274  0.00  0.00    +0.080 A 
ATOM      4  C   UNL     1       4.687   9.082  -0.225  0.00  0.00    +0.037 A 
ATOM      5  C   UNL     1       5.472  10.241  -0.228  0.00  0.00    -0.016 A 
ATOM      6  C   UNL     1       6.789  10.226  -0.728  0.00  0.00    +0.008 A 
ATOM      7  C   UNL     1       7.524  11.370  -0.716  0.00  0.00    +0.001 A 
ATOM      8  C   UNL     1       7.008  12.565  -0.220  0.00  0.00    +0.001 A 
ATOM      9  C   UNL     1       5.745  12.646   0.276  0.00  0.00    +0.008 A 
ATOM     10  C   UNL     1       4.931  11.498   0.293  0.00  0.00    -0.017 A 
ATOM     11  C   UNL     1       3.624  11.543   0.796  0.00  0.00    +0.024 A 
ATOM     12  C   UNL     1       2.857  10.393   0.795  0.00  0.00    +0.066 A 
ATOM     13  C   UNL     1       1.478  10.384   1.312  0.00  0.00    +0.262 A 
ATOM     14  O   UNL     1       0.964  11.392   1.759  0.00  0.00    -0.267 OA
ATOM     15  N   UNL     1       0.804   9.212   1.269  0.00  0.00    -0.290 N 
ATOM     16  C   UNL     1      -0.571   9.155   1.772  0.00  0.00    +0.154 C 
ENDROOT
BRANCH   1  17
ATOM     17  S   UNL     1       0.427   6.600   0.753  0.00  0.00    -0.075 S 
BRANCH  17  18
ATOM     18  C   UNL     1       1.625   5.462   0.015  0.00  0.00    +0.137 C 
ATOM     19  C   UNL     1       1.920   5.894  -1.423  0.00  0.00    +0.029 C 
BRANCH  18  27
ATOM     20  C   UNL     1      -1.194  -0.921   0.008  0.00  0.00    +0.089 C 
ATOM     21  C   UNL     1       0.002  -0.004   0.002  0.00  0.00    +0.136 A 
ATOM     22  C   UNL     1      -0.016   1.348   0.009  0.00  0.00    +0.091 A 
ATOM     23  C   UNL     1       1.357   1.710  -0.002  0.00  0.00    +0.168 A 
ATOM     24  N   UNL     1       2.029   0.589  -0.014  0.00  0.00    -0.063 NA
ATOM     25  O   UNL     1       1.292  -0.370  -0.012  0.00  0.00    -0.358 OA
ATOM     26  N   UNL     1       1.883   3.002  -0.000  0.00  0.00    -0.267 N 
ATOM     27  C   UNL     1       1.057   4.066   0.013  0.00  0.00    +0.231 C 
ATOM     28  O   UNL     1      -0.145   3.900   0.024  0.00  0.00    -0.274 OA
ATOM     29  H   UNL     1       2.844   3.134  -0.009  0.00  0.00    +0.156 HD
ENDBRANCH  18  27
ENDBRANCH  17  18
ENDBRANCH   1  17
TORSDOF 3
