REMARK  Name = ZINC09346210
REMARK  4 active torsions:
REMARK  status: ('A' for Active; 'I' for Inactive)
REMARK    1  A    between atoms: C_4  and  C_7
REMARK    2  A    between atoms: C_10  and  C_30
REMARK    3  A    between atoms: C_18  and  C_20
REMARK    4  A    between atoms: C_21  and  C_22
REMARK                            x       y       z     vdW  Elec       q    Type
REMARK                         _______ _______ _______ _____ _____    ______ ____
ROOT
ATOM      1  C   UNL     1       3.711  -0.707  -0.038  0.00  0.00    +0.106 C 
ATOM      2  C   UNL     1       4.048  -1.192   1.377  0.00  0.00    +0.058 C 
ATOM      3  C   UNL     1       2.915  -2.081   1.904  0.00  0.00    +0.143 C 
ATOM      4  N   UNL     1       2.589  -3.081   0.888  0.00  0.00    -0.224 N 
ATOM      5  C   UNL     1       2.920  -2.975  -0.421  0.00  0.00    +0.216 A 
ATOM      6  N   UNL     1       2.481  -4.038  -1.040  0.00  0.00    -0.180 NA
ATOM      7  C   UNL     1       1.863  -4.843  -0.162  0.00  0.00    +0.242 A 
ATOM      8  N   UNL     1       1.908  -4.291   1.030  0.00  0.00    -0.131 NA
ATOM      9  N   UNL     1       1.267  -6.069  -0.466  0.00  0.00    -0.250 N 
ATOM     10  C   UNL     1       1.285  -6.532  -1.732  0.00  0.00    +0.243 C 
ATOM     11  O   UNL     1       1.821  -5.882  -2.610  0.00  0.00    -0.270 OA
ATOM     12  N   UNL     1       3.612  -1.879  -0.929  0.00  0.00    -0.307 N 
ATOM     13  H   UNL     1       0.840  -6.588   0.234  0.00  0.00    +0.158 HD
ATOM     14  H   UNL     1       4.007  -1.883  -1.815  0.00  0.00    +0.149 HD
ENDROOT
BRANCH   1  18
ATOM     15  C   UNL     1      -0.017   1.378   0.010  0.00  0.00    +0.000 A 
ATOM     16  C   UNL     1       1.171   2.086   0.002  0.00  0.00    +0.000 A 
ATOM     17  C   UNL     1       2.377   1.411  -0.013  0.00  0.00    +0.005 A 
ATOM     18  C   UNL     1       2.396   0.029  -0.020  0.00  0.00    -0.027 A 
ATOM     19  C   UNL     1       1.208  -0.679  -0.012  0.00  0.00    +0.005 A 
ATOM     20  C   UNL     1       0.002  -0.004   0.002  0.00  0.00    +0.000 A 
ENDBRANCH   1  18
BRANCH   3  21
ATOM     21  C   UNL     1       3.359  -2.768   3.169  0.00  0.00    -0.023 A 
ATOM     22  C   UNL     1       4.461  -3.602   3.152  0.00  0.00    +0.006 A 
ATOM     23  C   UNL     1       4.868  -4.233   4.313  0.00  0.00    +0.000 A 
ATOM     24  C   UNL     1       4.173  -4.029   5.491  0.00  0.00    +0.000 A 
ATOM     25  C   UNL     1       3.072  -3.195   5.508  0.00  0.00    +0.000 A 
ATOM     26  C   UNL     1       2.667  -2.560   4.348  0.00  0.00    +0.006 A 
ENDBRANCH   3  21
BRANCH  10  27
ATOM     27  C   UNL     1       0.661  -7.817  -2.050  0.00  0.00    +0.068 C 
ATOM     28  C   UNL     1       0.680  -8.280  -3.317  0.00  0.00    +0.013 C 
BRANCH  28  29
ATOM     29  C   UNL     1       0.053  -9.572  -3.636  0.00  0.00    -0.025 A 
ATOM     30  C   UNL     1      -0.569 -10.319  -2.630  0.00  0.00    +0.011 A 
ATOM     31  C   UNL     1      -1.155 -11.528  -2.937  0.00  0.00    +0.039 A 
ATOM     32  C   UNL     1      -1.130 -12.004  -4.239  0.00  0.00    +0.123 A 
ATOM     33  C   UNL     1      -0.515 -11.268  -5.241  0.00  0.00    +0.039 A 
ATOM     34  C   UNL     1       0.070 -10.055  -4.949  0.00  0.00    +0.011 A 
ATOM     35  F   UNL     1      -1.706 -13.190  -4.533  0.00  0.00    -0.205 F 
ENDBRANCH  28  29
ENDBRANCH  10  27
TORSDOF 4
