REMARK  Name = ZINC66701101
REMARK  11 active torsions:
REMARK  status: ('A' for Active; 'I' for Inactive)
REMARK    1  A    between atoms: C_1  and  C_2
REMARK    2  A    between atoms: C_2  and  N_3
REMARK    3  A    between atoms: C_7  and  N_10
REMARK    4  A    between atoms: C_16  and  C_19
REMARK    5  A    between atoms: C_16  and  N_20
REMARK    6  A    between atoms: N_20  and  C_21
REMARK    7  A    between atoms: C_22  and  O_24
REMARK    8  A    between atoms: O_24  and  C_25
REMARK    9  A    between atoms: C_25  and  C_26
REMARK   10  A    between atoms: C_25  and  C_27
REMARK   11  A    between atoms: C_25  and  C_28
REMARK                            x       y       z     vdW  Elec       q    Type
REMARK                         _______ _______ _______ _____ _____    ______ ____
ROOT
ATOM      1  N   UNL     1      -4.834  -3.927  -0.534  0.00  0.00    -0.298 N 
ATOM      2  C   UNL     1      -3.851  -4.723  -0.068  0.00  0.00    +0.302 C 
ATOM      3  O   UNL     1      -2.945  -4.248   0.590  0.00  0.00    -0.253 OA
ATOM      4  N   UNL     1      -3.871  -6.044  -0.332  0.00  0.00    -0.286 N 
ATOM      5  C   UNL     1      -2.873  -6.942   0.266  0.00  0.00    +0.111 C 
ATOM      6  C   UNL     1      -3.602  -8.084   0.980  0.00  0.00    +0.045 C 
ATOM      7  C   UNL     1      -4.555  -8.769  -0.003  0.00  0.00    +0.040 C 
ATOM      8  C   UNL     1      -5.598  -7.761  -0.491  0.00  0.00    +0.045 C 
ATOM      9  C   UNL     1      -4.895  -6.615  -1.217  0.00  0.00    +0.111 C 
ATOM     10  C   UNL     1      -5.260  -9.932   0.697  0.00  0.00    +0.032 C 
ATOM     11  H   UNL     1      -5.515  -4.291  -1.121  0.00  0.00    +0.150 HD
ENDROOT
BRANCH   1  16
ATOM     12  N   UNL     1      -6.353  -0.578   0.120  0.00  0.00    +0.381 N 
ATOM     13  C   UNL     1      -5.551   0.213  -0.821  0.00  0.00    -0.079 C 
ATOM     14  C   UNL     1      -4.086  -0.219  -0.737  0.00  0.00    -0.017 C 
ATOM     15  C   UNL     1      -3.976  -1.705  -1.094  0.00  0.00    +0.018 C 
ATOM     16  C   UNL     1      -4.875  -2.513  -0.154  0.00  0.00    +0.058 C 
ATOM     17  C   UNL     1      -6.311  -1.996  -0.259  0.00  0.00    -0.056 C 
ATOM     18  H   UNL     1      -5.981  -0.469   1.051  0.00  0.00    -0.082 HD
BRANCH  12  20
ATOM     19  C   UNL     1      -7.805   1.333   0.606  0.00  0.00    -0.017 C 
ATOM     20  C   UNL     1      -7.744  -0.107   0.092  0.00  0.00    -0.082 C 
ENDBRANCH  12  20
ENDBRANCH   1  16
BRANCH   7  21
ATOM     21  N   UNL     1      -3.794  -9.277  -1.147  0.00  0.00    -0.265 N 
ATOM     22  C   UNL     1      -4.226  -8.963  -2.511  0.00  0.00    +0.136 C 
ATOM     23  C   UNL     1      -2.697 -10.033  -0.945  0.00  0.00    +0.404 C 
ATOM     24  O   UNL     1      -2.338 -10.293   0.187  0.00  0.00    -0.226 OA
BRANCH  23  25
ATOM     25  O   UNL     1      -1.998 -10.499  -1.996  0.00  0.00    -0.445 OA
BRANCH  25  26
ATOM     26  C   UNL     1      -0.845 -11.294  -1.708  0.00  0.00    +0.107 C 
ATOM     27  C   UNL     1      -1.265 -12.531  -0.912  0.00  0.00    +0.055 C 
ATOM     28  C   UNL     1      -0.186 -11.730  -3.018  0.00  0.00    +0.055 C 
ATOM     29  C   UNL     1       0.149 -10.471  -0.886  0.00  0.00    +0.055 C 
ENDBRANCH  25  26
ENDBRANCH  23  25
ENDBRANCH   7  21
TORSDOF 5
