REMARK  Name = ZINC00221528
REMARK  4 active torsions:
REMARK  status: ('A' for Active; 'I' for Inactive)
REMARK    1  A    between atoms: C_4  and  N_7
REMARK    2  A    between atoms: C_13  and  O_18
REMARK    3  A    between atoms: O_18  and  C_19
REMARK    4  A    between atoms: C_23  and  N_25
REMARK                            x       y       z     vdW  Elec       q    Type
REMARK                         _______ _______ _______ _____ _____    ______ ____
ROOT
ATOM      1  N   UNL     1       4.106   9.380   0.527  0.00  0.00    -0.202 N 
ATOM      2  C   UNL     1       4.652   8.153   0.445  0.00  0.00    +0.258 C 
ATOM      3  O   UNL     1       5.841   7.905   0.467  0.00  0.00    -0.269 OA
ATOM      4  C   UNL     1       3.567   7.161   0.324  0.00  0.00    +0.050 A 
ATOM      5  C   UNL     1       3.529   5.778   0.208  0.00  0.00    +0.017 A 
ATOM      6  C   UNL     1       2.311   5.130   0.115  0.00  0.00    +0.047 A 
ATOM      7  C   UNL     1       1.126   5.854   0.127  0.00  0.00    +0.129 A 
ATOM      8  C   UNL     1       1.151   7.242   0.243  0.00  0.00    +0.060 A 
ATOM      9  C   UNL     1       2.364   7.899   0.342  0.00  0.00    +0.053 A 
ATOM     10  C   UNL     1       2.763   9.316   0.473  0.00  0.00    +0.258 C 
ATOM     11  O   UNL     1       2.005  10.264   0.524  0.00  0.00    -0.269 OA
ENDROOT
BRANCH   1  15
ATOM     12  C   UNL     1       6.287  12.913   0.896  0.00  0.00    +0.000 A 
ATOM     13  C   UNL     1       6.946  11.700   0.820  0.00  0.00    +0.002 A 
ATOM     14  C   UNL     1       6.226  10.527   0.698  0.00  0.00    +0.024 A 
ATOM     15  C   UNL     1       4.839  10.568   0.651  0.00  0.00    +0.045 A 
ATOM     16  C   UNL     1       4.180  11.788   0.722  0.00  0.00    +0.024 A 
ATOM     17  C   UNL     1       4.905  12.956   0.850  0.00  0.00    +0.002 A 
ENDBRANCH   1  15
BRANCH   7  18
ATOM     18  O   UNL     1      -0.062   5.206   0.030  0.00  0.00    -0.456 OA
BRANCH  18  19
ATOM     19  C   UNL     1      -0.051   3.847   0.046  0.00  0.00    +0.130 A 
ATOM     20  C   UNL     1      -0.409   3.136  -1.091  0.00  0.00    +0.046 A 
ATOM     21  C   UNL     1      -0.398   1.754  -1.076  0.00  0.00    +0.005 A 
ATOM     22  C   UNL     1      -0.031   1.076   0.070  0.00  0.00    +0.023 A 
ATOM     23  C   UNL     1       0.323   1.782   1.213  0.00  0.00    +0.028 A 
ATOM     24  C   UNL     1       0.318   3.170   1.198  0.00  0.00    +0.069 A 
BRANCH  23  25
ATOM     25  N   UNL     1       0.688   1.096   2.374  0.00  0.00    -0.358 N 
ATOM     26  H   UNL     1       0.695   0.126   2.382  0.00  0.00    +0.142 HD
ATOM     27  H   UNL     1       0.935   1.590   3.171  0.00  0.00    +0.142 HD
ENDBRANCH  23  25
ENDBRANCH  18  19
ENDBRANCH   7  18
TORSDOF 4
