REMARK  Name = ZINC12770968
REMARK  9 active torsions:
REMARK  status: ('A' for Active; 'I' for Inactive)
REMARK    1  A    between atoms: C_1  and  C_2
REMARK    2  A    between atoms: C_4  and  C_29
REMARK    3  A    between atoms: C_5  and  N_9
REMARK    4  A    between atoms: C_6  and  C_8
REMARK    5  A    between atoms: C_10  and  C_12
REMARK    6  A    between atoms: C_12  and  N_13
REMARK    7  A    between atoms: C_16  and  C_20
REMARK    8  A    between atoms: C_16  and  C_21
REMARK    9  A    between atoms: C_24  and  C_27
REMARK                            x       y       z     vdW  Elec       q    Type
REMARK                         _______ _______ _______ _____ _____    ______ ____
ROOT
ATOM      1  N   UNL     1      -1.265   2.675  -2.410  0.00  0.00    -0.215 N 
ATOM      2  C   UNL     1      -2.608   2.581  -2.447  0.00  0.00    +0.251 C 
ATOM      3  O   UNL     1      -3.356   3.091  -3.253  0.00  0.00    -0.272 OA
ATOM      4  C   UNL     1      -2.991   1.703  -1.272  0.00  0.00    +0.135 C 
ATOM      5  N   UNL     1      -1.696   1.374  -0.651  0.00  0.00    -0.281 N 
ATOM      6  C   UNL     1      -0.750   1.986  -1.385  0.00  0.00    +0.310 C 
ATOM      7  O   UNL     1       0.440   1.920  -1.145  0.00  0.00    -0.252 OA
ATOM      8  C   UNL     1      -3.879   2.469  -0.290  0.00  0.00    +0.047 C 
ATOM      9  H   UNL     1      -1.554   0.822   0.135  0.00  0.00    +0.152 HD
ENDROOT
BRANCH   4  10
ATOM     10  C   UNL     1      -3.684   0.452  -1.747  0.00  0.00    -0.015 A 
ATOM     11  C   UNL     1      -4.508   0.502  -2.858  0.00  0.00    +0.007 A 
ATOM     12  C   UNL     1      -5.142  -0.640  -3.301  0.00  0.00    +0.019 A 
ATOM     13  C   UNL     1      -4.959  -1.846  -2.621  0.00  0.00    +0.052 A 
ATOM     14  C   UNL     1      -4.130  -1.887  -1.498  0.00  0.00    +0.019 A 
ATOM     15  C   UNL     1      -3.498  -0.739  -1.068  0.00  0.00    +0.007 A 
BRANCH  13  16
ATOM     16  C   UNL     1      -5.618  -3.034  -3.072  0.00  0.00    +0.099 C 
ATOM     17  N   UNL     1      -6.141  -3.977  -3.431  0.00  0.00    -0.191 NA
ENDBRANCH  13  16
ENDBRANCH   4  10
BRANCH   1  18
ATOM     18  C   UNL     1      -0.466   3.437  -3.373  0.00  0.00    +0.214 C 
BRANCH  18  20
ATOM     19  N   UNL     1       0.651   3.036  -5.543  0.00  0.00    -0.284 N 
ATOM     20  C   UNL     1      -0.089   2.546  -4.529  0.00  0.00    +0.235 C 
ATOM     21  O   UNL     1      -0.452   1.389  -4.546  0.00  0.00    -0.274 OA
ATOM     22  H   UNL     1       0.897   3.974  -5.556  0.00  0.00    +0.155 HD
BRANCH  19  27
ATOM     23  C   UNL     1       2.330  -0.391  -9.741  0.00  0.00    +0.044 C 
ATOM     24  C   UNL     1       1.884   0.519  -8.626  0.00  0.00    -0.050 A 
ATOM     25  C   UNL     1       1.231   1.702  -8.921  0.00  0.00    +0.008 A 
ATOM     26  C   UNL     1       0.821   2.539  -7.901  0.00  0.00    -0.029 A 
ATOM     27  C   UNL     1       1.065   2.191  -6.579  0.00  0.00    +0.039 A 
ATOM     28  C   UNL     1       1.727   1.005  -6.287  0.00  0.00    -0.029 A 
ATOM     29  C   UNL     1       2.129   0.170  -7.311  0.00  0.00    +0.008 A 
ATOM     30  C   UNL     1       1.999   0.627  -4.854  0.00  0.00    +0.045 C 
ATOM     31  C   UNL     1       0.110   3.828  -8.223  0.00  0.00    +0.045 C 
ENDBRANCH  19  27
ENDBRANCH  18  20
ENDBRANCH   1  18
TORSDOF 5
