REMARK  Name = ZINC39231972
REMARK  10 active torsions:
REMARK  status: ('A' for Active; 'I' for Inactive)
REMARK    1  A    between atoms: C_1  and  C_2
REMARK    2  A    between atoms: C_4  and  O_33
REMARK    3  A    between atoms: C_11  and  C_16
REMARK    4  A    between atoms: C_13  and  C_15
REMARK    5  A    between atoms: C_16  and  C_17
REMARK    6  A    between atoms: N_19  and  C_20
REMARK    7  A    between atoms: C_20  and  C_21
REMARK    8  A    between atoms: C_21  and  C_22
REMARK    9  A    between atoms: C_25  and  O_31
REMARK   10  A    between atoms: O_31  and  C_32
REMARK                            x       y       z     vdW  Elec       q    Type
REMARK                         _______ _______ _______ _____ _____    ______ ____
ROOT
ATOM      1  C   UNL     1      -2.389  -5.389   2.657  0.00  0.00    +0.214 C 
ATOM      2  O   UNL     1      -1.585  -5.893   3.412  0.00  0.00    -0.276 OA
ATOM      3  N   UNL     1      -3.701  -5.403   2.962  0.00  0.00    -0.315 N 
ATOM      4  H   UNL     1      -4.344  -5.000   2.358  0.00  0.00    +0.149 HD
ENDROOT
BRANCH   1   5
ATOM      5  C   UNL     1      -1.919  -4.746   1.377  0.00  0.00    +0.111 C 
BRANCH   5  16
ATOM      6  C   UNL     1      -0.018   1.503   0.010  0.00  0.00    +0.044 C 
ATOM      7  C   UNL     1       0.002  -0.004   0.002  0.00  0.00    -0.044 A 
ATOM      8  C   UNL     1       0.006  -0.689  -1.198  0.00  0.00    +0.049 A 
ATOM      9  C   UNL     1       0.029  -2.075  -1.204  0.00  0.00    +0.124 A 
ATOM     10  C   UNL     1       0.046  -2.780  -0.006  0.00  0.00    +0.040 A 
ATOM     11  C   UNL     1       0.036  -2.093   1.193  0.00  0.00    +0.139 A 
ATOM     12  C   UNL     1       0.023  -0.701   1.193  0.00  0.00    +0.050 A 
ATOM     13  O   UNL     1       0.031  -2.738   2.391  0.00  0.00    -0.425 OA
ATOM     14  C   UNL     1       0.258  -4.067   2.383  0.00  0.00    +0.317 C 
ATOM     15  O   UNL     1       0.950  -4.596   3.220  0.00  0.00    -0.250 OA
ATOM     16  C   UNL     1      -0.397  -4.867   1.274  0.00  0.00    +0.114 C 
ATOM     17  C   UNL     1       0.082  -4.287  -0.060  0.00  0.00    +0.037 C 
ATOM     18  C   UNL     1       1.514  -4.752  -0.331  0.00  0.00    +0.013 C 
BRANCH   9  19
ATOM     19  O   UNL     1       0.035  -2.746  -2.386  0.00  0.00    -0.506 OA
ATOM     20  H   UNL     1       0.919  -2.926  -2.732  0.00  0.00    +0.292 HD
ENDBRANCH   9  19
ENDBRANCH   5  16
ENDBRANCH   1   5
BRANCH   3  21
ATOM     21  C   UNL     1      -4.157  -6.028   4.206  0.00  0.00    +0.109 C 
BRANCH  21  22
ATOM     22  C   UNL     1      -5.679  -5.907   4.309  0.00  0.00    +0.056 C 
BRANCH  22  23
ATOM     23  C   UNL     1      -6.149  -6.550   5.589  0.00  0.00    -0.021 A 
ATOM     24  C   UNL     1      -6.204  -5.920   6.910  0.00  0.00    +0.006 A 
ATOM     25  C   UNL     1      -5.880  -4.651   7.393  0.00  0.00    +0.056 A 
ATOM     26  C   UNL     1      -6.054  -4.366   8.733  0.00  0.00    +0.121 A 
ATOM     27  C   UNL     1      -6.550  -5.337   9.598  0.00  0.00    +0.047 A 
ATOM     28  C   UNL     1      -6.872  -6.593   9.133  0.00  0.00    +0.030 A 
ATOM     29  C   UNL     1      -6.705  -6.900   7.787  0.00  0.00    +0.047 A 
ATOM     30  N   UNL     1      -6.932  -8.036   7.040  0.00  0.00    -0.360 N 
ATOM     31  C   UNL     1      -6.600  -7.806   5.732  0.00  0.00    +0.087 A 
ATOM     32  H   UNL     1      -7.279  -8.872   7.388  0.00  0.00    +0.165 HD
BRANCH  26  33
ATOM     33  O   UNL     1      -5.740  -3.131   9.209  0.00  0.00    -0.495 OA
ATOM     34  C   UNL     1      -5.944  -2.903  10.605  0.00  0.00    +0.277 C 
ENDBRANCH  26  33
ENDBRANCH  22  23
ENDBRANCH  21  22
ENDBRANCH   3  21
TORSDOF 7
