REMARK  Name = ZINC34892363
REMARK  9 active torsions:
REMARK  status: ('A' for Active; 'I' for Inactive)
REMARK    1  A    between atoms: C_1  and  C_2
REMARK    2  A    between atoms: C_2  and  N_3
REMARK    3  A    between atoms: N_3  and  C_4
REMARK    4  A    between atoms: N_3  and  C_17
REMARK    5  A    between atoms: C_4  and  C_5
REMARK    6  A    between atoms: C_17  and  C_18
REMARK    7  A    between atoms: N_23  and  C_24
REMARK    8  A    between atoms: C_27  and  C_31
REMARK    9  A    between atoms: C_29  and  C_30
REMARK                            x       y       z     vdW  Elec       q    Type
REMARK                         _______ _______ _______ _____ _____    ______ ____
ROOT
ATOM      1  C   UNL     1      -2.036  -0.060  -1.101  0.00  0.00    +0.181 C 
ENDROOT
BRANCH   1   2
ATOM      2  C   UNL     1      -1.995   1.444  -1.189  0.00  0.00    +0.234 C 
ATOM      3  O   UNL     1      -1.444   2.087  -0.322  0.00  0.00    -0.274 OA
ATOM      4  N   UNL     1      -2.572   2.073  -2.232  0.00  0.00    -0.239 N 
ATOM      5  C   UNL     1      -2.535   3.418  -2.312  0.00  0.00    +0.310 C 
ATOM      6  O   UNL     1      -1.983   4.063  -1.442  0.00  0.00    -0.252 OA
ATOM      7  N   UNL     1      -3.112   4.047  -3.355  0.00  0.00    -0.269 N 
ATOM      8  H   UNL     1      -3.013   1.558  -2.926  0.00  0.00    +0.159 HD
ATOM      9  H   UNL     1      -3.603   3.537  -4.017  0.00  0.00    +0.156 HD
BRANCH   7  10
ATOM     10  C   UNL     1      -3.001   5.437  -3.482  0.00  0.00    +0.038 A 
ATOM     11  C   UNL     1      -2.815   6.226  -2.354  0.00  0.00    +0.024 A 
ATOM     12  C   UNL     1      -2.707   7.596  -2.482  0.00  0.00    +0.005 A 
ATOM     13  C   UNL     1      -2.783   8.183  -3.732  0.00  0.00    -0.050 A 
ATOM     14  C   UNL     1      -2.969   7.401  -4.857  0.00  0.00    +0.008 A 
ATOM     15  C   UNL     1      -3.071   6.028  -4.736  0.00  0.00    -0.029 A 
ATOM     16  C   UNL     1      -3.267   5.175  -5.962  0.00  0.00    +0.045 C 
ATOM     17  C   UNL     1      -2.664   9.680  -3.869  0.00  0.00    +0.044 C 
ENDBRANCH   7  10
ENDBRANCH   1   2
BRANCH   1  18
ATOM     18  N   UNL     1      -1.259  -0.503   0.065  0.00  0.00    -0.287 NA
BRANCH  18  20
ATOM     19  C   UNL     1       0.131  -2.142  -1.110  0.00  0.00    +0.020 C 
ATOM     20  C   UNL     1      -0.934  -1.933  -0.032  0.00  0.00    +0.082 C 
ENDBRANCH  18  20
BRANCH  18  21
ATOM     21  C   UNL     1      -1.971  -0.208   1.315  0.00  0.00    +0.159 C 
BRANCH  21  22
ATOM     22  C   UNL     1      -1.051  -0.447   2.485  0.00  0.00    +0.125 A 
ATOM     23  N   UNL     1      -1.532  -0.232   3.737  0.00  0.00    -0.309 N 
ATOM     24  H   UNL     1      -2.448   0.067   3.856  0.00  0.00    +0.170 HD
ATOM     25  C   UNL     1      -0.747  -0.432   4.821  0.00  0.00    +0.259 A 
ATOM     26  O   UNL     1      -1.165  -0.244   5.949  0.00  0.00    -0.267 OA
ATOM     27  C   UNL     1       0.632  -0.886   4.584  0.00  0.00    +0.065 A 
ATOM     28  C   UNL     1       1.521  -1.121   5.630  0.00  0.00    +0.015 A 
ATOM     29  C   UNL     1       2.802  -1.544   5.350  0.00  0.00    +0.001 A 
ATOM     30  C   UNL     1       3.210  -1.738   4.037  0.00  0.00    +0.002 A 
ATOM     31  C   UNL     1       2.347  -1.512   2.989  0.00  0.00    +0.028 A 
ATOM     32  C   UNL     1       1.044  -1.082   3.247  0.00  0.00    +0.078 A 
ATOM     33  N   UNL     1       0.159  -0.852   2.245  0.00  0.00    -0.232 NA
ENDBRANCH  21  22
ENDBRANCH  18  21
ENDBRANCH   1  18
TORSDOF 6
