REMARK  Name = ZINC05905909
REMARK  4 active torsions:
REMARK  status: ('A' for Active; 'I' for Inactive)
REMARK    1  A    between atoms: C_4  and  C_7
REMARK    2  A    between atoms: C_10  and  N_12
REMARK    3  A    between atoms: C_13  and  C_15
REMARK    4  A    between atoms: C_16  and  N_28
REMARK                            x       y       z     vdW  Elec       q    Type
REMARK                         _______ _______ _______ _____ _____    ______ ____
ROOT
ATOM      1  C   UNL     1       1.203   1.939   0.001  0.00  0.00    +0.102 A 
ATOM      2  C   UNL     1       2.490   1.447  -0.014  0.00  0.00    +0.054 A 
ATOM      3  C   UNL     1       3.591   2.397  -0.020  0.00  0.00    +0.027 A 
ATOM      4  C   UNL     1       4.982   2.142  -0.033  0.00  0.00    +0.017 A 
ATOM      5  C   UNL     1       5.871   3.201  -0.036  0.00  0.00    -0.028 A 
ATOM      6  C   UNL     1       5.398   4.500  -0.030  0.00  0.00    +0.020 A 
ATOM      7  N   UNL     1       4.092   4.731  -0.015  0.00  0.00    -0.352 N 
ATOM      8  C   UNL     1       3.211   3.758  -0.010  0.00  0.00    +0.088 A 
ATOM      9  S   UNL     1       1.436   3.705   0.000  0.00  0.00    -0.064 S 
ATOM     10  C   UNL     1       6.315   5.696  -0.049  0.00  0.00    +0.053 C 
ATOM     11  C   UNL     1       7.729   5.294   0.365  0.00  0.00    +0.006 C 
ATOM     12  C   UNL     1       8.158   4.091  -0.482  0.00  0.00    +0.005 C 
ATOM     13  C   UNL     1       7.342   2.877  -0.043  0.00  0.00    +0.037 C 
ATOM     14  H   UNL     1       3.716   5.764  -0.006  0.00  0.00    +0.166 HD
ENDROOT
BRANCH   1  16
ATOM     15  N   UNL     1      -1.191   1.872   0.018  0.00  0.00    -0.180 NA
ATOM     16  C   UNL     1      -0.014   1.214   0.009  0.00  0.00    +0.288 C 
ATOM     17  O   UNL     1       0.002  -0.004   0.002  0.00  0.00    -0.265 OA
BRANCH  15  21
ATOM     18  C   UNL     1      -4.841   0.134   0.025  0.00  0.00    +0.134 A 
ATOM     19  N   UNL     1      -3.759  -0.635   0.016  0.00  0.00    -0.139 NA
ATOM     20  N   UNL     1      -2.595  -0.149   0.008  0.00  0.00    -0.121 NA
ATOM     21  C   UNL     1      -2.383   1.161   0.020  0.00  0.00    +0.219 A 
ATOM     22  S   UNL     1      -4.074   1.752   0.031  0.00  0.00    -0.026 S 
BRANCH  18  26
ATOM     23  C   UNL     1      -8.951  -0.938   0.039  0.00  0.00    +0.000 A 
ATOM     24  C   UNL     1      -7.982  -1.925   0.028  0.00  0.00    +0.001 A 
ATOM     25  C   UNL     1      -6.645  -1.584   0.024  0.00  0.00    +0.010 A 
ATOM     26  C   UNL     1      -6.271  -0.239   0.030  0.00  0.00    +0.009 A 
ATOM     27  C   UNL     1      -7.254   0.752   0.046  0.00  0.00    +0.010 A 
ATOM     28  C   UNL     1      -8.587   0.397   0.045  0.00  0.00    +0.001 A 
ENDBRANCH  18  26
ENDBRANCH  15  21
ENDBRANCH   1  16
BRANCH   2  29
ATOM     29  N   UNL     1       2.729   0.080  -0.024  0.00  0.00    -0.356 N 
ATOM     30  H   UNL     1       3.762  -0.298  -0.036  0.00  0.00    +0.142 HD
ATOM     31  H   UNL     1       1.885  -0.626  -0.020  0.00  0.00    +0.142 HD
ENDBRANCH   2  29
TORSDOF 4
