REMARK  Name = ZINC09913202
REMARK  8 active torsions:
REMARK  status: ('A' for Active; 'I' for Inactive)
REMARK    1  A    between atoms: C_1  and  C_2
REMARK    2  A    between atoms: C_8  and  N_10
REMARK    3  A    between atoms: C_11  and  C_13
REMARK    4  A    between atoms: C_13  and  S_14
REMARK    5  A    between atoms: S_14  and  C_15
REMARK    6  A    between atoms: N_19  and  C_20
REMARK    7  A    between atoms: C_20  and  C_21
REMARK    8  A    between atoms: C_20  and  C_22
REMARK                            x       y       z     vdW  Elec       q    Type
REMARK                         _______ _______ _______ _____ _____    ______ ____
ROOT
ATOM      1  N   UNL     1       0.031  -0.392   2.498  0.00  0.00    -0.312 N 
ATOM      2  C   UNL     1       1.002  -1.057   3.155  0.00  0.00    +0.224 C 
ATOM      3  O   UNL     1       1.860  -0.442   3.752  0.00  0.00    -0.275 OA
ATOM      4  H   UNL     1      -0.655  -0.884   2.020  0.00  0.00    +0.149 HD
ENDROOT
BRANCH   1  11
ATOM      5  C   UNL     1      -0.013   1.086   0.008  0.00  0.00    +0.009 C 
ATOM      6  C   UNL     1      -0.729   1.579   1.267  0.00  0.00    +0.006 C 
ATOM      7  C   UNL     1      -2.164   1.050   1.278  0.00  0.00    +0.005 C 
ATOM      8  C   UNL     1      -2.880   1.543   2.537  0.00  0.00    +0.000 C 
ATOM      9  C   UNL     1      -2.140   1.036   3.776  0.00  0.00    +0.002 C 
ATOM     10  C   UNL     1      -0.705   1.566   3.765  0.00  0.00    +0.022 C 
ATOM     11  C   UNL     1       0.011   1.072   2.506  0.00  0.00    +0.076 C 
ENDBRANCH   1  11
BRANCH   2  12
ATOM     12  C   UNL     1       1.023  -2.564   3.147  0.00  0.00    +0.173 C 
BRANCH  12  13
ATOM     13  S   UNL     1       2.438  -3.153   4.109  0.00  0.00    -0.075 S 
BRANCH  13  14
ATOM     14  C   UNL     1       2.223  -4.893   3.935  0.00  0.00    +0.210 A 
ATOM     15  N   UNL     1       1.261  -5.500   3.273  0.00  0.00    -0.101 NA
ATOM     16  N   UNL     1       1.401  -6.774   3.344  0.00  0.00    -0.022 NA
ATOM     17  N   UNL     1       2.437  -7.073   4.050  0.00  0.00    -0.043 NA
ATOM     18  N   UNL     1       3.012  -5.858   4.463  0.00  0.00    -0.218 N 
BRANCH  18  19
ATOM     19  C   UNL     1       4.209  -5.676   5.287  0.00  0.00    +0.106 C 
ATOM     20  C   UNL     1       3.998  -6.344   6.648  0.00  0.00    +0.032 C 
ATOM     21  C   UNL     1       5.412  -6.312   4.588  0.00  0.00    +0.032 C 
ENDBRANCH  18  19
ENDBRANCH  13  14
ENDBRANCH  12  13
ENDBRANCH   2  12
TORSDOF 5
