REMARK  Name = ZINC39680356
REMARK  8 active torsions:
REMARK  status: ('A' for Active; 'I' for Inactive)
REMARK    1  A    between atoms: C_1  and  C_2
REMARK    2  A    between atoms: C_5  and  C_8
REMARK    3  A    between atoms: C_8  and  C_10
REMARK    4  A    between atoms: C_8  and  N_14
REMARK    5  A    between atoms: C_10  and  C_11
REMARK    6  A    between atoms: C_15  and  C_17
REMARK    7  A    between atoms: C_24  and  C_29
REMARK    8  A    between atoms: C_26  and  C_28
REMARK                            x       y       z     vdW  Elec       q    Type
REMARK                         _______ _______ _______ _____ _____    ______ ____
ROOT
ATOM      1  N   UNL     1      -0.812  -4.383   1.129  0.00  0.00    -0.304 N 
ATOM      2  C   UNL     1      -1.546  -5.510   1.205  0.00  0.00    +0.248 C 
ATOM      3  O   UNL     1      -1.593  -6.270   0.257  0.00  0.00    -0.270 OA
ATOM      4  H   UNL     1      -0.830  -3.742   1.857  0.00  0.00    +0.150 HD
ENDROOT
BRANCH   2   5
ATOM      5  C   UNL     1      -2.292  -5.823   2.439  0.00  0.00    +0.079 A 
ATOM      6  C   UNL     1      -2.243  -4.949   3.525  0.00  0.00    +0.017 A 
ATOM      7  C   UNL     1      -2.938  -5.239   4.679  0.00  0.00    +0.001 A 
ATOM      8  C   UNL     1      -3.686  -6.404   4.763  0.00  0.00    +0.007 A 
ATOM      9  C   UNL     1      -3.739  -7.274   3.698  0.00  0.00    +0.001 A 
ATOM     10  C   UNL     1      -3.059  -6.999   2.519  0.00  0.00    +0.137 A 
ATOM     11  O   UNL     1      -3.268  -7.969   1.591  0.00  0.00    -0.487 OA
ATOM     12  C   UNL     1      -3.744  -9.157   2.245  0.00  0.00    +0.178 C 
ATOM     13  C   UNL     1      -4.447  -8.601   3.503  0.00  0.00    +0.060 C 
ATOM     14  C   UNL     1      -5.938  -8.391   3.232  0.00  0.00    +0.016 C 
ATOM     15  C   UNL     1      -2.577 -10.063   2.642  0.00  0.00    +0.052 C 
ENDBRANCH   2   5
BRANCH   1  16
ATOM     16  C   UNL     1       0.014  -4.124  -0.053  0.00  0.00    +0.114 C 
BRANCH  16  21
ATOM     17  C   UNL     1       0.757   1.573  -0.675  0.00  0.00    +0.044 C 
ATOM     18  C   UNL     1       0.564   0.087  -0.513  0.00  0.00    -0.050 A 
ATOM     19  C   UNL     1       0.349  -0.708  -1.623  0.00  0.00    +0.004 A 
ATOM     20  C   UNL     1       0.171  -2.070  -1.475  0.00  0.00    +0.006 A 
ATOM     21  C   UNL     1       0.209  -2.639  -0.215  0.00  0.00    -0.027 A 
ATOM     22  C   UNL     1       0.425  -1.845   0.895  0.00  0.00    +0.006 A 
ATOM     23  C   UNL     1       0.607  -0.482   0.746  0.00  0.00    +0.004 A 
ENDBRANCH  16  21
BRANCH  16  24
ATOM     24  C   UNL     1       1.376  -4.801   0.118  0.00  0.00    +0.152 C 
BRANCH  24  25
ATOM     25  C   UNL     1       2.164  -4.674  -1.159  0.00  0.00    +0.358 C 
ATOM     26  O   UNL     1       1.638  -4.212  -2.157  0.00  0.00    -0.246 OA
ATOM     27  O   UNL     1       3.329  -5.033  -1.195  0.00  0.00    -0.246 OA
ENDBRANCH  24  25
ENDBRANCH  16  24
ENDBRANCH   1  16
TORSDOF 5
