REMARK  Name = ZINC12769318
REMARK  9 active torsions:
REMARK  status: ('A' for Active; 'I' for Inactive)
REMARK    1  A    between atoms: C_4  and  S_28
REMARK    2  A    between atoms: C_5  and  N_7
REMARK    3  A    between atoms: C_8  and  C_10
REMARK    4  A    between atoms: C_10  and  C_11
REMARK    5  A    between atoms: C_11  and  C_12
REMARK    6  A    between atoms: C_12  and  C_13
REMARK    7  A    between atoms: C_13  and  C_14
REMARK    8  A    between atoms: S_28  and  C_29
REMARK    9  A    between atoms: C_29  and  C_30
REMARK                            x       y       z     vdW  Elec       q    Type
REMARK                         _______ _______ _______ _____ _____    ______ ____
ROOT
ATOM      1  N   UNL     1      -1.391   2.052   4.427  0.00  0.00    -0.285 N 
ATOM      2  C   UNL     1      -1.797   2.216   5.701  0.00  0.00    +0.217 C 
ATOM      3  O   UNL     1      -1.136   1.762   6.612  0.00  0.00    -0.275 OA
ATOM      4  H   UNL     1      -1.875   2.483   3.704  0.00  0.00    +0.155 HD
ENDROOT
BRANCH   1   9
ATOM      5  C   UNL     1       1.225  -0.515   4.748  0.00  0.00    +0.002 A 
ATOM      6  C   UNL     1       1.952  -0.302   3.591  0.00  0.00    +0.001 A 
ATOM      7  C   UNL     1       1.573   0.688   2.705  0.00  0.00    +0.016 A 
ATOM      8  C   UNL     1       0.460   1.472   2.975  0.00  0.00    +0.030 A 
ATOM      9  C   UNL     1      -0.269   1.261   4.145  0.00  0.00    +0.047 A 
ATOM     10  C   UNL     1       0.115   0.261   5.025  0.00  0.00    +0.024 A 
BRANCH   8  11
ATOM     11  S   UNL     1      -0.026   2.735   1.846  0.00  0.00    -0.114 S 
BRANCH  11  12
ATOM     12  C   UNL     1       1.203   2.632   0.516  0.00  0.00    +0.169 C 
BRANCH  12  13
ATOM     13  C   UNL     1       0.900   3.673  -0.530  0.00  0.00    +0.221 C 
ATOM     14  O   UNL     1      -0.052   4.412  -0.392  0.00  0.00    -0.275 OA
ATOM     15  N   UNL     1       1.686   3.783  -1.619  0.00  0.00    -0.329 N 
ATOM     16  H   UNL     1       2.447   3.192  -1.730  0.00  0.00    +0.145 HD
ATOM     17  H   UNL     1       1.491   4.454  -2.293  0.00  0.00    +0.145 HD
ENDBRANCH  12  13
ENDBRANCH  11  12
ENDBRANCH   8  11
ENDBRANCH   1   9
BRANCH   2  18
ATOM     18  C   UNL     1      -3.072   2.963   5.996  0.00  0.00    +0.096 C 
BRANCH  18  19
ATOM     19  C   UNL     1      -3.301   3.006   7.508  0.00  0.00    +0.009 C 
BRANCH  19  20
ATOM     20  C   UNL     1      -4.596   3.764   7.807  0.00  0.00    +0.002 C 
BRANCH  20  21
ATOM     21  C   UNL     1      -4.824   3.806   9.319  0.00  0.00    +0.028 C 
BRANCH  21  22
ATOM     22  C   UNL     1      -6.119   4.565   9.618  0.00  0.00    +0.152 C 
ATOM     23  C   UNL     1      -6.451   4.522  11.125  0.00  0.00    +0.120 C 
ATOM     24  C   UNL     1      -7.014   5.839  11.668  0.00  0.00    +0.117 C 
ATOM     25  C   UNL     1      -7.148   6.945  10.599  0.00  0.00    +0.190 C 
ATOM     26  S   UNL     1      -5.905   6.377   9.342  0.00  0.00    -0.025 S 
ATOM     27  O   UNL     1      -4.596   6.761   9.740  0.00  0.00    -0.174 OA
ATOM     28  O   UNL     1      -6.376   6.715   8.045  0.00  0.00    -0.174 OA
ATOM     29  N   UNL     1      -8.358   5.482  12.149  0.00  0.00    -0.293 N 
ATOM     30  C   UNL     1      -8.566   4.176  11.932  0.00  0.00    +0.300 C 
ATOM     31  O   UNL     1      -9.599   3.610  12.234  0.00  0.00    -0.253 OA
ATOM     32  N   UNL     1      -7.539   3.558  11.351  0.00  0.00    -0.293 N 
ATOM     33  H   UNL     1      -8.991   6.093  12.557  0.00  0.00    +0.151 HD
ATOM     34  H   UNL     1      -7.516   2.617  11.117  0.00  0.00    +0.151 HD
ENDBRANCH  21  22
ENDBRANCH  20  21
ENDBRANCH  19  20
ENDBRANCH  18  19
ENDBRANCH   2  18
TORSDOF 9
