REMARK  Name = ZINC40390340
REMARK  11 active torsions:
REMARK  status: ('A' for Active; 'I' for Inactive)
REMARK    1  A    between atoms: C_1  and  C_2
REMARK    2  A    between atoms: C_6  and  C_8
REMARK    3  A    between atoms: C_11  and  C_27
REMARK    4  A    between atoms: C_21  and  C_23
REMARK    5  A    between atoms: C_23  and  C_24
REMARK    6  A    between atoms: C_24  and  C_25
REMARK    7  A    between atoms: C_24  and  C_26
REMARK    8  A    between atoms: N_29  and  C_30
REMARK    9  A    between atoms: C_30  and  C_31
REMARK   10  A    between atoms: C_31  and  C_32
REMARK   11  A    between atoms: C_31  and  C_33
REMARK                            x       y       z     vdW  Elec       q    Type
REMARK                         _______ _______ _______ _____ _____    ______ ____
ROOT
ATOM      1  C   UNL     1       0.863  -2.790   1.882  0.00  0.00    +0.249 C 
ATOM      2  O   UNL     1       1.172  -2.011   2.762  0.00  0.00    -0.270 OA
ATOM      3  N   UNL     1       0.423  -4.024   2.198  0.00  0.00    -0.255 N 
ATOM      4  C   UNL     1      -0.035  -5.073   1.260  0.00  0.00    +0.190 C 
ATOM      5  C   UNL     1      -0.899  -5.987   2.164  0.00  0.00    +0.194 C 
ATOM      6  O   UNL     1      -0.183  -5.948   3.420  0.00  0.00    -0.353 OA
ATOM      7  C   UNL     1       0.306  -4.603   3.545  0.00  0.00    +0.142 C 
ATOM      8  C   UNL     1      -0.679  -3.780   4.375  0.00  0.00    +0.074 C 
ATOM      9  C   UNL     1      -0.174  -2.337   4.480  0.00  0.00    +0.112 C 
ATOM     10  N   UNL     1       1.198  -2.354   5.005  0.00  0.00    -0.301 N 
ATOM     11  C   UNL     1       2.205  -3.180   4.324  0.00  0.00    +0.112 C 
ATOM     12  C   UNL     1       1.678  -4.615   4.221  0.00  0.00    +0.074 C 
ATOM     13  C   UNL     1       1.527  -1.626   6.090  0.00  0.00    +0.216 C 
ATOM     14  O   UNL     1       0.687  -0.949   6.644  0.00  0.00    -0.276 OA
ENDROOT
BRANCH   1  20
ATOM     15  C   UNL     1       1.203   0.800  -1.568  0.00  0.00    +0.044 C 
ATOM     16  C   UNL     1       1.134  -0.660  -1.200  0.00  0.00    -0.050 A 
ATOM     17  C   UNL     1       1.171  -1.625  -2.191  0.00  0.00    +0.003 A 
ATOM     18  C   UNL     1       1.108  -2.967  -1.862  0.00  0.00    +0.001 A 
ATOM     19  C   UNL     1       1.008  -3.352  -0.541  0.00  0.00    +0.013 A 
ATOM     20  C   UNL     1       0.971  -2.385   0.464  0.00  0.00    +0.037 A 
ATOM     21  C   UNL     1       1.040  -1.032   0.125  0.00  0.00    +0.016 A 
ENDBRANCH   1  20
BRANCH   4  22
ATOM     22  C   UNL     1      -0.862  -4.475   0.152  0.00  0.00    +0.236 C 
ATOM     23  O   UNL     1      -1.337  -3.366   0.280  0.00  0.00    -0.274 OA
ATOM     24  N   UNL     1      -1.075  -5.171  -0.982  0.00  0.00    -0.313 N 
ATOM     25  H   UNL     1      -0.696  -6.058  -1.085  0.00  0.00    +0.149 HD
BRANCH  24  26
ATOM     26  C   UNL     1      -1.880  -4.590  -2.059  0.00  0.00    +0.107 C 
BRANCH  26  27
ATOM     27  C   UNL     1      -1.966  -5.579  -3.223  0.00  0.00    -0.000 C 
ATOM     28  C   UNL     1      -2.906  -5.025  -4.295  0.00  0.00    +0.009 C 
ATOM     29  C   UNL     1      -0.573  -5.783  -3.823  0.00  0.00    +0.009 C 
ENDBRANCH  26  27
ENDBRANCH  24  26
ENDBRANCH   4  22
BRANCH  13  30
ATOM     30  C   UNL     1       2.939  -1.654   6.617  0.00  0.00    +0.099 C 
BRANCH  30  31
ATOM     31  C   UNL     1       3.043  -0.749   7.846  0.00  0.00    -0.008 C 
ATOM     32  C   UNL     1       4.441  -0.873   8.454  0.00  0.00    +0.008 C 
ATOM     33  C   UNL     1       2.794   0.703   7.432  0.00  0.00    +0.008 C 
ENDBRANCH  30  31
ENDBRANCH  13  30
TORSDOF 6
