REMARK  Name = ZINC65056873
REMARK  5 active torsions:
REMARK  status: ('A' for Active; 'I' for Inactive)
REMARK    1  A    between atoms: C_1  and  C_2
REMARK    2  A    between atoms: C_9  and  C_12
REMARK    3  A    between atoms: C_10  and  C_11
REMARK    4  A    between atoms: N_14  and  C_15
REMARK    5  A    between atoms: C_15  and  C_20
REMARK                            x       y       z     vdW  Elec       q    Type
REMARK                         _______ _______ _______ _____ _____    ______ ____
ROOT
ATOM      1  C   UNL     1      -0.018   1.503   0.010  0.00  0.00    +0.047 C 
ATOM      2  C   UNL     1       0.002  -0.004   0.002  0.00  0.00    -0.008 A 
ATOM      3  C   UNL     1       0.006  -0.688  -1.195  0.00  0.00    +0.007 A 
ATOM      4  C   UNL     1       0.024  -2.076  -1.218  0.00  0.00    +0.001 A 
ATOM      5  C   UNL     1       0.039  -2.788  -0.052  0.00  0.00    +0.012 A 
ATOM      6  C   UNL     1       0.036  -2.114   1.171  0.00  0.00    +0.024 A 
ATOM      7  C   UNL     1       0.023  -0.707   1.201  0.00  0.00    +0.139 A 
ATOM      8  O   UNL     1       0.030  -0.327   2.493  0.00  0.00    -0.450 OA
ATOM      9  C   UNL     1       0.053  -1.402   3.310  0.00  0.00    +0.193 A 
ATOM     10  C   UNL     1       0.048  -2.540   2.570  0.00  0.00    +0.008 A 
ATOM     11  C   UNL     1       0.068  -3.956   3.085  0.00  0.00    +0.048 C 
ENDROOT
BRANCH   9  12
ATOM     12  C   UNL     1       0.067  -1.347   4.779  0.00  0.00    +0.281 C 
ATOM     13  O   UNL     1       0.088  -2.378   5.425  0.00  0.00    -0.267 OA
ATOM     14  N   UNL     1       0.057  -0.156   5.409  0.00  0.00    -0.291 N 
ATOM     15  H   UNL     1       0.041   0.665   4.894  0.00  0.00    +0.151 HD
BRANCH  14  16
ATOM     16  C   UNL     1       0.071  -0.103   6.873  0.00  0.00    +0.122 C 
ATOM     17  C   UNL     1      -1.204  -0.762   7.438  0.00  0.00    +0.041 C 
ATOM     18  C   UNL     1      -1.569   0.109   8.666  0.00  0.00    +0.003 C 
ATOM     19  C   UNL     1      -1.228   1.540   8.184  0.00  0.00    +0.003 C 
ATOM     20  C   UNL     1       0.056   1.361   7.347  0.00  0.00    +0.041 C 
BRANCH  16  21
ATOM     21  C   UNL     1       1.267  -0.788   7.391  0.00  0.00    +0.088 C 
ATOM     22  N   UNL     1       2.189  -1.316   7.791  0.00  0.00    -0.194 NA
ENDBRANCH  16  21
ENDBRANCH  14  16
ENDBRANCH   9  12
TORSDOF 3
