REMARK  Name = ZINC18263623
REMARK  5 active torsions:
REMARK  status: ('A' for Active; 'I' for Inactive)
REMARK    1  A    between atoms: C_4  and  N_25
REMARK    2  A    between atoms: C_5  and  C_7
REMARK    3  A    between atoms: C_7  and  O_9
REMARK    4  A    between atoms: O_9  and  C_10
REMARK    5  A    between atoms: C_10  and  C_11
REMARK                            x       y       z     vdW  Elec       q    Type
REMARK                         _______ _______ _______ _____ _____    ______ ____
ROOT
ATOM      1  C   UNL     1       2.767   2.603   0.136  0.00  0.00    +0.170 A 
ATOM      2  N   UNL     1       2.007   1.553  -0.120  0.00  0.00    -0.214 NA
ATOM      3  C   UNL     1       2.422   0.315   0.091  0.00  0.00    +0.128 A 
ATOM      4  C   UNL     1       3.730   0.102   0.610  0.00  0.00    +0.051 A 
ATOM      5  C   UNL     1       4.398  -1.163   0.921  0.00  0.00    -0.025 A 
ATOM      6  C   UNL     1       5.653  -1.088   1.408  0.00  0.00    -0.004 A 
ATOM      7  S   UNL     1       6.018   0.645   1.481  0.00  0.00    -0.073 S 
ATOM      8  C   UNL     1       4.480   1.269   0.857  0.00  0.00    +0.114 A 
ATOM      9  N   UNL     1       3.987   2.469   0.618  0.00  0.00    -0.221 NA
ATOM     10  C   UNL     1       6.544  -2.227   1.801  0.00  0.00    +0.043 C 
ATOM     11  C   UNL     1       5.685  -3.495   1.921  0.00  0.00    +0.005 C 
ATOM     12  C   UNL     1       4.797  -3.604   0.678  0.00  0.00    +0.005 C 
ATOM     13  C   UNL     1       3.723  -2.516   0.711  0.00  0.00    +0.037 C 
ATOM     14  N   UNL     1       1.597  -0.759  -0.191  0.00  0.00    -0.343 N 
ATOM     15  H   UNL     1       0.787  -0.625  -0.709  0.00  0.00    +0.144 HD
ATOM     16  H   UNL     1       1.827  -1.645   0.130  0.00  0.00    +0.144 HD
ENDROOT
BRANCH   1  17
ATOM     17  C   UNL     1       2.228   3.985  -0.129  0.00  0.00    +0.308 C 
BRANCH  17  18
ATOM     18  O   UNL     1       1.557   4.479   1.060  0.00  0.00    -0.452 OA
BRANCH  18  19
ATOM     19  C   UNL     1       1.014   5.710   0.990  0.00  0.00    +0.362 C 
ATOM     20  O   UNL     1       1.099   6.354  -0.036  0.00  0.00    -0.243 OA
BRANCH  19  25
ATOM     21  C   UNL     1      -0.298   6.138   4.366  0.00  0.00    +0.131 A 
ATOM     22  C   UNL     1      -0.967   7.350   4.260  0.00  0.00    +0.132 A 
ATOM     23  N   UNL     1      -0.984   8.005   3.114  0.00  0.00    -0.237 NA
ATOM     24  C   UNL     1      -0.360   7.504   2.054  0.00  0.00    +0.149 A 
ATOM     25  C   UNL     1       0.316   6.277   2.161  0.00  0.00    +0.187 A 
ATOM     26  N   UNL     1       0.320   5.626   3.321  0.00  0.00    -0.244 NA
BRANCH  24  27
ATOM     27  N   UNL     1      -0.375   8.186   0.852  0.00  0.00    -0.341 N 
ATOM     28  H   UNL     1      -0.230   7.708   0.021  0.00  0.00    +0.144 HD
ATOM     29  H   UNL     1      -0.529   9.144   0.840  0.00  0.00    +0.144 HD
ENDBRANCH  24  27
ENDBRANCH  19  25
ENDBRANCH  18  19
ENDBRANCH  17  18
ENDBRANCH   1  17
TORSDOF 5
