REMARK  Name = ZINC04140117
REMARK  8 active torsions:
REMARK  status: ('A' for Active; 'I' for Inactive)
REMARK    1  A    between atoms: C_1  and  N_2
REMARK    2  A    between atoms: N_2  and  C_3
REMARK    3  A    between atoms: N_2  and  C_4
REMARK    4  A    between atoms: C_7  and  C_10
REMARK    5  A    between atoms: C_12  and  C_24
REMARK    6  A    between atoms: C_14  and  C_19
REMARK    7  A    between atoms: C_14  and  O_23
REMARK    8  A    between atoms: C_24  and  C_26
REMARK                            x       y       z     vdW  Elec       q    Type
REMARK                         _______ _______ _______ _____ _____    ______ ____
ROOT
ATOM      1  C   UNL     1      -0.019   1.528   0.010  0.00  0.00    +0.120 C 
ATOM      2  C   UNL     1       0.002  -0.004   0.002  0.00  0.00    +0.144 C 
ATOM      3  C   UNL     1       0.820  -0.474  -1.205  0.00  0.00    +0.243 C 
ATOM      4  N   UNL     1       2.151   0.134  -1.150  0.00  0.00    -0.264 N 
ATOM      5  C   UNL     1       2.349   1.327  -0.570  0.00  0.00    +0.302 C 
ATOM      6  O   UNL     1       3.473   1.791  -0.560  0.00  0.00    -0.253 OA
ATOM      7  N   UNL     1       1.357   2.027   0.000  0.00  0.00    -0.292 N 
ATOM      8  H   UNL     1       2.905  -0.336  -1.540  0.00  0.00    +0.153 HD
ATOM      9  H   UNL     1       1.556   2.882   0.413  0.00  0.00    +0.151 HD
ENDROOT
BRANCH   1  13
ATOM     10  C   UNL     1      -2.013   2.910   3.529  0.00  0.00    +0.029 A 
ATOM     11  C   UNL     1      -2.688   2.872   2.316  0.00  0.00    +0.023 A 
ATOM     12  C   UNL     1      -2.041   2.425   1.181  0.00  0.00    +0.007 A 
ATOM     13  C   UNL     1      -0.722   2.015   1.251  0.00  0.00    -0.026 A 
ATOM     14  C   UNL     1      -0.048   2.047   2.458  0.00  0.00    +0.007 A 
ATOM     15  C   UNL     1      -0.688   2.498   3.596  0.00  0.00    +0.023 A 
BRANCH  10  17
ATOM     16  C   UNL     1      -4.061   3.797   4.606  0.00  0.00    +0.129 C 
ATOM     17  N   UNL     1      -2.664   3.362   4.679  0.00  0.00    -0.336 N 
ATOM     18  C   UNL     1      -1.950   3.402   5.958  0.00  0.00    +0.129 C 
ENDBRANCH  10  17
ENDBRANCH   1  13
BRANCH   3  19
ATOM     19  C   UNL     1       0.953  -1.998  -1.171  0.00  0.00    +0.436 C 
ATOM     20  F   UNL     1      -0.320  -2.578  -1.217  0.00  0.00    -0.166 F 
ATOM     21  F   UNL     1       1.700  -2.426  -2.274  0.00  0.00    -0.166 F 
ATOM     22  F   UNL     1       1.599  -2.384   0.008  0.00  0.00    -0.166 F 
ENDBRANCH   3  19
BRANCH   3  23
ATOM     23  O   UNL     1       0.164  -0.077  -2.411  0.00  0.00    -0.364 OA
ATOM     24  H   UNL     1       0.628  -0.343  -3.217  0.00  0.00    +0.212 HD
ENDBRANCH   3  23
BRANCH   2  25
ATOM     25  C   UNL     1      -1.407  -0.529  -0.102  0.00  0.00    +0.174 C 
ATOM     26  O   UNL     1      -2.253   0.116  -0.684  0.00  0.00    -0.291 OA
BRANCH  25  27
ATOM     27  C   UNL     1      -1.756  -1.824   0.504  0.00  0.00    +0.036 A 
ATOM     28  C   UNL     1      -3.065  -2.321   0.420  0.00  0.00    +0.014 A 
ATOM     29  C   UNL     1      -3.339  -3.545   1.002  0.00  0.00    +0.020 A 
ATOM     30  C   UNL     1      -2.326  -4.229   1.652  0.00  0.00    +0.111 A 
ATOM     31  N   UNL     1      -1.105  -3.735   1.720  0.00  0.00    -0.263 NA
ATOM     32  C   UNL     1      -0.791  -2.577   1.178  0.00  0.00    +0.122 A 
ENDBRANCH  25  27
ENDBRANCH   2  25
TORSDOF 6
