REMARK  Name = ZINC01624388
REMARK  6 active torsions:
REMARK  status: ('A' for Active; 'I' for Inactive)
REMARK    1  A    between atoms: C_1  and  C_2
REMARK    2  A    between atoms: C_11  and  C_12
REMARK    3  A    between atoms: C_11  and  O_28
REMARK    4  A    between atoms: C_12  and  C_14
REMARK    5  A    between atoms: C_12  and  C_20
REMARK    6  A    between atoms: C_20  and  C_22
REMARK                            x       y       z     vdW  Elec       q    Type
REMARK                         _______ _______ _______ _____ _____    ______ ____
ROOT
ATOM      1  C   UNL     1       2.071  -1.893   5.094  0.00  0.00    +0.047 C 
ATOM      2  C   UNL     1       1.448  -0.751   4.333  0.00  0.00    -0.011 A 
ATOM      3  C   UNL     1       1.614   0.545   4.779  0.00  0.00    +0.046 A 
ATOM      4  C   UNL     1       1.046   1.600   4.087  0.00  0.00    +0.021 A 
ATOM      5  C   UNL     1       0.307   1.355   2.942  0.00  0.00    +0.010 A 
ATOM      6  C   UNL     1       0.141   0.063   2.496  0.00  0.00    +0.015 A 
ATOM      7  C   UNL     1       0.706  -1.005   3.182  0.00  0.00    +0.044 A 
ATOM      8  N   UNL     1       0.401  -2.206   2.540  0.00  0.00    -0.282 N 
ATOM      9  C   UNL     1      -0.350  -2.019   1.442  0.00  0.00    +0.255 C 
ATOM     10  O   UNL     1      -0.761  -2.881   0.694  0.00  0.00    -0.272 OA
ATOM     11  C   UNL     1      -0.588  -0.529   1.312  0.00  0.00    +0.182 C 
ATOM     12 CL   UNL     1       2.541   0.853   6.214  0.00  0.00    -0.083 Cl
ATOM     13  H   UNL     1       0.696  -3.076   2.851  0.00  0.00    +0.155 HD
ENDROOT
BRANCH  11  14
ATOM     14  O   UNL     1      -1.984  -0.234   1.385  0.00  0.00    -0.374 OA
ATOM     15  H   UNL     1      -2.410  -0.545   2.196  0.00  0.00    +0.211 HD
ENDBRANCH  11  14
BRANCH  11  16
ATOM     16  C   UNL     1       0.002  -0.004   0.002  0.00  0.00    +0.135 C 
BRANCH  16  17
ATOM     17  C   UNL     1      -0.193   1.488  -0.074  0.00  0.00    -0.033 A 
ATOM     18  C   UNL     1      -1.467   2.014  -0.184  0.00  0.00    +0.004 A 
ATOM     19  C   UNL     1      -1.646   3.383  -0.249  0.00  0.00    +0.000 A 
ATOM     20  C   UNL     1      -0.550   4.226  -0.214  0.00  0.00    +0.000 A 
ATOM     21  C   UNL     1       0.724   3.700  -0.110  0.00  0.00    +0.000 A 
ATOM     22  C   UNL     1       0.902   2.331  -0.040  0.00  0.00    +0.004 A 
ENDBRANCH  16  17
BRANCH  16  23
ATOM     23  C   UNL     1      -0.694  -0.662  -1.162  0.00  0.00    +0.174 C 
ATOM     24  O   UNL     1      -1.850  -1.011  -1.058  0.00  0.00    -0.291 OA
BRANCH  23  25
ATOM     25  C   UNL     1       0.030  -0.879  -2.425  0.00  0.00    +0.018 A 
ATOM     26  C   UNL     1       1.362  -0.472  -2.550  0.00  0.00    +0.011 A 
ATOM     27  C   UNL     1       2.035  -0.685  -3.735  0.00  0.00    +0.001 A 
ATOM     28  C   UNL     1       1.392  -1.289  -4.801  0.00  0.00    +0.000 A 
ATOM     29  C   UNL     1       0.072  -1.689  -4.687  0.00  0.00    +0.001 A 
ATOM     30  C   UNL     1      -0.613  -1.489  -3.507  0.00  0.00    +0.011 A 
ENDBRANCH  23  25
ENDBRANCH  16  23
ENDBRANCH  11  16
TORSDOF 5
