REMARK  Name = ZINC65714893
REMARK  4 active torsions:
REMARK  status: ('A' for Active; 'I' for Inactive)
REMARK    1  A    between atoms: C_3  and  C_6
REMARK    2  A    between atoms: C_9  and  C_14
REMARK    3  A    between atoms: C_14  and  O_16
REMARK    4  A    between atoms: O_16  and  C_17
REMARK                            x       y       z     vdW  Elec       q    Type
REMARK                         _______ _______ _______ _____ _____    ______ ____
ROOT
ATOM      1  C   UNL     1       3.556   0.605  -0.067  0.00  0.00    +0.085 A 
ATOM      2  C   UNL     1       4.269   1.797  -0.103  0.00  0.00    +0.030 A 
ATOM      3  C   UNL     1       5.653   1.773  -0.117  0.00  0.00    +0.022 A 
ATOM      4  C   UNL     1       6.314   0.538  -0.095  0.00  0.00    +0.124 A 
ATOM      5  C   UNL     1       5.552  -0.656  -0.058  0.00  0.00    +0.263 A 
ATOM      6  O   UNL     1       6.115  -1.737  -0.038  0.00  0.00    -0.267 OA
ATOM      7  N   UNL     1       4.207  -0.598  -0.040  0.00  0.00    -0.319 N 
ATOM      8  H   UNL     1       3.693  -1.420  -0.010  0.00  0.00    +0.169 HD
ENDROOT
BRANCH   1  11
ATOM      9  C   UNL     1      -0.022   1.325  -0.048  0.00  0.00    +0.042 A 
ATOM     10  C   UNL     1       1.312   1.760  -0.074  0.00  0.00    +0.051 A 
ATOM     11  C   UNL     1       2.092   0.637  -0.051  0.00  0.00    +0.151 A 
ATOM     12  O   UNL     1       1.276  -0.436  -0.012  0.00  0.00    -0.461 OA
ATOM     13  C   UNL     1       0.000  -0.025  -0.009  0.00  0.00    +0.196 A 
ENDBRANCH   1  11
BRANCH   4  14
ATOM     14  C   UNL     1       7.779   0.482  -0.110  0.00  0.00    +0.350 C 
ATOM     15  O   UNL     1       8.426   1.512  -0.142  0.00  0.00    -0.244 OA
BRANCH  14  16
ATOM     16  O   UNL     1       8.408  -0.710  -0.088  0.00  0.00    -0.422 OA
BRANCH  16  17
ATOM     17  C   UNL     1       9.762  -0.719  -0.206  0.00  0.00    +0.132 A 
ATOM     18  C   UNL     1      10.557  -0.383   0.880  0.00  0.00    +0.046 A 
ATOM     19  C   UNL     1      11.932  -0.394   0.756  0.00  0.00    +0.007 A 
ATOM     20  C   UNL     1      12.521  -0.739  -0.450  0.00  0.00    -0.044 A 
ATOM     21  C   UNL     1      11.731  -1.074  -1.534  0.00  0.00    -0.041 A 
ATOM     22  C   UNL     1      10.353  -1.070  -1.410  0.00  0.00    +0.050 A 
ATOM     23  C   UNL     1      12.608  -1.408  -2.722  0.00  0.00    +0.036 C 
ATOM     24  C   UNL     1      13.993  -0.821  -2.379  0.00  0.00    +0.009 C 
ATOM     25  C   UNL     1      13.983  -0.825  -0.836  0.00  0.00    +0.036 C 
ENDBRANCH  16  17
ENDBRANCH  14  16
ENDBRANCH   4  14
TORSDOF 4
