REMARK  Name = ZINC12498021
REMARK  9 active torsions:
REMARK  status: ('A' for Active; 'I' for Inactive)
REMARK    1  A    between atoms: C_1  and  N_2
REMARK    2  A    between atoms: N_2  and  C_3
REMARK    3  A    between atoms: N_2  and  C_4
REMARK    4  A    between atoms: C_7  and  C_10
REMARK    5  A    between atoms: N_18  and  C_21
REMARK    6  A    between atoms: C_31  and  C_32
REMARK    7  A    between atoms: C_31  and  C_38
REMARK    8  A    between atoms: C_38  and  O_40
REMARK    9  A    between atoms: O_40  and  C_41
REMARK                            x       y       z     vdW  Elec       q    Type
REMARK                         _______ _______ _______ _____ _____    ______ ____
ROOT
ATOM      1  C   UNL     1       1.406   1.967  -0.001  0.00  0.00    -0.026 C 
ATOM      2  C   UNL     1       2.201   0.738  -0.137  0.00  0.00    +0.078 C 
ATOM      3  C   UNL     1       1.345  -0.331   0.646  0.00  0.00    +0.090 C 
ATOM      4  C   UNL     1       2.137  -1.529   0.227  0.00  0.00    +0.229 C 
ATOM      5  O   UNL     1       1.715  -2.646   0.017  0.00  0.00    -0.275 OA
ATOM      6  N   UNL     1       3.434  -1.107   0.129  0.00  0.00    -0.210 N 
ATOM      7  C   UNL     1       3.545   0.261   0.094  0.00  0.00    +0.229 C 
ATOM      8  O   UNL     1       4.551   0.924   0.227  0.00  0.00    -0.275 OA
ATOM      9  C   UNL     1       0.002  -0.004   0.002  0.00  0.00    +0.070 C 
ATOM     10  N   UNL     1      -0.007   1.488   0.010  0.00  0.00    +0.398 N 
ATOM     11  H   UNL     1      -0.498   1.836  -0.822  0.00  0.00    -0.083 HD
ATOM     12  H   UNL     1      -0.482   1.827   0.855  0.00  0.00    -0.083 HD
ENDROOT
BRANCH   6  13
ATOM     13  C   UNL     1       4.532  -1.978   0.071  0.00  0.00    +0.048 A 
ATOM     14  C   UNL     1       4.333  -3.351   0.112  0.00  0.00    +0.028 A 
ATOM     15  C   UNL     1       5.414  -4.209   0.055  0.00  0.00    +0.051 A 
ATOM     16  C   UNL     1       6.701  -3.702  -0.043  0.00  0.00    +0.162 A 
ATOM     17  C   UNL     1       6.904  -2.328  -0.087  0.00  0.00    +0.164 A 
ATOM     18  C   UNL     1       5.818  -1.467  -0.034  0.00  0.00    +0.073 A 
ATOM     19  O   UNL     1       8.159  -1.811  -0.188  0.00  0.00    -0.485 OA
ATOM     20  C   UNL     1       9.243  -2.688   0.137  0.00  0.00    +0.270 C 
ATOM     21  C   UNL     1       8.999  -4.033  -0.561  0.00  0.00    +0.270 C 
ATOM     22  O   UNL     1       7.755  -4.563  -0.090  0.00  0.00    -0.485 OA
ENDBRANCH   6  13
BRANCH   1  26
ATOM     23  C   UNL     1       2.347   3.954   3.664  0.00  0.00    +0.029 A 
ATOM     24  C   UNL     1       2.851   4.435   2.462  0.00  0.00    +0.023 A 
ATOM     25  C   UNL     1       2.545   3.790   1.280  0.00  0.00    +0.004 A 
ATOM     26  C   UNL     1       1.738   2.667   1.291  0.00  0.00    -0.060 A 
ATOM     27  C   UNL     1       1.230   2.190   2.486  0.00  0.00    +0.004 A 
ATOM     28  C   UNL     1       1.537   2.826   3.672  0.00  0.00    +0.023 A 
BRANCH  23  30
ATOM     29  C   UNL     1       3.511   5.793   4.851  0.00  0.00    +0.129 C 
ATOM     30  N   UNL     1       2.655   4.603   4.862  0.00  0.00    -0.336 N 
ATOM     31  C   UNL     1       2.123   4.095   6.128  0.00  0.00    +0.129 C 
ENDBRANCH  23  30
ENDBRANCH   1  26
BRANCH   9  32
ATOM     32  C   UNL     1      -1.133  -0.557   0.825  0.00  0.00    -0.047 A 
ATOM     33  C   UNL     1      -0.983  -1.762   1.487  0.00  0.00    +0.003 A 
ATOM     34  C   UNL     1      -2.023  -2.267   2.246  0.00  0.00    +0.000 A 
ATOM     35  C   UNL     1      -3.215  -1.572   2.334  0.00  0.00    +0.000 A 
ATOM     36  C   UNL     1      -3.366  -0.370   1.668  0.00  0.00    +0.000 A 
ATOM     37  C   UNL     1      -2.325   0.137   0.913  0.00  0.00    +0.003 A 
ENDBRANCH   9  32
BRANCH   9  38
ATOM     38  C   UNL     1      -0.059  -0.530  -1.409  0.00  0.00    +0.301 C 
ATOM     39  O   UNL     1       0.562  -1.521  -1.711  0.00  0.00    -0.252 OA
BRANCH  38  40
ATOM     40  O   UNL     1      -0.804   0.102  -2.329  0.00  0.00    -0.469 OA
ATOM     41  C   UNL     1      -0.816  -0.461  -3.667  0.00  0.00    +0.280 C 
ENDBRANCH  38  40
ENDBRANCH   9  38
TORSDOF 6
