REMARK  Name = ZINC15276481
REMARK  8 active torsions:
REMARK  status: ('A' for Active; 'I' for Inactive)
REMARK    1  A    between atoms: C_1  and  C_2
REMARK    2  A    between atoms: C_5  and  C_8
REMARK    3  A    between atoms: C_15  and  O_16
REMARK    4  A    between atoms: C_18  and  C_25
REMARK    5  A    between atoms: C_18  and  O_26
REMARK    6  A    between atoms: C_19  and  C_21
REMARK    7  A    between atoms: C_21  and  O_23
REMARK    8  A    between atoms: O_23  and  C_24
REMARK                            x       y       z     vdW  Elec       q    Type
REMARK                         _______ _______ _______ _____ _____    ______ ____
ROOT
ATOM      1  C   UNL     1      -0.101   0.992   4.857  0.00  0.00    +0.072 C 
ATOM      2  C   UNL     1       1.226   1.545   5.314  0.00  0.00    +0.044 A 
ATOM      3  C   UNL     1       1.782   2.739   4.825  0.00  0.00    +0.046 A 
ATOM      4  N   UNL     1       2.925   2.930   5.418  0.00  0.00    -0.278 N 
ATOM      5  N   UNL     1       3.140   1.868   6.310  0.00  0.00    -0.136 NA
ATOM      6  H   UNL     1       3.542   3.701   5.265  0.00  0.00    +0.189 HD
ATOM      7  C   UNL     1       2.080   1.030   6.227  0.00  0.00    +0.235 A 
ATOM      8  C   UNL     1       1.110   3.607   3.789  0.00  0.00    +0.090 C 
ATOM      9  C   UNL     1      -0.368   3.205   3.713  0.00  0.00    +0.082 C 
ATOM     10  C   UNL     1      -0.484   1.688   3.545  0.00  0.00    +0.141 C 
ATOM     11  C   UNL     1      -1.077   3.630   5.001  0.00  0.00    +0.042 C 
ENDROOT
BRANCH   1  16
ATOM     12  C   UNL     1       0.361  -4.701   3.980  0.00  0.00    +0.044 C 
ATOM     13  C   UNL     1       0.240  -3.216   4.208  0.00  0.00    -0.050 A 
ATOM     14  C   UNL     1      -0.914  -2.694   4.761  0.00  0.00    +0.003 A 
ATOM     15  C   UNL     1      -1.024  -1.332   4.971  0.00  0.00    +0.004 A 
ATOM     16  C   UNL     1       0.019  -0.493   4.628  0.00  0.00    -0.039 A 
ATOM     17  C   UNL     1       1.171  -1.015   4.070  0.00  0.00    +0.004 A 
ATOM     18  C   UNL     1       1.283  -2.377   3.864  0.00  0.00    +0.003 A 
ENDBRANCH   1  16
BRANCH   7  19
ATOM     19  O   UNL     1       1.906  -0.117   6.931  0.00  0.00    -0.491 OA
ATOM     20  H   UNL     1       2.691  -0.260   7.535  0.00  0.00    +0.294 HD
ENDBRANCH   7  19
BRANCH  10  21
ATOM     21  C   UNL     1       0.442   1.234   2.447  0.00  0.00    +0.314 C 
ATOM     22  O   UNL     1       1.638   1.337   2.584  0.00  0.00    -0.250 OA
BRANCH  21  23
ATOM     23  O   UNL     1      -0.061   0.714   1.316  0.00  0.00    -0.468 OA
ATOM     24  C   UNL     1       0.890   0.297   0.302  0.00  0.00    +0.280 C 
ENDBRANCH  21  23
ENDBRANCH  10  21
BRANCH   9  25
ATOM     25  O   UNL     1      -0.981   3.855   2.598  0.00  0.00    -0.388 OA
ATOM     26  H   UNL     1      -0.945   4.820   2.637  0.00  0.00    +0.210 HD
ENDBRANCH   9  25
TORSDOF 5
