REMARK  Name = ZINC13465589
REMARK  8 active torsions:
REMARK  status: ('A' for Active; 'I' for Inactive)
REMARK    1  A    between atoms: C_3  and  N_21
REMARK    2  A    between atoms: C_5  and  S_7
REMARK    3  A    between atoms: S_7  and  N_10
REMARK    4  A    between atoms: N_10  and  C_11
REMARK    5  A    between atoms: C_14  and  S_17
REMARK    6  A    between atoms: S_17  and  C_18
REMARK    7  A    between atoms: C_22  and  C_24
REMARK    8  A    between atoms: C_31  and  C_33
REMARK                            x       y       z     vdW  Elec       q    Type
REMARK                         _______ _______ _______ _____ _____    ______ ____
ROOT
ATOM      1  C   UNL     1      -0.576   1.647  -0.331  0.00  0.00    +0.004 A 
ATOM      2  C   UNL     1      -1.617   2.546  -0.460  0.00  0.00    +0.023 A 
ATOM      3  C   UNL     1      -1.377   3.908  -0.334  0.00  0.00    +0.035 A 
ATOM      4  C   UNL     1      -0.087   4.363  -0.090  0.00  0.00    +0.052 A 
ATOM      5  C   UNL     1       0.950   3.460   0.033  0.00  0.00    +0.110 A 
ATOM      6  C   UNL     1       0.707   2.103  -0.087  0.00  0.00    +0.029 A 
ENDROOT
BRANCH   3   7
ATOM      7  N   UNL     1      -2.430   4.820  -0.460  0.00  0.00    -0.285 N 
ATOM      8  C   UNL     1      -3.666   4.484  -0.040  0.00  0.00    +0.222 C 
ATOM      9  O   UNL     1      -3.847   3.430   0.531  0.00  0.00    -0.275 OA
ATOM     10  H   UNL     1      -2.271   5.694  -0.849  0.00  0.00    +0.155 HD
BRANCH   8  11
ATOM     11  C   UNL     1      -4.823   5.419  -0.281  0.00  0.00    +0.096 C 
ATOM     12  C   UNL     1      -6.145   4.816   0.292  0.00  0.00    +0.025 C 
ATOM     13  C   UNL     1      -6.008   5.219   1.806  0.00  0.00    +0.016 C 
ATOM     14  C   UNL     1      -5.875   6.752   1.480  0.00  0.00    +0.027 C 
ATOM     15  C   UNL     1      -4.640   6.730   0.523  0.00  0.00    +0.121 C 
ATOM     16  C   UNL     1      -7.073   6.924   0.538  0.00  0.00    -0.027 C 
ATOM     17  C   UNL     1      -7.229   5.808  -0.146  0.00  0.00    -0.027 C 
BRANCH  15  18
ATOM     18  C   UNL     1      -4.662   7.923  -0.397  0.00  0.00    +0.360 C 
ATOM     19  O   UNL     1      -4.808   7.766  -1.586  0.00  0.00    -0.246 OA
ATOM     20  O   UNL     1      -4.519   9.160   0.104  0.00  0.00    -0.246 OA
ENDBRANCH  15  18
ENDBRANCH   8  11
ENDBRANCH   3   7
BRANCH   5  21
ATOM     21  S   UNL     1       2.586   4.036   0.343  0.00  0.00    +0.072 S 
ATOM     22  O   UNL     1       2.463   5.362   0.836  0.00  0.00    -0.150 OA
ATOM     23  O   UNL     1       3.247   3.010   1.072  0.00  0.00    -0.150 OA
BRANCH  21  24
ATOM     24  N   UNL     1       3.353   4.144  -1.121  0.00  0.00    -0.216 N 
ATOM     25  H   UNL     1       4.133   3.597  -1.302  0.00  0.00    +0.174 HD
BRANCH  24  26
ATOM     26  C   UNL     1       2.875   5.027  -2.097  0.00  0.00    +0.048 A 
ATOM     27  C   UNL     1       2.200   4.535  -3.207  0.00  0.00    +0.025 A 
ATOM     28  C   UNL     1       1.725   5.406  -4.168  0.00  0.00    +0.017 A 
ATOM     29  C   UNL     1       1.931   6.773  -4.029  0.00  0.00    +0.013 A 
ATOM     30  C   UNL     1       2.611   7.264  -2.922  0.00  0.00    +0.017 A 
ATOM     31  C   UNL     1       3.081   6.393  -1.959  0.00  0.00    +0.025 A 
BRANCH  29  32
ATOM     32  S   UNL     1       1.332   7.883  -5.259  0.00  0.00    -0.056 S 
BRANCH  32  33
ATOM     33  C   UNL     1       0.534   6.801  -6.476  0.00  0.00    +0.404 C 
ATOM     34  F   UNL     1       1.476   5.904  -6.991  0.00  0.00    -0.197 F 
ATOM     35  F   UNL     1      -0.500   6.088  -5.860  0.00  0.00    -0.197 F 
ENDBRANCH  32  33
ENDBRANCH  29  32
ENDBRANCH  24  26
ENDBRANCH  21  24
ENDBRANCH   5  21
TORSDOF 8
