REMARK  Name = ZINC40461028
REMARK  3 active torsions:
REMARK  status: ('A' for Active; 'I' for Inactive)
REMARK    1  A    between atoms: C_6  and  S_7
REMARK    2  A    between atoms: S_7  and  N_10
REMARK    3  A    between atoms: C_15  and  C_17
REMARK                            x       y       z     vdW  Elec       q    Type
REMARK                         _______ _______ _______ _____ _____    ______ ____
ROOT
ATOM      1  S   UNL     1      -2.487  -1.700   0.105  0.00  0.00    +0.062 S 
ATOM      2  O   UNL     1      -2.981  -0.458   0.587  0.00  0.00    -0.153 OA
ATOM      3  O   UNL     1      -1.231  -2.228   0.507  0.00  0.00    -0.153 OA
ENDROOT
BRANCH   1   9
ATOM      4  C   UNL     1      -3.334  -4.243   0.632  0.00  0.00    +0.032 A 
ATOM      5  C   UNL     1      -4.277  -5.197   0.954  0.00  0.00    +0.048 A 
ATOM      6  C   UNL     1      -5.604  -4.830   1.159  0.00  0.00    +0.124 A 
ATOM      7  C   UNL     1      -5.959  -3.493   1.027  0.00  0.00    -0.001 A 
ATOM      8  C   UNL     1      -5.016  -2.542   0.710  0.00  0.00    +0.035 A 
ATOM      9  C   UNL     1      -3.698  -2.914   0.511  0.00  0.00    +0.106 A 
ATOM     10  C   UNL     1      -7.452  -3.403   1.279  0.00  0.00    +0.080 C 
ATOM     11  C   UNL     1      -7.886  -4.883   1.165  0.00  0.00    +0.234 C 
ATOM     12  O   UNL     1      -6.681  -5.595   1.491  0.00  0.00    -0.491 OA
ENDBRANCH   1   9
BRANCH   1  13
ATOM     13  N   UNL     1      -2.445  -1.584  -1.547  0.00  0.00    -0.165 NA
ATOM     14  C   UNL     1      -3.435  -0.769  -2.265  0.00  0.00    +0.110 C 
ATOM     15  C   UNL     1      -4.102  -1.635  -3.338  0.00  0.00    +0.017 C 
ATOM     16  C   UNL     1      -3.024  -2.250  -4.234  0.00  0.00    +0.003 C 
ATOM     17  C   UNL     1      -2.107  -3.142  -3.394  0.00  0.00    +0.030 C 
ATOM     18  C   UNL     1      -1.414  -2.288  -2.321  0.00  0.00    +0.165 C 
BRANCH  18  19
ATOM     19  C   UNL     1      -0.614  -3.177  -1.404  0.00  0.00    +0.229 C 
ATOM     20  O   UNL     1      -1.135  -4.143  -0.889  0.00  0.00    -0.274 OA
ATOM     21  N   UNL     1       0.682  -2.898  -1.158  0.00  0.00    -0.328 N 
ATOM     22  H   UNL     1       1.099  -2.125  -1.571  0.00  0.00    +0.145 HD
ATOM     23  H   UNL     1       1.197  -3.470  -0.568  0.00  0.00    +0.145 HD
ENDBRANCH  18  19
ENDBRANCH   1  13
TORSDOF 3
