REMARK  Name = ZINC19928890
REMARK  12 active torsions:
REMARK  status: ('A' for Active; 'I' for Inactive)
REMARK    1  A    between atoms: C_1  and  C_2
REMARK    2  A    between atoms: C_3  and  C_31
REMARK    3  A    between atoms: C_4  and  C_10
REMARK    4  A    between atoms: C_12  and  C_20
REMARK    5  A    between atoms: C_14  and  O_18
REMARK    6  A    between atoms: C_15  and  O_16
REMARK    7  A    between atoms: O_16  and  C_17
REMARK    8  A    between atoms: O_18  and  C_19
REMARK    9  A    between atoms: N_23  and  C_25
REMARK   10  A    between atoms: C_31  and  O_33
REMARK   11  A    between atoms: O_33  and  C_34
REMARK   12  A    between atoms: C_34  and  C_35
REMARK                            x       y       z     vdW  Elec       q    Type
REMARK                         _______ _______ _______ _____ _____    ______ ____
ROOT
ATOM      1  C   UNL     1      -0.004   1.386   0.011  0.00  0.00    +0.023 A 
ATOM      2  C   UNL     1       1.169   2.098   0.163  0.00  0.00    +0.019 A 
ATOM      3  C   UNL     1       2.394   1.435   0.145  0.00  0.00    +0.006 A 
ATOM      4  C   UNL     1       2.434   0.053  -0.027  0.00  0.00    +0.059 A 
ATOM      5  C   UNL     1       1.257  -0.657  -0.179  0.00  0.00    +0.162 A 
ATOM      6  C   UNL     1       0.035   0.011  -0.161  0.00  0.00    +0.167 A 
ENDROOT
BRANCH   1  10
ATOM      7  C   UNL     1      -1.222   5.959   0.076  0.00  0.00    +0.061 C 
ATOM      8  C   UNL     1      -1.447   4.519   0.458  0.00  0.00    +0.021 C 
ATOM      9  C   UNL     1      -1.085   3.540  -0.399  0.00  0.00    +0.078 C 
ATOM     10  C   UNL     1      -1.328   2.106   0.025  0.00  0.00    +0.147 C 
ATOM     11  N   UNL     1      -1.944   1.896   1.346  0.00  0.00    -0.288 N 
ATOM     12  C   UNL     1      -2.252   2.977   2.089  0.00  0.00    +0.304 C 
ATOM     13  O   UNL     1      -2.761   2.814   3.181  0.00  0.00    -0.252 OA
ATOM     14  N   UNL     1      -2.014   4.224   1.665  0.00  0.00    -0.273 N 
ATOM     15  H   UNL     1      -2.144   0.875   1.704  0.00  0.00    +0.151 HD
ATOM     16  H   UNL     1      -2.303   5.036   2.349  0.00  0.00    +0.156 HD
BRANCH   9  17
ATOM     17  C   UNL     1      -0.497   3.843  -1.649  0.00  0.00    +0.339 C 
ATOM     18  O   UNL     1      -0.387   5.002  -2.005  0.00  0.00    -0.245 OA
BRANCH  17  19
ATOM     19  O   UNL     1      -0.058   2.848  -2.447  0.00  0.00    -0.457 OA
BRANCH  19  20
ATOM     20  C   UNL     1       0.627   3.229  -3.643  0.00  0.00    +0.259 C 
BRANCH  20  21
ATOM     21  C   UNL     1       0.937   1.999  -4.458  0.00  0.00    +0.006 C 
ATOM     22  C   UNL     1       0.718   1.998  -5.749  0.00  0.00    +0.007 C 
ENDBRANCH  20  21
ENDBRANCH  19  20
ENDBRANCH  17  19
ENDBRANCH   9  17
ENDBRANCH   1  10
BRANCH   3  23
ATOM     23  C   UNL     1       3.655   2.200   0.308  0.00  0.00    +0.093 A 
ATOM     24  C   UNL     1       4.959   1.675   0.216  0.00  0.00    +0.050 A 
ATOM     25  C   UNL     1       5.830   2.688   0.420  0.00  0.00    +0.115 A 
ATOM     26  N   UNL     1       5.110   3.818   0.645  0.00  0.00    -0.239 N 
ATOM     27  N   UNL     1       3.751   3.487   0.569  0.00  0.00    -0.166 NA
BRANCH  26  28
ATOM     28  C   UNL     1       5.635   5.090   0.905  0.00  0.00    +0.065 A 
ATOM     29  C   UNL     1       7.009   5.279   0.958  0.00  0.00    +0.028 A 
ATOM     30  C   UNL     1       7.524   6.535   1.209  0.00  0.00    +0.002 A 
ATOM     31  C   UNL     1       6.671   7.604   1.420  0.00  0.00    +0.000 A 
ATOM     32  C   UNL     1       5.301   7.418   1.374  0.00  0.00    +0.002 A 
ATOM     33  C   UNL     1       4.781   6.165   1.117  0.00  0.00    +0.028 A 
ENDBRANCH  26  28
ENDBRANCH   3  23
BRANCH   6  34
ATOM     34  O   UNL     1      -1.123  -0.687  -0.310  0.00  0.00    -0.491 OA
ATOM     35  C   UNL     1      -1.547  -0.961  -1.647  0.00  0.00    +0.277 C 
ENDBRANCH   6  34
BRANCH   5  36
ATOM     36  O   UNL     1       1.292  -2.006  -0.348  0.00  0.00    -0.491 OA
ATOM     37  C   UNL     1       2.580  -2.625  -0.357  0.00  0.00    +0.277 C 
ENDBRANCH   5  36
TORSDOF 9
