REMARK  Name = ZINC37022360
REMARK  3 active torsions:
REMARK  status: ('A' for Active; 'I' for Inactive)
REMARK    1  A    between atoms: C_1  and  C_2
REMARK    2  A    between atoms: C_1  and  S_8
REMARK    3  A    between atoms: S_8  and  C_9
REMARK                            x       y       z     vdW  Elec       q    Type
REMARK                         _______ _______ _______ _____ _____    ______ ____
ROOT
ATOM      1  C   UNL     1       1.492   3.882   0.009  0.00  0.00    +0.210 A 
ATOM      2  N   UNL     1       2.489   4.774  -0.001  0.00  0.00    -0.188 NA
ATOM      3  C   UNL     1       1.994   5.993   0.011  0.00  0.00    +0.209 A 
ATOM      4  N   UNL     1       0.648   5.895   0.030  0.00  0.00    -0.246 N 
ATOM      5  H   UNL     1       0.013   6.628   0.042  0.00  0.00    +0.192 HD
ATOM      6  N   UNL     1       0.348   4.524   0.023  0.00  0.00    -0.144 NA
ATOM      7  N   UNL     1       2.724   7.167   0.007  0.00  0.00    -0.328 N 
ATOM      8  H   UNL     1       3.693   7.136  -0.007  0.00  0.00    +0.145 HD
ATOM      9  H   UNL     1       2.266   8.023   0.018  0.00  0.00    +0.145 HD
ENDROOT
BRANCH   1  10
ATOM     10  S   UNL     1       1.683   2.131  -0.003  0.00  0.00    -0.078 S 
BRANCH  10  11
ATOM     11  C   UNL     1      -0.018   1.503   0.010  0.00  0.00    +0.136 C 
BRANCH  11  12
ATOM     12  C   UNL     1       0.002  -0.004   0.002  0.00  0.00    +0.101 A 
ATOM     13  C   UNL     1       0.006  -0.728  -1.149  0.00  0.00    +0.122 A 
ATOM     14  S   UNL     1       0.031  -2.304  -0.568  0.00  0.00    +0.048 S 
ATOM     15  N   UNL     1       0.035  -2.002   1.021  0.00  0.00    -0.109 NA
ATOM     16  N   UNL     1       0.023  -0.717   1.108  0.00  0.00    -0.144 NA
ATOM     17 CL   UNL     1      -0.010  -0.169  -2.792  0.00  0.00    -0.072 Cl
ENDBRANCH  11  12
ENDBRANCH  10  11
ENDBRANCH   1  10
TORSDOF 3
