REMARK  Name = ZINC59813265
REMARK  10 active torsions:
REMARK  status: ('A' for Active; 'I' for Inactive)
REMARK    1  A    between atoms: C_1  and  C_2
REMARK    2  A    between atoms: N_4  and  C_5
REMARK    3  A    between atoms: C_8  and  N_11
REMARK    4  A    between atoms: C_12  and  C_14
REMARK    5  A    between atoms: C_14  and  S_15
REMARK    6  A    between atoms: S_15  and  C_16
REMARK    7  A    between atoms: N_21  and  N_22
REMARK    8  A    between atoms: C_23  and  C_24
REMARK    9  A    between atoms: C_26  and  N_31
REMARK   10  A    between atoms: C_29  and  O_30
REMARK                            x       y       z     vdW  Elec       q    Type
REMARK                         _______ _______ _______ _____ _____    ______ ____
ROOT
ATOM      1  C   UNL     1      -3.002 -10.989  -0.249  0.00  0.00    +0.211 A 
ATOM      2  N   UNL     1      -3.917 -11.943  -0.375  0.00  0.00    -0.186 NA
ATOM      3  C   UNL     1      -3.279 -13.110  -0.385  0.00  0.00    +0.232 A 
ATOM      4  N   UNL     1      -1.940 -12.841  -0.260  0.00  0.00    -0.245 N 
ATOM      5  N   UNL     1      -1.797 -11.562  -0.186  0.00  0.00    -0.144 NA
ATOM      6  N   UNL     1      -3.843 -14.330  -0.496  0.00  0.00    -0.205 N 
ATOM      7  H   UNL     1      -3.286 -15.124  -0.492  0.00  0.00    +0.177 HD
ATOM      8  H   UNL     1      -1.226 -13.497  -0.236  0.00  0.00    +0.192 HD
ENDROOT
BRANCH   6   9
ATOM      9  N   UNL     1      -5.124 -14.441  -0.607  0.00  0.00    -0.187 NA
ATOM     10  C   UNL     1      -5.680 -15.644  -0.717  0.00  0.00    +0.142 C 
BRANCH  10  11
ATOM     11  C   UNL     1      -7.076 -15.765  -0.838  0.00  0.00    +0.038 A 
ATOM     12  C   UNL     1      -7.681 -17.037  -0.950  0.00  0.00    +0.045 A 
ATOM     13  C   UNL     1      -9.033 -17.136  -1.066  0.00  0.00    +0.127 A 
ATOM     14  C   UNL     1      -9.841 -16.003  -1.078  0.00  0.00    +0.036 A 
ATOM     15  C   UNL     1      -9.302 -14.737  -0.973  0.00  0.00    +0.048 A 
ATOM     16  C   UNL     1      -7.930 -14.575  -0.846  0.00  0.00    +0.126 A 
BRANCH  13  17
ATOM     17  N   UNL     1      -9.656 -18.474  -1.182  0.00  0.00    +0.056 N 
ATOM     18  O   UNL     1      -8.902 -19.554  -1.173  0.00  0.00    -0.126 OA
ATOM     19  O   UNL     1     -10.963 -18.584  -1.296  0.00  0.00    -0.126 OA
ENDBRANCH  13  17
BRANCH  16  20
ATOM     20  O   UNL     1      -7.390 -13.339  -0.736  0.00  0.00    -0.506 OA
ATOM     21  H   UNL     1      -7.160 -12.933  -1.584  0.00  0.00    +0.292 HD
ENDBRANCH  16  20
ENDBRANCH  10  11
ENDBRANCH   6   9
BRANCH   1  22
ATOM     22  S   UNL     1      -3.323  -9.257  -0.183  0.00  0.00    -0.075 S 
BRANCH  22  23
ATOM     23  C   UNL     1      -1.678  -8.512  -0.017  0.00  0.00    +0.173 C 
BRANCH  23  25
ATOM     24  N   UNL     1      -0.710  -6.244   0.177  0.00  0.00    -0.285 N 
ATOM     25  C   UNL     1      -1.810  -7.012   0.052  0.00  0.00    +0.227 C 
ATOM     26  O   UNL     1      -2.906  -6.497  -0.006  0.00  0.00    -0.275 OA
ATOM     27  H   UNL     1       0.160  -6.657   0.291  0.00  0.00    +0.155 HD
BRANCH  24  31
ATOM     28  C   UNL     1      -1.047  -2.089   0.076  0.00  0.00    +0.033 A 
ATOM     29  C   UNL     1       0.068  -2.709  -0.474  0.00  0.00    +0.025 A 
ATOM     30  C   UNL     1       0.179  -4.084  -0.440  0.00  0.00    +0.025 A 
ATOM     31  C   UNL     1      -0.823  -4.848   0.143  0.00  0.00    +0.034 A 
ATOM     32  C   UNL     1      -1.938  -4.228   0.693  0.00  0.00    +0.025 A 
ATOM     33  C   UNL     1      -2.047  -2.853   0.664  0.00  0.00    +0.025 A 
BRANCH  28  37
ATOM     34  C   UNL     1      -1.766   1.468   1.081  0.00  0.00    +0.109 C 
ATOM     35  C   UNL     1      -1.737  -0.038   1.069  0.00  0.00    +0.214 C 
ATOM     36  O   UNL     1      -2.232  -0.662   1.984  0.00  0.00    -0.276 OA
ATOM     37  N   UNL     1      -1.161  -0.693   0.042  0.00  0.00    -0.286 N 
ATOM     38  H   UNL     1      -0.824  -0.198  -0.722  0.00  0.00    +0.155 HD
ENDBRANCH  28  37
ENDBRANCH  24  31
ENDBRANCH  23  25
ENDBRANCH  22  23
ENDBRANCH   1  22
TORSDOF 9
