REMARK  Name = ZINC44463997
REMARK  8 active torsions:
REMARK  status: ('A' for Active; 'I' for Inactive)
REMARK    1  A    between atoms: C_1  and  O_2
REMARK    2  A    between atoms: O_2  and  C_3
REMARK    3  A    between atoms: C_5  and  C_12
REMARK    4  A    between atoms: C_8  and  O_9
REMARK    5  A    between atoms: C_12  and  CA_13
REMARK    6  A    between atoms: CA_13  and  C_15
REMARK    7  A    between atoms: CA_13  and  N_17
REMARK    8  A    between atoms: C_15  and  O_16
REMARK                            x       y       z     vdW  Elec       q    Type
REMARK                         _______ _______ _______ _____ _____    ______ ____
ROOT
ATOM      1  C   UNL     1       0.626  -0.619   1.042  0.00  0.00    +0.163 A 
ATOM      2  C   UNL     1       1.202   0.137   2.051  0.00  0.00    +0.054 A 
ATOM      3  C   UNL     1       1.836  -0.488   3.108  0.00  0.00    -0.030 A 
ATOM      4  C   UNL     1       1.898  -1.869   3.162  0.00  0.00    +0.039 A 
ATOM      5  C   UNL     1       1.325  -2.630   2.158  0.00  0.00    +0.077 A 
ATOM      6  C   UNL     1       0.683  -2.008   1.099  0.00  0.00    +0.174 A 
ATOM      7 BR   UNL     1       1.412  -4.517   2.235  0.00  0.00    -0.045 Br
ATOM      8 BR   UNL     1       2.767  -2.719   4.611  0.00  0.00    -0.049 Br
ENDROOT
BRANCH   1  10
ATOM      9  C   UNL     1      -0.017   1.425   0.010  0.00  0.00    +0.277 C 
ATOM     10  O   UNL     1       0.002  -0.004   0.002  0.00  0.00    -0.491 OA
ENDBRANCH   1  10
BRANCH   6  11
ATOM     11  O   UNL     1       0.114  -2.753   0.114  0.00  0.00    -0.503 OA
ATOM     12  H   UNL     1       0.710  -2.956  -0.620  0.00  0.00    +0.292 HD
ENDBRANCH   6  11
BRANCH   3  13
ATOM     13  C   UNL     1       2.462   0.336   4.204  0.00  0.00    +0.022 C 
BRANCH  13  14
ATOM     14  CA  UNL     1       1.521   0.379   5.410  0.00  0.00    -0.045 C 
BRANCH  14  15
ATOM     15  N   UNL     1       0.288   1.089   5.045  0.00  0.00    +0.382 N 
ATOM     16  H1  UNL     1      -0.164   0.608   4.282  0.00  0.00    -0.090 HD
ATOM     17  H2  UNL     1      -0.332   1.118   5.840  0.00  0.00    -0.090 HD
ATOM     18  H3  UNL     1       0.514   2.031   4.761  0.00  0.00    -0.090 HD
ENDBRANCH  14  15
BRANCH  14  19
ATOM     19  C   UNL     1       2.207   1.109   6.566  0.00  0.00    +0.140 C 
BRANCH  19  20
ATOM     20  O   UNL     1       1.377   1.048   7.728  0.00  0.00    -0.397 OA
ATOM     21  H   UNL     1       1.750   1.492   8.502  0.00  0.00    +0.209 HD
ENDBRANCH  19  20
ENDBRANCH  14  19
ENDBRANCH  13  14
ENDBRANCH   3  13
TORSDOF 7
