REMARK  Name = ZINC33063386
REMARK  7 active torsions:
REMARK  status: ('A' for Active; 'I' for Inactive)
REMARK    1  A    between atoms: C_1  and  C_2
REMARK    2  A    between atoms: N_4  and  C_5
REMARK    3  A    between atoms: C_5  and  C_6
REMARK    4  A    between atoms: C_6  and  N_7
REMARK    5  A    between atoms: C_8  and  C_10
REMARK    6  A    between atoms: C_13  and  C_16
REMARK    7  A    between atoms: C_21  and  C_29
REMARK                            x       y       z     vdW  Elec       q    Type
REMARK                         _______ _______ _______ _____ _____    ______ ____
ROOT
ATOM      1  C   UNL     1       3.764   3.485   0.361  0.00  0.00    +0.191 C 
ATOM      2  N   UNL     1       3.600   2.102  -0.081  0.00  0.00    -0.322 N 
ATOM      3  C   UNL     1       2.387   1.421  -0.028  0.00  0.00    +0.056 A 
ATOM      4  C   UNL     1       2.397   0.027  -0.027  0.00  0.00    +0.037 A 
ATOM      5  C   UNL     1       1.211  -0.676  -0.013  0.00  0.00    +0.057 A 
ATOM      6  C   UNL     1       0.002  -0.004   0.002  0.00  0.00    +0.014 A 
ATOM      7  C   UNL     1      -0.017   1.379   0.010  0.00  0.00    +0.031 A 
ATOM      8  C   UNL     1       1.168   2.085   0.002  0.00  0.00    +0.126 A 
ATOM      9  S   UNL     1       1.140   3.852   0.048  0.00  0.00    +0.062 S 
ATOM     10  O   UNL     1       0.353   4.283  -1.054  0.00  0.00    -0.153 OA
ATOM     11  O   UNL     1       0.859   4.228   1.389  0.00  0.00    -0.153 OA
ATOM     12  N   UNL     1       2.713   4.310  -0.268  0.00  0.00    -0.166 NA
ATOM     13  H   UNL     1       4.461   1.546  -0.480  0.00  0.00    +0.148 HD
ATOM     14  H   UNL     1       2.978   5.257  -0.760  0.00  0.00    +0.150 HD
ENDROOT
BRANCH   1  18
ATOM     15  C   UNL     1       3.399   3.694   4.616  0.00  0.00    +0.037 A 
ATOM     16  C   UNL     1       3.008   4.775   3.825  0.00  0.00    +0.013 A 
ATOM     17  C   UNL     1       3.128   4.701   2.453  0.00  0.00    +0.007 A 
ATOM     18  C   UNL     1       3.636   3.559   1.861  0.00  0.00    -0.011 A 
ATOM     19  C   UNL     1       4.021   2.481   2.639  0.00  0.00    +0.007 A 
ATOM     20  C   UNL     1       3.911   2.545   4.012  0.00  0.00    +0.013 A 
BRANCH  15  22
ATOM     21  N   UNL     1       3.653   2.721   6.849  0.00  0.00    -0.310 N 
ATOM     22  C   UNL     1       3.274   3.767   6.088  0.00  0.00    +0.244 C 
ATOM     23  O   UNL     1       2.829   4.770   6.611  0.00  0.00    -0.270 OA
ATOM     24  H   UNL     1       4.056   1.814   6.375  0.00  0.00    +0.149 HD
BRANCH  21  25
ATOM     25  C   UNL     1       3.528   2.793   8.307  0.00  0.00    +0.123 C 
BRANCH  25  26
ATOM     26  C   UNL     1       4.024   1.485   8.926  0.00  0.00    +0.123 C 
BRANCH  26  30
ATOM     27  C   UNL     1       4.150   0.585  12.645  0.00  0.00    +0.109 C 
ATOM     28  C   UNL     1       4.279   0.511  11.145  0.00  0.00    +0.210 C 
ATOM     29  O   UNL     1       4.723  -0.489  10.623  0.00  0.00    -0.276 OA
ATOM     30  N   UNL     1       3.900   1.557  10.384  0.00  0.00    -0.314 N 
ATOM     31  H   UNL     1       3.497   2.464  10.857  0.00  0.00    +0.149 HD
ENDBRANCH  26  30
ENDBRANCH  25  26
ENDBRANCH  21  25
ENDBRANCH  15  22
ENDBRANCH   1  18
BRANCH   5  32
ATOM     32  C   UNL     1       1.232  -2.183  -0.013  0.00  0.00    +0.417 C 
ATOM     33  F   UNL     1      -0.081  -2.667   0.003  0.00  0.00    -0.166 F 
ATOM     34  F   UNL     1       1.883  -2.640  -1.163  0.00  0.00    -0.166 F 
ATOM     35  F   UNL     1       1.911  -2.640   1.121  0.00  0.00    -0.166 F 
ENDBRANCH   5  32
TORSDOF 6
