REMARK  Name = ZINC14359814
REMARK  7 active torsions:
REMARK  status: ('A' for Active; 'I' for Inactive)
REMARK    1  A    between atoms: C_1  and  C_2
REMARK    2  A    between atoms: N_15  and  N_16
REMARK    3  A    between atoms: C_17  and  C_18
REMARK    4  A    between atoms: C_17  and  C_19
REMARK    5  A    between atoms: C_22  and  O_25
REMARK    6  A    between atoms: O_25  and  C_26
REMARK    7  A    between atoms: C_26  and  C_27
REMARK                            x       y       z     vdW  Elec       q    Type
REMARK                         _______ _______ _______ _____ _____    ______ ____
ROOT
ATOM      1  C   UNL     1      -0.924   1.340   0.097  0.00  0.00    +0.088 C 
ATOM      2  C   UNL     1      -0.423  -0.081   0.043  0.00  0.00    +0.129 A 
ATOM      3  N   UNL     1      -0.416  -0.719  -1.114  0.00  0.00    -0.216 NA
ATOM      4  C   UNL     1       0.017  -1.965  -1.228  0.00  0.00    +0.150 A 
ATOM      5  C   UNL     1       0.480  -2.646  -0.068  0.00  0.00    +0.052 A 
ATOM      6  C   UNL     1       0.994  -4.011   0.049  0.00  0.00    -0.025 A 
ATOM      7  C   UNL     1       1.372  -4.420   1.278  0.00  0.00    -0.004 A 
ATOM      8  S   UNL     1       1.071  -3.032   2.339  0.00  0.00    -0.073 S 
ATOM      9  C   UNL     1       0.437  -1.902   1.129  0.00  0.00    +0.114 A 
ATOM     10  N   UNL     1      -0.006  -0.660   1.152  0.00  0.00    -0.225 NA
ATOM     11  C   UNL     1       1.926  -5.759   1.658  0.00  0.00    +0.043 C 
ATOM     12  C   UNL     1       1.659  -6.739   0.507  0.00  0.00    +0.005 C 
ATOM     13  C   UNL     1       2.076  -6.077  -0.809  0.00  0.00    +0.005 C 
ATOM     14  C   UNL     1       1.105  -4.947  -1.152  0.00  0.00    +0.037 C 
ATOM     15  N   UNL     1       0.013  -2.598  -2.458  0.00  0.00    -0.220 N 
ATOM     16  H   UNL     1       0.099  -3.563  -2.507  0.00  0.00    +0.176 HD
ENDROOT
BRANCH  15  17
ATOM     17  N   UNL     1      -0.114  -1.845  -3.633  0.00  0.00    -0.186 NA
ATOM     18  C   UNL     1      -0.117  -2.439  -4.787  0.00  0.00    +0.063 C 
ATOM     19  C   UNL     1       0.016  -3.938  -4.863  0.00  0.00    +0.068 C 
BRANCH  18  20
ATOM     20  C   UNL     1      -0.251  -1.647  -6.023  0.00  0.00    -0.002 A 
ATOM     21  C   UNL     1      -0.249  -2.284  -7.267  0.00  0.00    +0.013 A 
ATOM     22  C   UNL     1      -0.380  -1.540  -8.420  0.00  0.00    +0.046 A 
ATOM     23  C   UNL     1      -0.503  -0.158  -8.347  0.00  0.00    +0.121 A 
ATOM     24  C   UNL     1      -0.500   0.479  -7.113  0.00  0.00    +0.046 A 
ATOM     25  C   UNL     1      -0.375  -0.257  -5.955  0.00  0.00    +0.013 A 
BRANCH  23  26
ATOM     26  O   UNL     1      -0.627   0.572  -9.486  0.00  0.00    -0.483 OA
BRANCH  26  27
ATOM     27  C   UNL     1      -0.623  -0.147 -10.721  0.00  0.00    +0.324 C 
BRANCH  27  28
ATOM     28  C   UNL     1      -0.768   0.821 -11.867  0.00  0.00    +0.248 C 
ATOM     29  O   UNL     1      -0.866   2.010 -11.647  0.00  0.00    -0.272 OA
ATOM     30  N   UNL     1      -0.790   0.366 -13.135  0.00  0.00    -0.327 N 
ATOM     31  H   UNL     1      -0.712  -0.585 -13.310  0.00  0.00    +0.145 HD
ATOM     32  H   UNL     1      -0.884   0.989 -13.872  0.00  0.00    +0.145 HD
ENDBRANCH  27  28
ENDBRANCH  26  27
ENDBRANCH  23  26
ENDBRANCH  18  20
ENDBRANCH  15  17
TORSDOF 5
