REMARK  Name = ZINC21438662
REMARK  3 active torsions:
REMARK  status: ('A' for Active; 'I' for Inactive)
REMARK    1  A    between atoms: C_9  and  C_11
REMARK    2  A    between atoms: N_13  and  N_14
REMARK    3  A    between atoms: C_15  and  C_17
REMARK                            x       y       z     vdW  Elec       q    Type
REMARK                         _______ _______ _______ _____ _____    ______ ____
ROOT
ATOM      1  C   UNL     1      -2.113   1.090   1.729  0.00  0.00    +0.278 C 
ATOM      2  O   UNL     1      -2.064  -0.110   1.915  0.00  0.00    -0.267 OA
ATOM      3  N   UNL     1      -1.030   1.745   1.265  0.00  0.00    -0.229 N 
ATOM      4  H   UNL     1      -1.074   2.831   1.097  0.00  0.00    +0.173 HD
ENDROOT
BRANCH   1  13
ATOM      5  C   UNL     1      -6.816   5.295   2.560  0.00  0.00    +0.001 A 
ATOM      6  C   UNL     1      -5.673   5.933   2.079  0.00  0.00    +0.002 A 
ATOM      7  C   UNL     1      -4.534   5.235   1.824  0.00  0.00    +0.028 A 
ATOM      8  C   UNL     1      -4.502   3.844   2.046  0.00  0.00    +0.072 A 
ATOM      9  C   UNL     1      -5.668   3.198   2.535  0.00  0.00    +0.000 A 
ATOM     10  C   UNL     1      -6.825   3.953   2.787  0.00  0.00    +0.010 A 
ATOM     11  C   UNL     1      -5.639   1.809   2.759  0.00  0.00    +0.012 A 
ATOM     12  C   UNL     1      -4.481   1.136   2.494  0.00  0.00    +0.034 A 
ATOM     13  C   UNL     1      -3.364   1.833   2.012  0.00  0.00    +0.127 A 
ATOM     14  N   UNL     1      -3.399   3.136   1.810  0.00  0.00    -0.242 NA
ENDBRANCH   1  13
BRANCH   3  15
ATOM     15  N   UNL     1       0.152   1.042   0.998  0.00  0.00    -0.229 N 
ATOM     16  C   UNL     1       1.234   1.696   0.529  0.00  0.00    +0.282 C 
ATOM     17  O   UNL     1       1.185   2.896   0.343  0.00  0.00    -0.267 OA
ATOM     18  H   UNL     1       0.198  -0.044   1.170  0.00  0.00    +0.173 HD
BRANCH  16  19
ATOM     19  C   UNL     1       2.478   0.954   0.241  0.00  0.00    +0.166 A 
ATOM     20  C   UNL     1       3.641   1.646  -0.136  0.00  0.00    +0.147 A 
ATOM     21  N   UNL     1       4.756   0.969  -0.387  0.00  0.00    -0.237 NA
ATOM     22  C   UNL     1       4.764  -0.348  -0.293  0.00  0.00    +0.132 A 
ATOM     23  C   UNL     1       3.613  -1.031   0.074  0.00  0.00    +0.131 A 
ATOM     24  N   UNL     1       2.502  -0.373   0.332  0.00  0.00    -0.245 NA
ATOM     25  N   UNL     1       3.627   3.025  -0.238  0.00  0.00    -0.341 N 
ATOM     26  H   UNL     1       4.540   3.563  -0.534  0.00  0.00    +0.144 HD
ATOM     27  H   UNL     1       2.703   3.583  -0.025  0.00  0.00    +0.144 HD
ENDBRANCH  16  19
ENDBRANCH   3  15
TORSDOF 3
