REMARK  Name = ZINC04940467
REMARK  6 active torsions:
REMARK  status: ('A' for Active; 'I' for Inactive)
REMARK    1  A    between atoms: C_1  and  C_2
REMARK    2  A    between atoms: C_2  and  O_3
REMARK    3  A    between atoms: O_3  and  C_4
REMARK    4  A    between atoms: C_9  and  N_10
REMARK    5  A    between atoms: C_13  and  C_24
REMARK    6  A    between atoms: C_15  and  C_17
REMARK                            x       y       z     vdW  Elec       q    Type
REMARK                         _______ _______ _______ _____ _____    ______ ____
ROOT
ATOM      1  N   UNL     1       1.943  -1.466  -3.431  0.00  0.00    -0.241 N 
ATOM      2  C   UNL     1       1.270  -0.979  -4.537  0.00  0.00    +0.170 A 
ATOM      3  C   UNL     1       2.176  -0.155  -5.230  0.00  0.00    +0.117 A 
ATOM      4  C   UNL     1       1.749   0.471  -6.401  0.00  0.00    +0.154 A 
ATOM      5  N   UNL     1       0.498   0.264  -6.815  0.00  0.00    -0.220 NA
ATOM      6  C   UNL     1      -0.324  -0.518  -6.134  0.00  0.00    +0.163 A 
ATOM      7  N   UNL     1       0.047  -1.132  -5.015  0.00  0.00    -0.208 NA
ATOM      8  N   UNL     1       3.362  -0.176  -4.517  0.00  0.00    -0.303 N 
ATOM      9  H   UNL     1       4.174   0.300  -4.752  0.00  0.00    +0.171 HD
ATOM     10  C   UNL     1       3.194  -0.966  -3.439  0.00  0.00    +0.333 A 
ATOM     11  O   UNL     1       4.044  -1.195  -2.600  0.00  0.00    -0.246 OA
ENDROOT
BRANCH   6  12
ATOM     12  C   UNL     1      -1.705  -0.717  -6.636  0.00  0.00    +0.019 A 
ATOM     13  C   UNL     1      -2.589  -1.541  -5.941  0.00  0.00    +0.014 A 
ATOM     14  C   UNL     1      -3.875  -1.718  -6.409  0.00  0.00    +0.039 A 
ATOM     15  C   UNL     1      -4.284  -1.089  -7.574  0.00  0.00    +0.123 A 
ATOM     16  C   UNL     1      -3.406  -0.274  -8.271  0.00  0.00    +0.039 A 
ATOM     17  C   UNL     1      -2.120  -0.086  -7.807  0.00  0.00    +0.014 A 
ATOM     18  F   UNL     1      -5.542  -1.270  -8.031  0.00  0.00    -0.205 F 
ENDBRANCH   6  12
BRANCH   1  24
ATOM     19  C   UNL     1       0.777  -1.811  -1.336  0.00  0.00    +0.144 A 
ATOM     20  C   UNL     1       0.249  -2.669  -0.385  0.00  0.00    +0.048 A 
ATOM     21  C   UNL     1       0.357  -4.037  -0.552  0.00  0.00    +0.004 A 
ATOM     22  C   UNL     1       0.992  -4.553  -1.667  0.00  0.00    +0.002 A 
ATOM     23  C   UNL     1       1.522  -3.704  -2.619  0.00  0.00    +0.030 A 
ATOM     24  C   UNL     1       1.411  -2.330  -2.462  0.00  0.00    +0.094 A 
BRANCH  19  25
ATOM     25  O   UNL     1       0.671  -0.465  -1.174  0.00  0.00    -0.490 OA
BRANCH  25  27
ATOM     26  C   UNL     1      -0.019   1.526   0.010  0.00  0.00    +0.048 C 
ATOM     27  C   UNL     1       0.002  -0.004   0.002  0.00  0.00    +0.226 C 
ENDBRANCH  25  27
ENDBRANCH  19  25
ENDBRANCH   1  24
BRANCH   4  28
ATOM     28  C   UNL     1       2.663   1.349  -7.167  0.00  0.00    +0.262 C 
ATOM     29  O   UNL     1       3.800   1.529  -6.777  0.00  0.00    -0.269 OA
ATOM     30  N   UNL     1       2.235   1.947  -8.296  0.00  0.00    -0.324 N 
ATOM     31  H   UNL     1       1.327   1.803  -8.607  0.00  0.00    +0.145 HD
ATOM     32  H   UNL     1       2.834   2.522  -8.798  0.00  0.00    +0.145 HD
ENDBRANCH   4  28
TORSDOF 5
