REMARK  Name = ZINC39669593
REMARK  9 active torsions:
REMARK  status: ('A' for Active; 'I' for Inactive)
REMARK    1  A    between atoms: C_1  and  C_2
REMARK    2  A    between atoms: C_2  and  C_3
REMARK    3  A    between atoms: C_2  and  C_4
REMARK    4  A    between atoms: C_8  and  C_17
REMARK    5  A    between atoms: N_19  and  C_20
REMARK    6  A    between atoms: C_20  and  C_21
REMARK    7  A    between atoms: C_21  and  C_22
REMARK    8  A    between atoms: C_21  and  C_23
REMARK    9  A    between atoms: C_21  and  N_24
REMARK                            x       y       z     vdW  Elec       q    Type
REMARK                         _______ _______ _______ _____ _____    ______ ____
ROOT
ATOM      1  C   UNL     1      -1.050  -0.750   0.055  0.00  0.00    +0.218 C 
ATOM      2  O   UNL     1      -1.414  -1.453   0.974  0.00  0.00    -0.275 OA
ATOM      3  N   UNL     1      -1.927  -0.380  -0.899  0.00  0.00    -0.300 N 
ATOM      4  C   UNL     1      -1.671   0.462  -2.091  0.00  0.00    +0.121 C 
ATOM      5  C   UNL     1      -2.494  -0.199  -3.220  0.00  0.00    +0.100 C 
ATOM      6  C   UNL     1      -3.606  -0.973  -2.493  0.00  0.00    -0.004 C 
ATOM      7  C   UNL     1      -3.365  -0.729  -0.996  0.00  0.00    +0.115 C 
ATOM      8  C   UNL     1      -4.975  -0.441  -2.902  0.00  0.00    -0.010 C 
ATOM      9  C   UNL     1      -6.066  -1.264  -2.211  0.00  0.00    -0.082 C 
ATOM     10  N   UNL     1      -5.933  -2.675  -2.594  0.00  0.00    +0.379 N 
ATOM     11  C   UNL     1      -4.651  -3.205  -2.114  0.00  0.00    -0.082 C 
ATOM     12  C   UNL     1      -3.500  -2.464  -2.801  0.00  0.00    -0.010 C 
ATOM     13  H   UNL     1      -6.688  -3.206  -2.186  0.00  0.00    -0.086 HD
ATOM     14  H   UNL     1      -5.973  -2.755  -3.599  0.00  0.00    -0.086 HD
ENDROOT
BRANCH   5  15
ATOM     15  C   UNL     1      -1.629  -1.142  -4.017  0.00  0.00    +0.218 C 
ATOM     16  O   UNL     1      -0.680  -1.684  -3.492  0.00  0.00    -0.275 OA
ATOM     17  N   UNL     1      -1.911  -1.382  -5.312  0.00  0.00    -0.313 N 
ATOM     18  H   UNL     1      -2.671  -0.949  -5.732  0.00  0.00    +0.149 HD
BRANCH  17  19
ATOM     19  C   UNL     1      -1.071  -2.299  -6.087  0.00  0.00    +0.126 C 
BRANCH  19  20
ATOM     20  C   UNL     1      -1.524  -2.294  -7.549  0.00  0.00    +0.032 C 
ATOM     21  C   UNL     1      -1.270  -0.913  -8.156  0.00  0.00    +0.029 C 
ATOM     22  C   UNL     1      -0.736  -3.347  -8.330  0.00  0.00    +0.029 C 
BRANCH  20  23
ATOM     23  N   UNL     1      -2.958  -2.604  -7.618  0.00  0.00    -0.291 NA
ATOM     24  C   UNL     1      -3.249  -3.897  -6.981  0.00  0.00    +0.113 C 
ATOM     25  C   UNL     1      -4.758  -4.152  -7.023  0.00  0.00    +0.175 C 
ATOM     26  O   UNL     1      -5.207  -4.103  -8.380  0.00  0.00    -0.377 OA
ATOM     27  C   UNL     1      -4.941  -2.858  -9.031  0.00  0.00    +0.175 C 
ATOM     28  C   UNL     1      -3.433  -2.589  -9.009  0.00  0.00    +0.113 C 
ENDBRANCH  20  23
ENDBRANCH  19  20
ENDBRANCH  17  19
ENDBRANCH   5  15
BRANCH   1  30
ATOM     29  C   UNL     1       0.431   1.238   0.007  0.00  0.00    +0.017 C 
ATOM     30  C   UNL     1       0.384  -0.291  -0.020  0.00  0.00    +0.069 C 
ATOM     31  C   UNL     1       1.161  -0.846   1.175  0.00  0.00    +0.017 C 
ENDBRANCH   1  30
TORSDOF 5
