REMARK  Name = ZINC00862672
REMARK  6 active torsions:
REMARK  status: ('A' for Active; 'I' for Inactive)
REMARK    1  A    between atoms: C_1  and  N_2
REMARK    2  A    between atoms: N_2  and  C_3
REMARK    3  A    between atoms: N_10  and  C_11
REMARK    4  A    between atoms: N_10  and  C_12
REMARK    5  A    between atoms: N_13  and  S_14
REMARK    6  A    between atoms: S_14  and  C_17
REMARK                            x       y       z     vdW  Elec       q    Type
REMARK                         _______ _______ _______ _____ _____    ______ ____
ROOT
ATOM      1  C   UNL     1      -0.018   1.461   0.010  0.00  0.00    +0.132 C 
ATOM      2  N   UNL     1       0.002  -0.004   0.002  0.00  0.00    -0.307 N 
ATOM      3  C   UNL     1       1.281  -0.719  -0.014  0.00  0.00    +0.132 C 
ATOM      4  C   UNL     1      -1.172  -0.703   0.009  0.00  0.00    +0.201 A 
ATOM      5  N   UNL     1      -1.157  -2.070   0.008  0.00  0.00    -0.295 N 
ATOM      6  C   UNL     1      -2.359  -2.752   0.016  0.00  0.00    +0.253 A 
ATOM      7  N   UNL     1      -3.507  -2.054   0.025  0.00  0.00    -0.177 NA
ATOM      8  C   UNL     1      -3.482  -0.731   0.027  0.00  0.00    +0.223 A 
ATOM      9  N   UNL     1      -2.326  -0.061   0.024  0.00  0.00    -0.182 NA
ATOM     10  N   UNL     1      -4.667  -0.032   0.036  0.00  0.00    -0.306 N 
ATOM     11  C   UNL     1      -5.942  -0.753   0.044  0.00  0.00    +0.132 C 
ATOM     12  C   UNL     1      -4.654   1.433   0.038  0.00  0.00    +0.132 C 
ATOM     13  N   UNL     1      -2.379  -4.066   0.014  0.00  0.00    -0.090 NA
ATOM     14  H   UNL     1      -0.316  -2.553   0.001  0.00  0.00    +0.172 HD
ENDROOT
BRANCH  13  15
ATOM     15  S   UNL     1      -0.958  -4.915   0.002  0.00  0.00    +0.102 S 
ATOM     16  O   UNL     1      -0.336  -4.649  -1.248  0.00  0.00    -0.146 OA
ATOM     17  O   UNL     1      -0.317  -4.653   1.243  0.00  0.00    -0.146 OA
BRANCH  15  18
ATOM     18  C   UNL     1      -1.374  -6.628   0.002  0.00  0.00    +0.113 A 
ATOM     19  C   UNL     1      -1.534  -7.299   1.200  0.00  0.00    +0.030 A 
ATOM     20  C   UNL     1      -1.861  -8.642   1.201  0.00  0.00    +0.022 A 
ATOM     21  C   UNL     1      -2.028  -9.314   0.003  0.00  0.00    +0.041 A 
ATOM     22  C   UNL     1      -1.868  -8.641  -1.195  0.00  0.00    +0.022 A 
ATOM     23  C   UNL     1      -1.547  -7.297  -1.195  0.00  0.00    +0.030 A 
ATOM     24 CL   UNL     1      -2.438 -11.001   0.004  0.00  0.00    -0.084 Cl
ENDBRANCH  15  18
ENDBRANCH  13  15
TORSDOF 2
