REMARK  Name = ZINC38714961
REMARK  2 active torsions:
REMARK  status: ('A' for Active; 'I' for Inactive)
REMARK    1  A    between atoms: C_8  and  C_10
REMARK    2  A    between atoms: N_12  and  C_13
REMARK                            x       y       z     vdW  Elec       q    Type
REMARK                         _______ _______ _______ _____ _____    ______ ____
ROOT
ATOM      1  C   UNL     1       5.588  -2.094  -0.648  0.00  0.00    +0.284 C 
ATOM      2  O   UNL     1       6.676  -2.082  -1.193  0.00  0.00    -0.266 OA
ATOM      3  N   UNL     1       5.140  -3.223  -0.063  0.00  0.00    -0.279 N 
ATOM      4  H   UNL     1       4.304  -3.215   0.429  0.00  0.00    +0.155 HD
ENDROOT
BRANCH   3   5
ATOM      5  C   UNL     1       5.880  -4.406  -0.166  0.00  0.00    +0.034 A 
ATOM      6  C   UNL     1       5.227  -5.628  -0.267  0.00  0.00    +0.025 A 
ATOM      7  C   UNL     1       5.957  -6.795  -0.368  0.00  0.00    +0.025 A 
ATOM      8  C   UNL     1       7.345  -6.747  -0.370  0.00  0.00    +0.037 A 
ATOM      9  C   UNL     1       7.998  -5.526  -0.270  0.00  0.00    -0.024 A 
ATOM     10  C   UNL     1       7.268  -4.358  -0.173  0.00  0.00    +0.028 A 
ATOM     11  C   UNL     1       9.504  -5.478  -0.273  0.00  0.00    +0.046 C 
ATOM     12  C   UNL     1      10.056  -6.720   0.427  0.00  0.00    +0.101 C 
ATOM     13  C   UNL     1       9.384  -7.954  -0.112  0.00  0.00    +0.218 C 
ATOM     14  O   UNL     1      10.017  -8.982  -0.221  0.00  0.00    -0.275 OA
ATOM     15  N   UNL     1       8.088  -7.929  -0.473  0.00  0.00    -0.285 N 
ATOM     16  H   UNL     1       7.666  -8.736  -0.808  0.00  0.00    +0.155 HD
ENDBRANCH   3   5
BRANCH   1  24
ATOM     17  C   UNL     1       2.568   3.135  -0.823  0.00  0.00    +0.001 A 
ATOM     18  C   UNL     1       1.628   2.395  -0.119  0.00  0.00    +0.004 A 
ATOM     19  C   UNL     1       1.860   1.072   0.190  0.00  0.00    +0.047 A 
ATOM     20  C   UNL     1       3.048   0.467  -0.206  0.00  0.00    +0.136 A 
ATOM     21  C   UNL     1       3.997   1.222  -0.919  0.00  0.00    +0.021 A 
ATOM     22  C   UNL     1       3.742   2.562  -1.222  0.00  0.00    +0.011 A 
ATOM     23  C   UNL     1       5.112   0.312  -1.181  0.00  0.00    +0.063 A 
ATOM     24  C   UNL     1       4.763  -0.878  -0.627  0.00  0.00    +0.191 A 
ATOM     25  O   UNL     1       3.546  -0.775  -0.055  0.00  0.00    -0.450 OA
ENDBRANCH   1  24
TORSDOF 2
