REMARK  Name = ZINC35149040
REMARK  6 active torsions:
REMARK  status: ('A' for Active; 'I' for Inactive)
REMARK    1  A    between atoms: C_1  and  C_2
REMARK    2  A    between atoms: C_2  and  C_4
REMARK    3  A    between atoms: C_2  and  N_7
REMARK    4  A    between atoms: N_7  and  S_8
REMARK    5  A    between atoms: S_8  and  C_11
REMARK    6  A    between atoms: C_13  and  N_18
REMARK                            x       y       z     vdW  Elec       q    Type
REMARK                         _______ _______ _______ _____ _____    ______ ____
ROOT
ATOM      1  S   UNL     1       2.336  -0.761   1.022  0.00  0.00    +0.061 S 
ATOM      2  O   UNL     1       2.887  -1.271   2.229  0.00  0.00    -0.153 OA
ATOM      3  O   UNL     1       2.401  -1.474  -0.205  0.00  0.00    -0.153 OA
ENDROOT
BRANCH   1   4
ATOM      4  C   UNL     1       3.099   0.801   0.739  0.00  0.00    +0.126 A 
ATOM      5  C   UNL     1       4.063   1.268   1.614  0.00  0.00    +0.062 A 
ATOM      6  C   UNL     1       4.662   2.494   1.392  0.00  0.00    +0.128 A 
ATOM      7  C   UNL     1       4.297   3.254   0.296  0.00  0.00    +0.034 A 
ATOM      8  C   UNL     1       3.334   2.788  -0.579  0.00  0.00    +0.024 A 
ATOM      9  C   UNL     1       2.739   1.558  -0.361  0.00  0.00    +0.067 A 
ATOM     10 CL   UNL     1       1.534   0.969  -1.463  0.00  0.00    -0.082 Cl
BRANCH   6  11
ATOM     11  N   UNL     1       5.693   2.994   2.329  0.00  0.00    +0.056 N 
ATOM     12  O   UNL     1       6.011   2.329   3.287  0.00  0.00    -0.126 OA
ATOM     13  O   UNL     1       6.217   4.066   2.135  0.00  0.00    -0.126 OA
ENDBRANCH   6  11
ENDBRANCH   1   4
BRANCH   1  14
ATOM     14  N   UNL     1       0.732  -0.476   1.319  0.00  0.00    -0.178 NA
ATOM     15  H   UNL     1       0.059  -0.804   0.702  0.00  0.00    +0.149 HD
BRANCH  14  17
ATOM     16  C   UNL     1      -0.046  -0.708   3.626  0.00  0.00    +0.035 C 
ATOM     17  C   UNL     1       0.329   0.272   2.513  0.00  0.00    +0.159 C 
BRANCH  17  18
ATOM     18  C   UNL     1      -0.859   1.139   2.185  0.00  0.00    +0.229 C 
ATOM     19  O   UNL     1      -1.324   1.133   1.065  0.00  0.00    -0.274 OA
ATOM     20  N   UNL     1      -1.405   1.922   3.137  0.00  0.00    -0.328 N 
ATOM     21  H   UNL     1      -1.033   1.927   4.033  0.00  0.00    +0.145 HD
ATOM     22  H   UNL     1      -2.170   2.480   2.926  0.00  0.00    +0.145 HD
ENDBRANCH  17  18
ENDBRANCH  14  17
ENDBRANCH   1  14
TORSDOF 5
