REMARK  Name = ZINC08846165
REMARK  8 active torsions:
REMARK  status: ('A' for Active; 'I' for Inactive)
REMARK    1  A    between atoms: C_1  and  C_2
REMARK    2  A    between atoms: C_2  and  C_3
REMARK    3  A    between atoms: C_2  and  C_4
REMARK    4  A    between atoms: C_2  and  C_5
REMARK    5  A    between atoms: C_8  and  C_11
REMARK    6  A    between atoms: C_16  and  N_25
REMARK    7  A    between atoms: C_20  and  N_24
REMARK    8  A    between atoms: C_21  and  C_22
REMARK                            x       y       z     vdW  Elec       q    Type
REMARK                         _______ _______ _______ _____ _____    ______ ____
ROOT
ATOM      1  C   UNL     1       2.442   3.958   0.001  0.00  0.00    +0.098 C 
ATOM      2  C   UNL     1       1.158   3.172   0.008  0.00  0.00    +0.008 A 
ATOM      3  C   UNL     1      -0.051   3.845   0.023  0.00  0.00    +0.010 A 
ATOM      4  C   UNL     1      -1.239   3.142   0.031  0.00  0.00    +0.023 A 
ATOM      5  C   UNL     1      -1.223   1.752   0.017  0.00  0.00    +0.028 A 
ATOM      6  C   UNL     1      -0.013   1.076   0.008  0.00  0.00    +0.069 A 
ATOM      7  C   UNL     1       1.181   1.786   0.000  0.00  0.00    +0.136 A 
ATOM      8  O   UNL     1       2.356   1.109  -0.014  0.00  0.00    -0.441 OA
ATOM      9  C   UNL     1       3.482   1.730  -0.404  0.00  0.00    +0.199 C 
ATOM     10  C   UNL     1       3.587   3.080  -0.419  0.00  0.00    +0.098 C 
ENDROOT
BRANCH   1  14
ATOM     11  C   UNL     1       3.191   5.480   3.922  0.00  0.00    -0.042 A 
ATOM     12  C   UNL     1       3.046   6.351   2.859  0.00  0.00    +0.004 A 
ATOM     13  C   UNL     1       2.804   5.859   1.590  0.00  0.00    +0.005 A 
ATOM     14  C   UNL     1       2.707   4.495   1.384  0.00  0.00    -0.035 A 
ATOM     15  C   UNL     1       2.846   3.624   2.449  0.00  0.00    +0.005 A 
ATOM     16  C   UNL     1       3.094   4.116   3.717  0.00  0.00    +0.004 A 
BRANCH  11  18
ATOM     17  C   UNL     1       2.299   6.926   5.728  0.00  0.00    +0.015 C 
ATOM     18  C   UNL     1       3.454   6.016   5.305  0.00  0.00    -0.013 C 
ATOM     19  C   UNL     1       3.572   4.852   6.290  0.00  0.00    +0.015 C 
ATOM     20  C   UNL     1       4.758   6.816   5.302  0.00  0.00    +0.015 C 
ENDBRANCH  11  18
ENDBRANCH   1  14
BRANCH   9  21
ATOM     21  N   UNL     1       4.557   0.974  -0.797  0.00  0.00    -0.328 N 
ATOM     22  H   UNL     1       5.377   1.407  -1.081  0.00  0.00    +0.145 HD
ATOM     23  H   UNL     1       4.497   0.005  -0.792  0.00  0.00    +0.145 HD
ENDBRANCH   9  21
BRANCH   5  24
ATOM     24  N   UNL     1      -2.424   1.039   0.020  0.00  0.00    -0.358 N 
ATOM     25  H   UNL     1      -2.412   0.069   0.015  0.00  0.00    +0.142 HD
ATOM     26  H   UNL     1      -3.270   1.513   0.026  0.00  0.00    +0.142 HD
ENDBRANCH   5  24
BRANCH  10  27
ATOM     27  C   UNL     1       4.814   3.683  -0.845  0.00  0.00    +0.101 C 
ATOM     28  N   UNL     1       5.788   4.161  -1.183  0.00  0.00    -0.191 NA
ENDBRANCH  10  27
TORSDOF 5
