REMARK  Name = ZINC55163801
REMARK  4 active torsions:
REMARK  status: ('A' for Active; 'I' for Inactive)
REMARK    1  A    between atoms: C_1  and  C_2
REMARK    2  A    between atoms: C_2  and  C_3
REMARK    3  A    between atoms: C_2  and  N_4
REMARK    4  A    between atoms: C_12  and  C_13
REMARK                            x       y       z     vdW  Elec       q    Type
REMARK                         _______ _______ _______ _____ _____    ______ ____
ROOT
ATOM      1  N   UNL     1      -1.400  -0.551  -0.040  0.00  0.00    -0.318 N 
ATOM      2  C   UNL     1      -1.932  -1.438  -0.955  0.00  0.00    +0.069 A 
ATOM      3  C   UNL     1      -1.427  -2.083  -2.076  0.00  0.00    +0.029 A 
ATOM      4  C   UNL     1      -2.234  -2.934  -2.801  0.00  0.00    +0.017 A 
ATOM      5  C   UNL     1      -3.551  -3.152  -2.417  0.00  0.00    +0.020 A 
ATOM      6  C   UNL     1      -4.069  -2.522  -1.309  0.00  0.00    +0.045 A 
ATOM      7  C   UNL     1      -3.264  -1.655  -0.562  0.00  0.00    +0.091 A 
ATOM      8  N   UNL     1      -3.481  -0.909   0.548  0.00  0.00    -0.224 NA
ATOM      9  C   UNL     1      -2.386  -0.262   0.864  0.00  0.00    +0.182 A 
ATOM     10 BR   UNL     1      -4.640  -4.323  -3.427  0.00  0.00    -0.050 Br
ENDROOT
BRANCH   9  11
ATOM     11  C   UNL     1      -2.240   0.649   2.021  0.00  0.00    +0.218 A 
ATOM     12  N   UNL     1      -3.225   1.014   2.857  0.00  0.00    -0.191 NA
ATOM     13  C   UNL     1      -2.749   1.829   3.770  0.00  0.00    +0.209 A 
ATOM     14  N   UNL     1      -1.430   2.004   3.531  0.00  0.00    -0.246 N 
ATOM     15  H   UNL     1      -0.815   2.553   4.043  0.00  0.00    +0.192 HD
ATOM     16  N   UNL     1      -1.123   1.228   2.402  0.00  0.00    -0.148 NA
ATOM     17  N   UNL     1      -3.472   2.409   4.797  0.00  0.00    -0.328 N 
ATOM     18  H   UNL     1      -4.419   2.223   4.888  0.00  0.00    +0.145 HD
ATOM     19  H   UNL     1      -3.031   3.001   5.426  0.00  0.00    +0.145 HD
ENDBRANCH   9  11
BRANCH   1  21
ATOM     20  C   UNL     1       0.960  -1.179   0.103  0.00  0.00    +0.030 C 
ATOM     21  C   UNL     1      -0.033  -0.023  -0.034  0.00  0.00    +0.083 C 
ATOM     22  C   UNL     1       0.231   0.723  -1.344  0.00  0.00    +0.030 C 
ENDBRANCH   1  21
TORSDOF 2
