REMARK  Name = ZINC39007761
REMARK  12 active torsions:
REMARK  status: ('A' for Active; 'I' for Inactive)
REMARK    1  A    between atoms: C_1  and  C_2
REMARK    2  A    between atoms: C_2  and  O_3
REMARK    3  A    between atoms: O_3  and  C_4
REMARK    4  A    between atoms: C_4  and  C_6
REMARK    5  A    between atoms: C_9  and  N_12
REMARK    6  A    between atoms: C_13  and  C_15
REMARK    7  A    between atoms: C_15  and  S_16
REMARK    8  A    between atoms: S_16  and  C_17
REMARK    9  A    between atoms: C_21  and  C_25
REMARK   10  A    between atoms: N_23  and  N_24
REMARK   11  A    between atoms: C_28  and  C_31
REMARK   12  A    between atoms: C_34  and  C_37
REMARK                            x       y       z     vdW  Elec       q    Type
REMARK                         _______ _______ _______ _____ _____    ______ ____
ROOT
ATOM      1  C   UNL     1      -9.835  -8.334  -0.401  0.00  0.00    +0.214 C 
ATOM      2  N   UNL     1     -10.520  -7.672  -1.542  0.00  0.00    -0.228 NA
ATOM      3  N   UNL     1     -11.941  -7.708  -1.188  0.00  0.00    -0.234 NA
ATOM      4  C   UNL     1     -12.014  -7.823   0.283  0.00  0.00    +0.185 C 
ATOM      5  N   UNL     1     -10.615  -7.863   0.775  0.00  0.00    -0.197 NA
ATOM      6  H   UNL     1     -10.199  -6.722  -1.655  0.00  0.00    +0.143 HD
ATOM      7  H   UNL     1     -12.405  -8.485  -1.635  0.00  0.00    +0.143 HD
ENDROOT
BRANCH   4   8
ATOM      8  C   UNL     1     -12.745  -6.613   0.868  0.00  0.00    +0.187 C 
ATOM      9  C   UNL     1     -14.188  -6.581   0.399  0.00  0.00    +0.034 C 
ATOM     10  C   UNL     1     -14.279  -5.424  -0.286  0.00  0.00    +0.091 C 
ATOM     11  N   UNL     1     -13.085  -4.775  -0.281  0.00  0.00    -0.154 NA
ATOM     12  N   UNL     1     -12.186  -5.360   0.334  0.00  0.00    -0.176 NA
BRANCH  10  13
ATOM     13  C   UNL     1     -15.509  -4.929  -0.952  0.00  0.00    +0.002 A 
ATOM     14  C   UNL     1     -16.686  -5.673  -0.890  0.00  0.00    +0.010 A 
ATOM     15  C   UNL     1     -17.827  -5.207  -1.511  0.00  0.00    +0.004 A 
ATOM     16  C   UNL     1     -17.805  -4.004  -2.193  0.00  0.00    -0.050 A 
ATOM     17  C   UNL     1     -16.640  -3.261  -2.257  0.00  0.00    +0.004 A 
ATOM     18  C   UNL     1     -15.494  -3.715  -1.635  0.00  0.00    +0.010 A 
ATOM     19  C   UNL     1     -19.054  -3.501  -2.869  0.00  0.00    +0.044 C 
ENDBRANCH  10  13
ENDBRANCH   4   8
BRANCH   5  20
ATOM     20  N   UNL     1     -10.478  -8.783   1.893  0.00  0.00    -0.264 NA
ATOM     21  H   UNL     1      -9.513  -8.869   2.174  0.00  0.00    +0.137 HD
ATOM     22  H   UNL     1     -11.056  -8.497   2.669  0.00  0.00    +0.137 HD
ENDBRANCH   5  20
BRANCH   1  23
ATOM     23  S   UNL     1      -8.108  -7.790  -0.285  0.00  0.00    -0.115 S 
BRANCH  23  24
ATOM     24  C   UNL     1      -8.224  -5.984  -0.162  0.00  0.00    +0.168 C 
BRANCH  24  26
ATOM     25  N   UNL     1      -6.679  -4.063   0.043  0.00  0.00    -0.285 N 
ATOM     26  C   UNL     1      -6.840  -5.397  -0.058  0.00  0.00    +0.227 C 
ATOM     27  O   UNL     1      -5.870  -6.126  -0.067  0.00  0.00    -0.275 OA
ATOM     28  H   UNL     1      -7.454  -3.486   0.127  0.00  0.00    +0.155 HD
BRANCH  25  32
ATOM     29  C   UNL     1      -2.853  -2.417  -0.002  0.00  0.00    +0.059 A 
ATOM     30  C   UNL     1      -3.132  -3.562  -0.754  0.00  0.00    +0.017 A 
ATOM     31  C   UNL     1      -4.397  -4.104  -0.737  0.00  0.00    +0.024 A 
ATOM     32  C   UNL     1      -5.398  -3.512   0.028  0.00  0.00    +0.033 A 
ATOM     33  C   UNL     1      -5.124  -2.373   0.778  0.00  0.00    +0.024 A 
ATOM     34  C   UNL     1      -3.859  -1.829   0.770  0.00  0.00    +0.017 A 
BRANCH  29  35
ATOM     35  C   UNL     1      -1.498  -1.835  -0.018  0.00  0.00    +0.339 C 
ATOM     36  O   UNL     1      -1.256  -0.843   0.640  0.00  0.00    -0.245 OA
BRANCH  35  37
ATOM     37  O   UNL     1      -0.529  -2.402  -0.762  0.00  0.00    -0.461 OA
BRANCH  37  39
ATOM     38  C   UNL     1       1.720  -2.565  -1.630  0.00  0.00    +0.048 C 
ATOM     39  C   UNL     1       0.759  -1.785  -0.731  0.00  0.00    +0.229 C 
ENDBRANCH  37  39
ENDBRANCH  35  37
ENDBRANCH  29  35
ENDBRANCH  25  32
ENDBRANCH  24  26
ENDBRANCH  23  24
ENDBRANCH   1  23
TORSDOF 10
