REMARK  Name = ZINC58184882
REMARK  6 active torsions:
REMARK  status: ('A' for Active; 'I' for Inactive)
REMARK    1  A    between atoms: C_1  and  C_2
REMARK    2  A    between atoms: C_7  and  C_13
REMARK    3  A    between atoms: C_13  and  N_14
REMARK    4  A    between atoms: N_14  and  C_15
REMARK    5  A    between atoms: C_17  and  C_22
REMARK    6  A    between atoms: C_20  and  C_21
REMARK                            x       y       z     vdW  Elec       q    Type
REMARK                         _______ _______ _______ _____ _____    ______ ____
ROOT
ATOM      1  C   UNL     1       0.095  -6.274   1.112  0.00  0.00    +0.155 C 
ENDROOT
BRANCH   1   8
ATOM      2  C   UNL     1      -0.018   1.503   0.010  0.00  0.00    +0.045 C 
ATOM      3  C   UNL     1       0.002  -0.004   0.002  0.00  0.00    -0.034 A 
ATOM      4  C   UNL     1       0.006  -0.697  -1.217  0.00  0.00    +0.008 A 
ATOM      5  C   UNL     1       0.025  -2.059  -1.216  0.00  0.00    +0.045 A 
ATOM      6  C   UNL     1       0.040  -2.750   0.010  0.00  0.00    +0.118 A 
ATOM      7  N   UNL     1       0.059  -4.082   0.013  0.00  0.00    -0.343 N 
ATOM      8  C   UNL     1       0.074  -4.768   1.145  0.00  0.00    +0.040 A 
ATOM      9  C   UNL     1       0.071  -4.104   2.356  0.00  0.00    +0.093 A 
ATOM     10  C   UNL     1       0.051  -2.704   2.361  0.00  0.00    +0.258 A 
ATOM     11  O   UNL     1       0.048  -2.088   3.415  0.00  0.00    -0.267 OA
ATOM     12  N   UNL     1       0.037  -2.046   1.182  0.00  0.00    -0.269 N 
ATOM     13  C   UNL     1       0.022  -0.685   1.170  0.00  0.00    +0.099 A 
ATOM     14  H   UNL     1       0.061  -4.559  -0.832  0.00  0.00    +0.167 HD
ENDBRANCH   1   8
BRANCH   1  15
ATOM     15  N   UNL     1      -1.153  -6.767   0.524  0.00  0.00    -0.338 N 
ATOM     16  H   UNL     1      -1.832  -6.139   0.230  0.00  0.00    +0.146 HD
BRANCH  15  17
ATOM     17  C   UNL     1      -1.367  -8.141   0.388  0.00  0.00    +0.031 A 
ATOM     18  C   UNL     1      -0.399  -9.038   0.814  0.00  0.00    +0.036 A 
ATOM     19  C   UNL     1      -0.617 -10.409   0.676  0.00  0.00    +0.038 A 
ATOM     20  C   UNL     1      -1.808 -10.868   0.110  0.00  0.00    +0.013 A 
ATOM     21  C   UNL     1      -2.764  -9.967  -0.312  0.00  0.00    +0.006 A 
ATOM     22  C   UNL     1      -2.550  -8.608  -0.170  0.00  0.00    -0.030 A 
ATOM     23  C   UNL     1      -3.603  -7.631  -0.627  0.00  0.00    +0.045 C 
BRANCH  19  24
ATOM     24  C   UNL     1       0.409 -11.372   1.128  0.00  0.00    +0.242 C 
ATOM     25  O   UNL     1       1.445 -10.970   1.620  0.00  0.00    -0.270 OA
ATOM     26  N   UNL     1       0.196 -12.696   0.993  0.00  0.00    -0.325 N 
ATOM     27  H   UNL     1      -0.630 -13.017   0.600  0.00  0.00    +0.145 HD
ATOM     28  H   UNL     1       0.870 -13.329   1.289  0.00  0.00    +0.145 HD
ENDBRANCH  19  24
ENDBRANCH  15  17
ENDBRANCH   1  15
TORSDOF 4
