REMARK  Name = ZINC04098465
REMARK  13 active torsions:
REMARK  status: ('A' for Active; 'I' for Inactive)
REMARK    1  A    between atoms: C_1  and  C_2
REMARK    2  A    between atoms: C_2  and  C_30
REMARK    3  A    between atoms: C_3  and  C_4
REMARK    4  A    between atoms: C_4  and  C_5
REMARK    5  A    between atoms: C_5  and  C_6
REMARK    6  A    between atoms: C_6  and  C_29
REMARK    7  A    between atoms: C_7  and  C_8
REMARK    8  A    between atoms: C_8  and  O_9
REMARK    9  A    between atoms: O_9  and  C_10
REMARK   10  A    between atoms: C_16  and  O_21
REMARK   11  A    between atoms: C_18  and  O_20
REMARK   12  A    between atoms: C_25  and  C_27
REMARK   13  A    between atoms: C_25  and  O_28
REMARK                            x       y       z     vdW  Elec       q    Type
REMARK                         _______ _______ _______ _____ _____    ______ ____
ROOT
ATOM      1  C   UNL     1      -0.940  -3.093   3.536  0.00  0.00    +0.125 A 
ATOM      2  C   UNL     1      -1.127  -4.014   2.527  0.00  0.00    +0.054 A 
ATOM      3  C   UNL     1      -1.479  -3.581   1.242  0.00  0.00    -0.007 A 
ATOM      4  C   UNL     1      -1.670  -4.505   0.195  0.00  0.00    +0.013 A 
ATOM      5  C   UNL     1      -2.010  -4.082  -1.051  0.00  0.00    -0.030 A 
ATOM      6  C   UNL     1      -2.189  -2.707  -1.307  0.00  0.00    +0.063 A 
ATOM      7  C   UNL     1      -2.000  -1.762  -0.293  0.00  0.00    +0.139 A 
ATOM      8  C   UNL     1      -1.643  -2.194   0.996  0.00  0.00    +0.066 A 
ATOM      9  C   UNL     1      -1.447  -1.272   2.044  0.00  0.00    +0.132 A 
ATOM     10  C   UNL     1      -1.100  -1.728   3.296  0.00  0.00    +0.091 A 
ATOM     11  C   UNL     1      -2.576  -2.253  -2.648  0.00  0.00    +0.170 C 
ATOM     12  O   UNL     1      -2.939  -1.111  -2.844  0.00  0.00    -0.292 OA
ATOM     13  C   UNL     1      -2.507  -3.257  -3.780  0.00  0.00    +0.114 C 
ATOM     14  C   UNL     1      -3.084  -4.578  -3.256  0.00  0.00    +0.074 C 
ATOM     15  C   UNL     1      -2.187  -5.109  -2.137  0.00  0.00    +0.070 C 
ATOM     16  C   UNL     1      -4.498  -4.341  -2.720  0.00  0.00    +0.042 C 
ENDROOT
BRANCH   9  17
ATOM     17  O   UNL     1      -1.600   0.057   1.820  0.00  0.00    -0.506 OA
ATOM     18  H   UNL     1      -2.499   0.381   1.969  0.00  0.00    +0.292 HD
ENDBRANCH   9  17
BRANCH   7  19
ATOM     19  O   UNL     1      -2.165  -0.443  -0.550  0.00  0.00    -0.505 OA
ATOM     20  H   UNL     1      -1.359   0.005  -0.839  0.00  0.00    +0.292 HD
ENDBRANCH   7  19
BRANCH  14  21
ATOM     21  O   UNL     1      -3.132  -5.532  -4.320  0.00  0.00    -0.388 OA
ATOM     22  H   UNL     1      -3.679  -5.258  -5.069  0.00  0.00    +0.210 HD
ENDBRANCH  14  21
BRANCH   1  23
ATOM     23  O   UNL     1      -0.598  -3.520   4.779  0.00  0.00    -0.488 OA
BRANCH  23  24
ATOM     24  C   UNL     1      -0.420  -2.518   5.783  0.00  0.00    +0.256 C 
BRANCH  24  26
ATOM     25  C   UNL     1      -0.618  -2.792   8.201  0.00  0.00    -0.073 C 
ATOM     26  C   UNL     1      -0.046  -3.175   7.087  0.00  0.00    +0.012 C 
ATOM     27  C   UNL     1      -1.555  -1.611   8.200  0.00  0.00    +0.039 C 
BRANCH  25  28
ATOM     28  C   UNL     1      -0.340  -3.532   9.484  0.00  0.00    +0.034 C 
BRANCH  28  29
ATOM     29  C   UNL     1       0.783  -2.827  10.246  0.00  0.00    +0.031 C 
BRANCH  29  32
ATOM     30  C   UNL     1       3.392  -3.722  10.820  0.00  0.00    +0.038 C 
ATOM     31  C   UNL     1       2.274  -3.983  11.796  0.00  0.00    -0.080 C 
ATOM     32  C   UNL     1       1.061  -3.567  11.529  0.00  0.00    -0.028 C 
ATOM     33  C   UNL     1       2.552  -4.723  13.079  0.00  0.00    +0.038 C 
ENDBRANCH  29  32
ENDBRANCH  28  29
ENDBRANCH  25  28
ENDBRANCH  24  26
ENDBRANCH  23  24
ENDBRANCH   1  23
TORSDOF 9
