REMARK  Name = ZINC12521004
REMARK  7 active torsions:
REMARK  status: ('A' for Active; 'I' for Inactive)
REMARK    1  A    between atoms: C_1  and  C_2
REMARK    2  A    between atoms: C_5  and  S_11
REMARK    3  A    between atoms: C_7  and  N_8
REMARK    4  A    between atoms: S_11  and  N_14
REMARK    5  A    between atoms: N_14  and  C_15
REMARK    6  A    between atoms: C_16  and  C_26
REMARK    7  A    between atoms: C_21  and  C_25
REMARK                            x       y       z     vdW  Elec       q    Type
REMARK                         _______ _______ _______ _____ _____    ______ ____
ROOT
ATOM      1  N   UNL     1      -1.245  -0.851   2.826  0.00  0.00    -0.209 N 
ATOM      2  H   UNL     1      -0.480  -0.367   3.173  0.00  0.00    +0.174 HD
ENDROOT
BRANCH   1   3
ATOM      3  C   UNL     1      -1.379  -1.047   1.464  0.00  0.00    +0.098 A 
ATOM      4  C   UNL     1      -0.533  -0.630   0.445  0.00  0.00    +0.069 A 
ATOM      5  C   UNL     1      -0.910  -0.965  -0.919  0.00  0.00    -0.023 A 
ATOM      6  C   UNL     1      -2.058  -1.665  -1.043  0.00  0.00    -0.004 A 
ATOM      7  S   UNL     1      -2.644  -1.872   0.615  0.00  0.00    -0.076 S 
ATOM      8  C   UNL     1      -2.688  -2.148  -2.313  0.00  0.00    +0.046 C 
ATOM      9  C   UNL     1      -2.028  -1.415  -3.490  0.00  0.00    -0.009 C 
ATOM     10  C   UNL     1      -0.508  -1.473  -3.317  0.00  0.00    +0.008 C 
ATOM     11  C   UNL     1      -0.085  -0.588  -2.143  0.00  0.00    +0.037 C 
ATOM     12  C   UNL     1      -2.424  -2.095  -4.803  0.00  0.00    +0.008 C 
BRANCH   4  13
ATOM     13  C   UNL     1       0.690   0.122   0.732  0.00  0.00    +0.244 C 
ATOM     14  O   UNL     1       1.736  -0.468   0.929  0.00  0.00    -0.270 OA
ATOM     15  N   UNL     1       0.657   1.469   0.779  0.00  0.00    -0.325 N 
ATOM     16  H   UNL     1       1.467   1.968   0.969  0.00  0.00    +0.145 HD
ATOM     17  H   UNL     1      -0.176   1.940   0.618  0.00  0.00    +0.145 HD
ENDBRANCH   4  13
ENDBRANCH   1   3
BRANCH   1  18
ATOM     18  S   UNL     1      -2.391  -1.443   3.864  0.00  0.00    +0.073 S 
ATOM     19  O   UNL     1      -1.962  -1.108   5.177  0.00  0.00    -0.150 OA
ATOM     20  O   UNL     1      -3.653  -1.041   3.349  0.00  0.00    -0.150 OA
BRANCH  18  25
ATOM     21  C   UNL     1      -2.210  -7.462   3.476  0.00  0.00    +0.046 C 
ATOM     22  C   UNL     1      -2.256  -5.959   3.573  0.00  0.00    -0.020 A 
ATOM     23  C   UNL     1      -3.090  -5.237   2.739  0.00  0.00    +0.007 A 
ATOM     24  C   UNL     1      -3.135  -3.858   2.832  0.00  0.00    +0.029 A 
ATOM     25  C   UNL     1      -2.338  -3.201   3.751  0.00  0.00    +0.111 A 
ATOM     26  C   UNL     1      -1.505  -3.922   4.584  0.00  0.00    +0.061 A 
ATOM     27  C   UNL     1      -1.464  -5.302   4.496  0.00  0.00    +0.131 A 
BRANCH  27  28
ATOM     28  N   UNL     1      -0.571  -6.074   5.388  0.00  0.00    +0.057 N 
ATOM     29  O   UNL     1       0.211  -5.493   6.119  0.00  0.00    -0.126 OA
ATOM     30  O   UNL     1      -0.619  -7.292   5.393  0.00  0.00    -0.126 OA
ENDBRANCH  27  28
ENDBRANCH  18  25
ENDBRANCH   1  18
TORSDOF 5
