REMARK  Name = ZINC66926323
REMARK  8 active torsions:
REMARK  status: ('A' for Active; 'I' for Inactive)
REMARK    1  A    between atoms: C_1  and  C_2
REMARK    2  A    between atoms: C_2  and  N_3
REMARK    3  A    between atoms: N_3  and  C_4
REMARK    4  A    between atoms: N_3  and  S_25
REMARK    5  A    between atoms: N_12  and  C_13
REMARK    6  A    between atoms: C_21  and  C_24
REMARK    7  A    between atoms: C_22  and  C_23
REMARK    8  A    between atoms: S_25  and  C_28
REMARK                            x       y       z     vdW  Elec       q    Type
REMARK                         _______ _______ _______ _____ _____    ______ ____
ROOT
ATOM      1  C   UNL     1       2.253  -0.603  -1.037  0.00  0.00    +0.082 C 
ATOM      2  C   UNL     1       2.855   0.716  -0.547  0.00  0.00    +0.039 C 
ATOM      3  C   UNL     1       4.377   0.573  -0.449  0.00  0.00    +0.111 C 
ATOM      4  N   UNL     1       4.690  -0.585   0.399  0.00  0.00    -0.286 N 
ATOM      5  C   UNL     1       4.090  -1.885   0.069  0.00  0.00    +0.111 C 
ATOM      6  C   UNL     1       2.571  -1.715  -0.035  0.00  0.00    +0.039 C 
ATOM      7  C   UNL     1       5.512  -0.458   1.459  0.00  0.00    +0.303 C 
ATOM      8  O   UNL     1       6.073   0.600   1.670  0.00  0.00    -0.253 OA
ATOM      9  N   UNL     1       5.713  -1.503   2.286  0.00  0.00    -0.289 N 
ATOM     10  H   UNL     1       5.321  -2.366   2.080  0.00  0.00    +0.151 HD
ENDROOT
BRANCH   9  11
ATOM     11  C   UNL     1       6.523  -1.336   3.495  0.00  0.00    +0.146 C 
ATOM     12  C   UNL     1       8.015  -1.620   3.204  0.00  0.00    +0.256 C 
ATOM     13  O   UNL     1       8.143  -3.015   3.527  0.00  0.00    -0.489 OA
ATOM     14  C   UNL     1       7.215  -3.346   4.466  0.00  0.00    +0.129 A 
ATOM     15  C   UNL     1       6.194  -2.404   4.520  0.00  0.00    +0.018 A 
ATOM     16  C   UNL     1       5.143  -2.552   5.396  0.00  0.00    +0.009 A 
ATOM     17  C   UNL     1       5.098  -3.645   6.244  0.00  0.00    +0.004 A 
ATOM     18  C   UNL     1       6.111  -4.585   6.206  0.00  0.00    -0.044 A 
ATOM     19  C   UNL     1       7.165  -4.441   5.325  0.00  0.00    -0.006 A 
ATOM     20  C   UNL     1       8.265  -5.471   5.293  0.00  0.00    +0.048 C 
ATOM     21  C   UNL     1       6.065  -5.774   7.132  0.00  0.00    +0.044 C 
ENDBRANCH   9  11
BRANCH   1  22
ATOM     22  N   UNL     1       0.801  -0.460  -1.163  0.00  0.00    -0.179 NA
BRANCH  22  23
ATOM     23  S   UNL     1       0.060  -0.773  -2.611  0.00  0.00    +0.029 S 
ATOM     24  O   UNL     1       0.922  -1.692  -3.268  0.00  0.00    -0.158 OA
ATOM     25  O   UNL     1      -1.267  -1.144  -2.267  0.00  0.00    -0.158 OA
ATOM     26  C   UNL     1       0.058   0.816  -3.487  0.00  0.00    +0.215 C 
ENDBRANCH  22  23
BRANCH  22  28
ATOM     27  C   UNL     1      -0.383  -1.268   0.818  0.00  0.00    +0.022 C 
ATOM     28  C   UNL     1       0.003  -0.040  -0.009  0.00  0.00    +0.106 C 
ENDBRANCH  22  28
ENDBRANCH   1  22
TORSDOF 4
