REMARK  Name = ZINC08652520
REMARK  6 active torsions:
REMARK  status: ('A' for Active; 'I' for Inactive)
REMARK    1  A    between atoms: C_1  and  C_2
REMARK    2  A    between atoms: C_5  and  S_8
REMARK    3  A    between atoms: S_8  and  N_11
REMARK    4  A    between atoms: C_16  and  C_28
REMARK    5  A    between atoms: C_16  and  C_29
REMARK    6  A    between atoms: N_17  and  C_20
REMARK                            x       y       z     vdW  Elec       q    Type
REMARK                         _______ _______ _______ _____ _____    ______ ____
ROOT
ATOM      1  N   UNL     1       0.208  -3.915  -5.304  0.00  0.00    -0.169 N 
ATOM      2  C   UNL     1       1.432  -3.638  -5.796  0.00  0.00    +0.325 C 
ATOM      3  O   UNL     1       1.733  -3.999  -6.917  0.00  0.00    -0.251 OA
ATOM      4  N   UNL     1       2.323  -2.962  -5.044  0.00  0.00    -0.242 N 
ATOM      5  C   UNL     1       3.612  -2.775  -5.502  0.00  0.00    +0.169 C 
ATOM      6  C   UNL     1       5.252  -3.037  -7.269  0.00  0.00    +0.109 C 
ATOM      7  N   UNL     1       6.049  -2.103  -6.459  0.00  0.00    -0.252 N 
ATOM      8  C   UNL     1       5.867  -2.176  -5.080  0.00  0.00    +0.166 C 
ATOM      9  N   UNL     1       4.535  -2.173  -4.670  0.00  0.00    -0.263 N 
ATOM     10  C   UNL     1       5.932  -4.407  -7.285  0.00  0.00    +0.056 C 
ATOM     11  C   UNL     1       5.145  -2.506  -8.700  0.00  0.00    +0.056 C 
ATOM     12  H   UNL     1      -0.032  -3.627  -4.410  0.00  0.00    +0.178 HD
ATOM     13  H   UNL     1       2.058  -2.606  -4.181  0.00  0.00    +0.159 HD
ATOM     14  H   UNL     1       6.793  -2.290  -3.270  0.00  0.00    +0.158 HD
ATOM     15  H   UNL     1       4.268  -1.766  -3.831  0.00  0.00    +0.157 HD
ATOM     16  N   UNL     1       3.844  -3.202  -6.747  0.00  0.00    -0.340 N 
ATOM     17  H   UNL     1       3.103  -3.622  -7.320  0.00  0.00    +0.164 HD
ATOM     18  N   UNL     1       6.922  -2.236  -4.281  0.00  0.00    -0.374 N 
ATOM     19  H   UNL     1       7.868  -2.229  -4.679  0.00  0.00    +0.158 HD
ENDROOT
BRANCH   7  20
ATOM     20  C   UNL     1       6.940  -1.194  -7.040  0.00  0.00    +0.040 A 
ATOM     21  C   UNL     1       8.075  -1.654  -7.696  0.00  0.00    +0.025 A 
ATOM     22  C   UNL     1       8.952  -0.755  -8.269  0.00  0.00    +0.023 A 
ATOM     23  C   UNL     1       8.702   0.604  -8.191  0.00  0.00    +0.059 A 
ATOM     24  C   UNL     1       7.572   1.066  -7.538  0.00  0.00    +0.061 A 
ATOM     25  C   UNL     1       6.688   0.170  -6.967  0.00  0.00    +0.045 A 
ATOM     26 CL   UNL     1       7.263   2.772  -7.441  0.00  0.00    -0.082 Cl
ATOM     27 CL   UNL     1       9.808   1.732  -8.913  0.00  0.00    -0.082 Cl
ENDBRANCH   7  20
BRANCH   1  28
ATOM     28  S   UNL     1      -0.886  -4.747  -6.228  0.00  0.00    +0.076 S 
ATOM     29  O   UNL     1      -0.909  -4.112  -7.500  0.00  0.00    -0.150 OA
ATOM     30  O   UNL     1      -2.054  -4.902  -5.433  0.00  0.00    -0.150 OA
BRANCH  28  35
ATOM     31  C   UNL     1       1.354 -10.280  -7.103  0.00  0.00    +0.044 C 
ATOM     32  C   UNL     1       0.794  -8.898  -6.885  0.00  0.00    -0.050 A 
ATOM     33  C   UNL     1      -0.012  -8.644  -5.791  0.00  0.00    +0.005 A 
ATOM     34  C   UNL     1      -0.525  -7.376  -5.590  0.00  0.00    +0.029 A 
ATOM     35  C   UNL     1      -0.232  -6.362  -6.483  0.00  0.00    +0.109 A 
ATOM     36  C   UNL     1       0.575  -6.617  -7.577  0.00  0.00    +0.029 A 
ATOM     37  C   UNL     1       1.089  -7.885  -7.777  0.00  0.00    +0.005 A 
ENDBRANCH  28  35
ENDBRANCH   1  28
TORSDOF 3
