REMARK  Name = ZINC20363248
REMARK  6 active torsions:
REMARK  status: ('A' for Active; 'I' for Inactive)
REMARK    1  A    between atoms: C_1  and  N_2
REMARK    2  A    between atoms: C_6  and  S_7
REMARK    3  A    between atoms: S_7  and  C_8
REMARK    4  A    between atoms: C_11  and  C_13
REMARK    5  A    between atoms: C_13  and  N_14
REMARK    6  A    between atoms: N_14  and  C_15
REMARK                            x       y       z     vdW  Elec       q    Type
REMARK                         _______ _______ _______ _____ _____    ______ ____
ROOT
ATOM      1  C   UNL     1       5.956   3.275   0.984  0.00  0.00    +0.156 C 
ENDROOT
BRANCH   1   5
ATOM      2  C   UNL     1       9.156   4.512  -0.275  0.00  0.00    +0.169 A 
ATOM      3  C   UNL     1       8.897   5.470   0.645  0.00  0.00    +0.057 A 
ATOM      4  C   UNL     1       7.658   5.141   1.240  0.00  0.00    +0.047 A 
ATOM      5  C   UNL     1       7.235   4.003   0.661  0.00  0.00    +0.120 A 
ATOM      6  O   UNL     1       8.143   3.627  -0.258  0.00  0.00    -0.452 OA
BRANCH   2   7
ATOM      7  S   UNL     1      10.576   4.436  -1.316  0.00  0.00    -0.012 S 
BRANCH   7  13
ATOM      8  C   UNL     1      12.271   2.894  -3.701  0.00  0.00    +0.152 C 
ATOM      9  N   UNL     1      10.991   2.398  -3.188  0.00  0.00    -0.311 N 
ATOM     10  C   UNL     1      10.322   1.274  -3.587  0.00  0.00    +0.225 A 
ATOM     11  N   UNL     1       9.227   1.205  -2.884  0.00  0.00    -0.137 NA
ATOM     12  N   UNL     1       9.161   2.198  -2.070  0.00  0.00    -0.122 NA
ATOM     13  C   UNL     1      10.220   2.961  -2.212  0.00  0.00    +0.199 A 
ENDBRANCH   7  13
ENDBRANCH   2   7
ENDBRANCH   1   5
BRANCH   1  14
ATOM     14  N   UNL     1       4.875   3.781   0.127  0.00  0.00    -0.303 NA
ATOM     15  H   UNL     1       4.739   4.857   0.306  0.00  0.00    +0.123 HD
BRANCH  14  16
ATOM     16  C   UNL     1       3.610   3.092   0.414  0.00  0.00    +0.096 C 
ATOM     17  C   UNL     1       2.434   3.977  -0.007  0.00  0.00    +0.061 C 
ATOM     18  C   UNL     1       1.161   3.169   0.007  0.00  0.00    -0.004 A 
ATOM     19  C   UNL     1      -0.052   3.837   0.024  0.00  0.00    +0.007 A 
ATOM     20  C   UNL     1      -1.238   3.130   0.032  0.00  0.00    +0.000 A 
ATOM     21  C   UNL     1      -1.218   1.747   0.017  0.00  0.00    +0.004 A 
ATOM     22  C   UNL     1      -0.013   1.076   0.008  0.00  0.00    +0.046 A 
ATOM     23  C   UNL     1       1.184   1.786   0.000  0.00  0.00    +0.124 A 
ATOM     24  O   UNL     1       2.351   1.089  -0.010  0.00  0.00    -0.490 OA
ATOM     25  C   UNL     1       3.540   1.785  -0.386  0.00  0.00    +0.248 C 
ENDBRANCH  14  16
ENDBRANCH   1  14
TORSDOF 5
