REMARK  Name = ZINC40369762
REMARK  5 active torsions:
REMARK  status: ('A' for Active; 'I' for Inactive)
REMARK    1  A    between atoms: C_4  and  C_7
REMARK    2  A    between atoms: C_7  and  C_9
REMARK    3  A    between atoms: C_7  and  N_13
REMARK    4  A    between atoms: N_10  and  O_11
REMARK    5  A    between atoms: C_14  and  C_16
REMARK                            x       y       z     vdW  Elec       q    Type
REMARK                         _______ _______ _______ _____ _____    ______ ____
ROOT
ATOM      1  C   UNL     1       2.869  -0.458  -2.525  0.00  0.00    +0.142 C 
ENDROOT
BRANCH   1   5
ATOM      2  C   UNL     1       2.384   1.835   1.113  0.00  0.00    +0.000 C 
ATOM      3  C   UNL     1       2.347   0.309   1.212  0.00  0.00    +0.000 C 
ATOM      4  C   UNL     1       2.993  -0.299  -0.035  0.00  0.00    +0.006 C 
ATOM      5  C   UNL     1       2.223   0.150  -1.278  0.00  0.00    +0.017 C 
ATOM      6  C   UNL     1       2.260   1.676  -1.378  0.00  0.00    +0.006 C 
ATOM      7  C   UNL     1       1.614   2.284  -0.131  0.00  0.00    +0.000 C 
ENDBRANCH   1   5
BRANCH   1   8
ATOM      8  C   UNL     1       2.074  -0.067  -3.744  0.00  0.00    +0.152 C 
ATOM      9  N   UNL     1       2.658   0.526  -4.733  0.00  0.00    -0.075 NA
ATOM     10  N   UNL     1       0.726  -0.340  -3.804  0.00  0.00    -0.342 N 
ATOM     11  H   UNL     1       0.274  -0.721  -3.035  0.00  0.00    +0.144 HD
ATOM     12  H   UNL     1       0.229  -0.153  -4.616  0.00  0.00    +0.144 HD
BRANCH   9  13
ATOM     13  O   UNL     1       1.911   0.893  -5.878  0.00  0.00    -0.408 OA
ATOM     14  H   UNL     1       2.434   1.331  -6.565  0.00  0.00    +0.328 HD
ENDBRANCH   9  13
ENDBRANCH   1   8
BRANCH   1  15
ATOM     15  N   UNL     1       2.888  -1.918  -2.402  0.00  0.00    -0.305 N 
ATOM     16  C   UNL     1       3.808  -2.639  -3.074  0.00  0.00    +0.217 C 
ATOM     17  O   UNL     1       4.620  -2.078  -3.780  0.00  0.00    -0.275 OA
ATOM     18  H   UNL     1       2.239  -2.366  -1.838  0.00  0.00    +0.149 HD
BRANCH  16  19
ATOM     19  C   UNL     1       3.828  -4.140  -2.948  0.00  0.00    +0.075 C 
ATOM     20  C   UNL     1       4.052  -4.526  -1.485  0.00  0.00    +0.013 C 
ATOM     21  C   UNL     1       4.072  -6.051  -1.357  0.00  0.00    +0.001 C 
ATOM     22  C   UNL     1       5.205  -6.620  -2.214  0.00  0.00    +0.000 C 
ATOM     23  C   UNL     1       4.980  -6.234  -3.677  0.00  0.00    +0.001 C 
ATOM     24  C   UNL     1       4.960  -4.709  -3.805  0.00  0.00    +0.013 C 
ENDBRANCH  16  19
ENDBRANCH   1  15
TORSDOF 5
