REMARK  Name = ZINC12132248
REMARK  15 active torsions:
REMARK  status: ('A' for Active; 'I' for Inactive)
REMARK    1  A    between atoms: C_1  and  C_2
REMARK    2  A    between atoms: C_4  and  C_10
REMARK    3  A    between atoms: C_7  and  O_8
REMARK    4  A    between atoms: O_8  and  C_9
REMARK    5  A    between atoms: C_10  and  N_73
REMARK    6  A    between atoms: C_16  and  C_20
REMARK    7  A    between atoms: C_20  and  C_22
REMARK    8  A    between atoms: C_20  and  N_26
REMARK    9  A    between atoms: C_22  and  C_23
REMARK   10  A    between atoms: C_23  and  C_24
REMARK   11  A    between atoms: C_23  and  C_25
REMARK   12  A    between atoms: C_27  and  C_29
REMARK   13  A    between atoms: C_32  and  C_34
REMARK   14  A    between atoms: C_34  and  O_35
REMARK   15  A    between atoms: O_35  and  C_36
REMARK                            x       y       z     vdW  Elec       q    Type
REMARK                         _______ _______ _______ _____ _____    ______ ____
ROOT
ATOM      1  C   UNL     1       1.681  11.565   2.939  0.00  0.00    -0.071 C 
ATOM      2  C   UNL     1       0.329  10.852   3.032  0.00  0.00    +0.058 C 
ATOM      3  C   UNL     1       0.270   9.782   1.972  0.00  0.00    +0.132 A 
ATOM      4  N   UNL     1      -0.711   9.522   1.158  0.00  0.00    -0.134 NA
ATOM      5  N   UNL     1      -0.399   8.518   0.414  0.00  0.00    -0.132 NA
ATOM      6  C   UNL     1       0.797   8.093   0.727  0.00  0.00    +0.154 A 
ATOM      7  N   UNL     1       1.259   8.893   1.712  0.00  0.00    -0.315 N 
ATOM      8  C   UNL     1       2.565   8.841   2.369  0.00  0.00    +0.106 C 
ATOM      9  C   UNL     1       2.438   9.412   3.785  0.00  0.00    -0.056 C 
ATOM     10  N   UNL     1       2.671  10.875   3.796  0.00  0.00    +0.384 N 
ATOM     11  H   UNL     1       2.571  11.218   4.758  0.00  0.00    -0.081 HD
ENDROOT
BRANCH  10  12
ATOM     12  C   UNL     1       4.035  11.169   3.323  0.00  0.00    -0.043 C 
BRANCH  12  16
ATOM     13  C   UNL     1       4.016  15.929   1.780  0.00  0.00    +0.047 C 
ATOM     14  C   UNL     1       4.318  14.903   2.841  0.00  0.00    -0.009 A 
ATOM     15  C   UNL     1       4.056  13.567   2.605  0.00  0.00    +0.008 A 
ATOM     16  C   UNL     1       4.328  12.625   3.580  0.00  0.00    -0.063 A 
ATOM     17  C   UNL     1       4.875  13.016   4.789  0.00  0.00    +0.005 A 
ATOM     18  C   UNL     1       5.144  14.350   5.027  0.00  0.00    +0.046 A 
ATOM     19  C   UNL     1       4.866  15.297   4.053  0.00  0.00    +0.123 A 
BRANCH  19  20
ATOM     20  O   UNL     1       5.130  16.610   4.285  0.00  0.00    -0.495 OA
ATOM     21  C   UNL     1       5.694  16.944   5.555  0.00  0.00    +0.277 C 
ENDBRANCH  19  20
ENDBRANCH  12  16
ENDBRANCH  10  12
BRANCH   6  22
ATOM     22  C   UNL     1       1.527   6.932   0.101  0.00  0.00    +0.142 C 
BRANCH  22  23
ATOM     23  N   UNL     1       0.616   5.791  -0.020  0.00  0.00    -0.299 N 
ATOM     24  C   UNL     1       1.103   4.535  -0.001  0.00  0.00    +0.280 C 
ATOM     25  O   UNL     1       2.305   4.349   0.019  0.00  0.00    -0.267 OA
ATOM     26  H   UNL     1      -0.338   5.940  -0.114  0.00  0.00    +0.150 HD
BRANCH  24  27
ATOM     27  C   UNL     1       0.184   3.392  -0.006  0.00  0.00    +0.190 A 
ATOM     28  C   UNL     1       0.542   2.074   0.011  0.00  0.00    +0.055 A 
ATOM     29  C   UNL     1      -0.649   1.332  -0.001  0.00  0.00    +0.048 A 
ATOM     30  C   UNL     1      -1.669   2.218  -0.031  0.00  0.00    +0.131 A 
ATOM     31  O   UNL     1      -1.163   3.458  -0.028  0.00  0.00    -0.453 OA
BRANCH  30  32
ATOM     32  C   UNL     1      -3.135   1.868  -0.058  0.00  0.00    +0.233 C 
BRANCH  32  33
ATOM     33  O   UNL     1      -3.626   1.770   1.280  0.00  0.00    -0.375 OA
ATOM     34  C   UNL     1      -5.014   1.440   1.367  0.00  0.00    +0.194 C 
ENDBRANCH  32  33
ENDBRANCH  30  32
ENDBRANCH  24  27
ENDBRANCH  22  23
BRANCH  22  35
ATOM     35  C   UNL     1       2.029   7.333  -1.287  0.00  0.00    +0.033 C 
BRANCH  35  36
ATOM     36  C   UNL     1       3.058   8.457  -1.152  0.00  0.00    -0.015 C 
ATOM     37  C   UNL     1       4.304   7.925  -0.443  0.00  0.00    +0.007 C 
ATOM     38  C   UNL     1       3.441   8.968  -2.543  0.00  0.00    +0.007 C 
ENDBRANCH  35  36
ENDBRANCH  22  35
ENDBRANCH   6  22
TORSDOF 10
