REMARK  Name = ZINC15181132
REMARK  7 active torsions:
REMARK  status: ('A' for Active; 'I' for Inactive)
REMARK    1  A    between atoms: C_1  and  C_2
REMARK    2  A    between atoms: C_2  and  C_27
REMARK    3  A    between atoms: C_13  and  C_15
REMARK    4  A    between atoms: C_15  and  O_16
REMARK    5  A    between atoms: O_16  and  C_17
REMARK    6  A    between atoms: C_17  and  C_19
REMARK    7  A    between atoms: C_24  and  O_25
REMARK                            x       y       z     vdW  Elec       q    Type
REMARK                         _______ _______ _______ _____ _____    ______ ____
ROOT
ATOM      1  C   UNL     1       0.185  -2.539  -8.123  0.00  0.00    +0.042 C 
ATOM      2  C   UNL     1      -0.311  -1.138  -8.485  0.00  0.00    +0.113 C 
ATOM      3  C   UNL     1       0.453  -0.625  -9.674  0.00  0.00    +0.241 C 
ATOM      4  O   UNL     1       0.859  -1.408 -10.507  0.00  0.00    -0.273 OA
ATOM      5  N   UNL     1       0.695   0.691  -9.823  0.00  0.00    -0.282 N 
ATOM      6  C   UNL     1       0.282   1.609  -8.852  0.00  0.00    +0.055 A 
ATOM      7  C   UNL     1       0.269   2.968  -9.121  0.00  0.00    +0.025 A 
ATOM      8  C   UNL     1      -0.133   3.859  -8.143  0.00  0.00    +0.002 A 
ATOM      9  C   UNL     1      -0.522   3.402  -6.897  0.00  0.00    +0.002 A 
ATOM     10  C   UNL     1      -0.515   2.046  -6.620  0.00  0.00    +0.025 A 
ATOM     11  C   UNL     1      -0.115   1.149  -7.595  0.00  0.00    +0.059 A 
ATOM     12  N   UNL     1      -0.100  -0.232  -7.346  0.00  0.00    -0.253 N 
ATOM     13  C   UNL     1       0.107  -0.713  -6.104  0.00  0.00    +0.258 C 
ATOM     14  O   UNL     1       0.219  -1.907  -5.927  0.00  0.00    -0.271 OA
ATOM     15  C   UNL     1      -1.802  -1.194  -8.825  0.00  0.00    +0.042 C 
ATOM     16  H   UNL     1       1.162   1.006 -10.613  0.00  0.00    +0.155 HD
ENDROOT
BRANCH  13  17
ATOM     17  C   UNL     1       0.201   0.234  -4.935  0.00  0.00    +0.328 C 
BRANCH  17  18
ATOM     18  O   UNL     1       0.685  -0.482  -3.769  0.00  0.00    -0.452 OA
BRANCH  18  19
ATOM     19  C   UNL     1       0.827   0.226  -2.631  0.00  0.00    +0.343 C 
ATOM     20  O   UNL     1       0.552   1.409  -2.614  0.00  0.00    -0.245 OA
BRANCH  19  21
ATOM     21  C   UNL     1       1.314  -0.436  -1.408  0.00  0.00    +0.101 A 
ATOM     22  C   UNL     1       1.635  -1.796  -1.424  0.00  0.00    +0.034 A 
ATOM     23  C   UNL     1       2.084  -2.410  -0.274  0.00  0.00    +0.019 A 
ATOM     24  C   UNL     1       2.225  -1.682   0.897  0.00  0.00    +0.019 A 
ATOM     25  C   UNL     1       1.917  -0.337   0.926  0.00  0.00    +0.047 A 
ATOM     26  C   UNL     1       1.462   0.297  -0.222  0.00  0.00    +0.131 A 
ATOM     27 BR   UNL     1       2.512  -4.252  -0.296  0.00  0.00    -0.050 Br
BRANCH  26  28
ATOM     28  O   UNL     1       1.158   1.618  -0.195  0.00  0.00    -0.506 OA
ATOM     29  H   UNL     1       1.902   2.198  -0.408  0.00  0.00    +0.292 HD
ENDBRANCH  26  28
ENDBRANCH  19  21
ENDBRANCH  18  19
ENDBRANCH  17  18
ENDBRANCH  13  17
TORSDOF 5
