REMARK  Name = ZINC05702098
REMARK  5 active torsions:
REMARK  status: ('A' for Active; 'I' for Inactive)
REMARK    1  A    between atoms: C_1  and  C_2
REMARK    2  A    between atoms: C_2  and  C_3
REMARK    3  A    between atoms: C_3  and  N_4
REMARK    4  A    between atoms: C_8  and  C_10
REMARK    5  A    between atoms: C_10  and  N_11
REMARK                            x       y       z     vdW  Elec       q    Type
REMARK                         _______ _______ _______ _____ _____    ______ ____
ROOT
ATOM      1  N   UNL     1      -0.144  -2.635  -0.011  0.00  0.00    -0.194 N 
ATOM      2  C   UNL     1       1.151  -2.091  -0.019  0.00  0.00    +0.061 A 
ATOM      3  C   UNL     1       2.365  -2.775  -0.034  0.00  0.00    +0.025 A 
ATOM      4  C   UNL     1       3.571  -2.085  -0.041  0.00  0.00    +0.002 A 
ATOM      5  C   UNL     1       3.633  -0.723  -0.035  0.00  0.00    +0.009 A 
ATOM      6  C   UNL     1       2.435   0.011  -0.020  0.00  0.00    -0.014 A 
ATOM      7  C   UNL     1       1.216  -0.699  -0.013  0.00  0.00    +0.031 A 
ATOM      8  C   UNL     1       0.002  -0.004   0.002  0.00  0.00    +0.118 A 
ATOM      9  C   UNL     1      -0.016   1.341   0.009  0.00  0.00    +0.029 A 
ATOM     10  C   UNL     1       1.189   2.056   0.002  0.00  0.00    +0.003 A 
ATOM     11  C   UNL     1       2.392   1.415  -0.012  0.00  0.00    +0.009 A 
ATOM     12  S   UNL     1      -1.183  -1.319   0.006  0.00  0.00    +0.076 S 
ATOM     13  O   UNL     1      -1.844  -1.304   1.264  0.00  0.00    -0.150 OA
ATOM     14  O   UNL     1      -1.867  -1.290  -1.240  0.00  0.00    -0.150 OA
ENDROOT
BRANCH   1  15
ATOM     15  C   UNL     1      -0.510  -4.054  -0.015  0.00  0.00    +0.227 C 
BRANCH  15  20
ATOM     16  N   UNL     1      -1.171  -7.593  -3.201  0.00  0.00    -0.299 N 
ATOM     17  C   UNL     1      -0.858  -6.306  -2.951  0.00  0.00    +0.306 C 
ATOM     18  O   UNL     1      -0.592  -5.556  -3.870  0.00  0.00    -0.252 OA
ATOM     19  N   UNL     1      -0.842  -5.850  -1.683  0.00  0.00    -0.239 N 
ATOM     20  C   UNL     1      -0.529  -4.563  -1.433  0.00  0.00    +0.240 C 
ATOM     21  O   UNL     1      -0.263  -3.815  -2.350  0.00  0.00    -0.274 OA
ATOM     22  H   UNL     1      -1.384  -8.191  -2.468  0.00  0.00    +0.150 HD
ATOM     23  H   UNL     1      -1.054  -6.448  -0.950  0.00  0.00    +0.159 HD
BRANCH  16  24
ATOM     24  C   UNL     1      -1.189  -8.088  -4.580  0.00  0.00    +0.105 C 
BRANCH  24  26
ATOM     25  C   UNL     1      -1.590 -10.086  -6.025  0.00  0.00    +0.005 C 
ATOM     26  C   UNL     1      -1.571  -9.569  -4.585  0.00  0.00    +0.015 C 
ENDBRANCH  24  26
ENDBRANCH  16  24
ENDBRANCH  15  20
ENDBRANCH   1  15
TORSDOF 4
