REMARK  Name = ZINC37809724
REMARK  5 active torsions:
REMARK  status: ('A' for Active; 'I' for Inactive)
REMARK    1  A    between atoms: C_4  and  N_7
REMARK    2  A    between atoms: N_7  and  C_8
REMARK    3  A    between atoms: C_8  and  C_9
REMARK    4  A    between atoms: C_9  and  O_10
REMARK    5  A    between atoms: C_11  and  C_13
REMARK                            x       y       z     vdW  Elec       q    Type
REMARK                         _______ _______ _______ _____ _____    ______ ____
ROOT
ATOM      1  N   UNL     1       2.839  -0.440  -2.473  0.00  0.00    -0.298 N 
ATOM      2  C   UNL     1       3.947  -1.201  -2.364  0.00  0.00    +0.202 C 
ATOM      3  O   UNL     1       4.375  -1.494  -1.268  0.00  0.00    -0.277 OA
ENDROOT
BRANCH   2   4
ATOM      4  C   UNL     1       4.652  -1.687  -3.604  0.00  0.00    +0.017 C 
ATOM      5  C   UNL     1       3.710  -2.590  -4.424  0.00  0.00    -0.005 C 
ATOM      6  C   UNL     1       4.424  -3.971  -4.473  0.00  0.00    -0.026 C 
ATOM      7  C   UNL     1       3.886  -4.784  -3.293  0.00  0.00    +0.002 C 
ATOM      8  C   UNL     1       4.783  -5.986  -3.009  0.00  0.00    +0.000 C 
ATOM      9  C   UNL     1       6.176  -5.476  -2.622  0.00  0.00    -0.002 C 
ATOM     10  C   UNL     1       6.765  -4.733  -3.821  0.00  0.00    -0.015 C 
ATOM     11  C   UNL     1       5.894  -3.571  -4.251  0.00  0.00    -0.068 C 
ATOM     12  N   UNL     1       5.829  -2.507  -3.227  0.00  0.00    +0.389 N 
ATOM     13  H   UNL     1       6.667  -1.946  -3.247  0.00  0.00    -0.084 HD
ATOM     14  H   UNL     1       5.696  -2.909  -2.312  0.00  0.00    -0.084 HD
ENDBRANCH   2   4
BRANCH   1  18
ATOM     15  C   UNL     1      -0.019   1.526   0.010  0.00  0.00    +0.000 C 
ATOM     16  C   UNL     1       1.417   2.055  -0.000  0.00  0.00    +0.002 C 
ATOM     17  C   UNL     1       2.133   1.562  -1.259  0.00  0.00    +0.022 C 
ATOM     18  C   UNL     1       2.154   0.032  -1.268  0.00  0.00    +0.076 C 
ATOM     19  C   UNL     1       0.718  -0.497  -1.257  0.00  0.00    +0.022 C 
ATOM     20  C   UNL     1       0.002  -0.004   0.002  0.00  0.00    +0.002 C 
ENDBRANCH   1  18
BRANCH   1  21
ATOM     21  C   UNL     1       2.321  -0.086  -3.797  0.00  0.00    +0.135 C 
BRANCH  21  22
ATOM     22  C   UNL     1       2.958   1.226  -4.259  0.00  0.00    +0.174 C 
BRANCH  22  23
ATOM     23  O   UNL     1       4.362   1.036  -4.441  0.00  0.00    -0.393 OA
ATOM     24  H   UNL     1       4.832   1.829  -4.734  0.00  0.00    +0.209 HD
ENDBRANCH  22  23
ENDBRANCH  21  22
ENDBRANCH   1  21
TORSDOF 5
