REMARK  Name = ZINC36749460
REMARK  10 active torsions:
REMARK  status: ('A' for Active; 'I' for Inactive)
REMARK    1  A    between atoms: C_1  and  C_2
REMARK    2  A    between atoms: C_5  and  O_12
REMARK    3  A    between atoms: C_6  and  C_8
REMARK    4  A    between atoms: C_8  and  C_9
REMARK    5  A    between atoms: C_8  and  C_10
REMARK    6  A    between atoms: C_8  and  C_11
REMARK    7  A    between atoms: O_12  and  C_13
REMARK    8  A    between atoms: C_14  and  N_20
REMARK    9  A    between atoms: C_15  and  C_19
REMARK   10  A    between atoms: N_17  and  C_18
REMARK                            x       y       z     vdW  Elec       q    Type
REMARK                         _______ _______ _______ _____ _____    ______ ____
ROOT
ATOM      1  C   UNL     1       0.392   1.496  -0.027  0.00  0.00    +0.044 C 
ATOM      2  C   UNL     1       0.302  -0.009  -0.026  0.00  0.00    -0.050 A 
ATOM      3  C   UNL     1       0.306  -0.701  -1.223  0.00  0.00    +0.007 A 
ATOM      4  C   UNL     1       0.224  -2.080  -1.224  0.00  0.00    +0.047 A 
ATOM      5  C   UNL     1       0.138  -2.770  -0.023  0.00  0.00    +0.134 A 
ATOM      6  C   UNL     1       0.135  -2.073   1.176  0.00  0.00    +0.001 A 
ATOM      7  C   UNL     1       0.223  -0.694   1.172  0.00  0.00    +0.011 A 
ENDROOT
BRANCH   6   8
ATOM      8  C   UNL     1       0.042  -2.819   2.482  0.00  0.00    -0.009 C 
ATOM      9  C   UNL     1       0.058  -1.821   3.642  0.00  0.00    +0.015 C 
ATOM     10  C   UNL     1      -1.260  -3.622   2.519  0.00  0.00    +0.015 C 
ATOM     11  C   UNL     1       1.232  -3.771   2.612  0.00  0.00    +0.015 C 
ENDBRANCH   6   8
BRANCH   5  12
ATOM     12  O   UNL     1       0.057  -4.126  -0.022  0.00  0.00    -0.436 OA
BRANCH  12  13
ATOM     13  C   UNL     1      -0.046  -4.761  -1.220  0.00  0.00    +0.240 A 
ATOM     14  C   UNL     1       0.980  -5.296  -1.939  0.00  0.00    +0.110 A 
ATOM     15  C   UNL     1       0.441  -5.851  -3.106  0.00  0.00    +0.084 A 
ATOM     16  N   UNL     1      -0.854  -5.661  -3.095  0.00  0.00    -0.172 NA
ATOM     17  N   UNL     1      -1.192  -4.982  -1.917  0.00  0.00    -0.234 N 
ATOM     18  C   UNL     1      -2.541  -4.580  -1.510  0.00  0.00    +0.176 C 
ATOM     19  C   UNL     1       1.220  -6.549  -4.191  0.00  0.00    +0.069 C 
BRANCH  14  20
ATOM     20  N   UNL     1       2.344  -5.291  -1.572  0.00  0.00    -0.352 N 
ATOM     21  H   UNL     1       2.621  -4.879  -0.739  0.00  0.00    +0.143 HD
ATOM     22  H   UNL     1       3.004  -5.700  -2.154  0.00  0.00    +0.143 HD
ENDBRANCH  14  20
ENDBRANCH  12  13
ENDBRANCH   5  12
TORSDOF 4
