REMARK  Name = ZINC01234792
REMARK  8 active torsions:
REMARK  status: ('A' for Active; 'I' for Inactive)
REMARK    1  A    between atoms: C_1  and  C_2
REMARK    2  A    between atoms: C_4  and  S_25
REMARK    3  A    between atoms: C_5  and  C_23
REMARK    4  A    between atoms: C_6  and  C_18
REMARK    5  A    between atoms: C_8  and  C_9
REMARK    6  A    between atoms: N_11  and  C_12
REMARK    7  A    between atoms: S_25  and  C_26
REMARK    8  A    between atoms: C_26  and  C_27
REMARK                            x       y       z     vdW  Elec       q    Type
REMARK                         _______ _______ _______ _____ _____    ______ ____
ROOT
ATOM      1  C   UNL     1       0.074   1.630  -0.079  0.00  0.00    +0.061 C 
ATOM      2  C   UNL     1      -0.001   0.125  -0.070  0.00  0.00    +0.015 C 
ATOM      3  N   UNL     1      -0.112  -0.551  -1.255  0.00  0.00    -0.312 N 
ATOM      4  C   UNL     1      -0.540  -1.859  -1.267  0.00  0.00    +0.080 C 
ATOM      5  C   UNL     1      -0.518  -2.604  -0.130  0.00  0.00    +0.072 C 
ATOM      6  C   UNL     1      -0.020  -2.031   1.167  0.00  0.00    +0.134 C 
ATOM      7  C   UNL     1       0.047  -0.532   1.100  0.00  0.00    +0.047 C 
ATOM      8  H   UNL     1       0.113  -0.107  -2.087  0.00  0.00    +0.152 HD
ENDROOT
BRANCH   6   9
ATOM      9  C   UNL     1       1.358  -2.571   1.451  0.00  0.00    +0.118 A 
ATOM     10  C   UNL     1       1.712  -3.297   2.527  0.00  0.00    +0.045 A 
ATOM     11  C   UNL     1       3.089  -3.589   2.388  0.00  0.00    +0.041 A 
ATOM     12  C   UNL     1       3.493  -3.025   1.236  0.00  0.00    +0.195 A 
ATOM     13  O   UNL     1       2.439  -2.415   0.669  0.00  0.00    -0.467 OA
ENDBRANCH   6   9
BRANCH   7  14
ATOM     14  C   UNL     1       0.158   0.207   2.302  0.00  0.00    +0.247 C 
ATOM     15  O   UNL     1      -0.808   0.331   3.032  0.00  0.00    -0.270 OA
ATOM     16  N   UNL     1       1.334   0.774   2.638  0.00  0.00    -0.282 N 
ATOM     17  H   UNL     1       2.082   0.741   2.022  0.00  0.00    +0.155 HD
BRANCH  16  18
ATOM     18  C   UNL     1       1.475   1.412   3.874  0.00  0.00    +0.034 A 
ATOM     19  C   UNL     1       2.294   2.527   3.993  0.00  0.00    +0.023 A 
ATOM     20  C   UNL     1       2.430   3.155   5.216  0.00  0.00    +0.002 A 
ATOM     21  C   UNL     1       1.753   2.674   6.321  0.00  0.00    +0.000 A 
ATOM     22  C   UNL     1       0.937   1.563   6.206  0.00  0.00    +0.002 A 
ATOM     23  C   UNL     1       0.791   0.935   4.985  0.00  0.00    +0.023 A 
ENDBRANCH  16  18
ENDBRANCH   7  14
BRANCH   5  24
ATOM     24  C   UNL     1      -0.978  -3.959  -0.168  0.00  0.00    +0.098 C 
ATOM     25  N   UNL     1      -1.343  -5.035  -0.199  0.00  0.00    -0.191 NA
ENDBRANCH   5  24
BRANCH   4  26
ATOM     26  S   UNL     1      -1.123  -2.574  -2.769  0.00  0.00    -0.100 S 
BRANCH  26  27
ATOM     27  C   UNL     1      -0.969  -1.234  -3.982  0.00  0.00    +0.171 C 
BRANCH  27  28
ATOM     28  C   UNL     1      -1.441  -1.718  -5.328  0.00  0.00    +0.221 C 
ATOM     29  O   UNL     1      -1.841  -2.856  -5.457  0.00  0.00    -0.275 OA
ATOM     30  N   UNL     1      -1.418  -0.887  -6.389  0.00  0.00    -0.329 N 
ATOM     31  H   UNL     1      -1.097   0.022  -6.286  0.00  0.00    +0.145 HD
ATOM     32  H   UNL     1      -1.721  -1.199  -7.256  0.00  0.00    +0.145 HD
ENDBRANCH  27  28
ENDBRANCH  26  27
ENDBRANCH   4  26
TORSDOF 7
