REMARK  Name = ZINC60346246
REMARK  8 active torsions:
REMARK  status: ('A' for Active; 'I' for Inactive)
REMARK    1  A    between atoms: C_1  and  C_2
REMARK    2  A    between atoms: C_5  and  C_7
REMARK    3  A    between atoms: C_7  and  C_31
REMARK    4  A    between atoms: N_10  and  C_14
REMARK    5  A    between atoms: C_14  and  C_15
REMARK    6  A    between atoms: N_17  and  C_18
REMARK    7  A    between atoms: N_22  and  C_23
REMARK    8  A    between atoms: C_23  and  C_24
REMARK                            x       y       z     vdW  Elec       q    Type
REMARK                         _______ _______ _______ _____ _____    ______ ____
ROOT
ATOM      1  C   UNL     1       3.625  -3.018   3.968  0.00  0.00    +0.236 C 
ATOM      2  O   UNL     1       2.580  -2.403   3.948  0.00  0.00    -0.274 OA
ATOM      3  N   UNL     1       4.444  -2.920   5.034  0.00  0.00    -0.269 N 
ATOM      4  H   UNL     1       5.280  -3.412   5.050  0.00  0.00    +0.156 HD
ENDROOT
BRANCH   3   5
ATOM      5  C   UNL     1       4.090  -2.111   6.113  0.00  0.00    +0.124 A 
ATOM      6  C   UNL     1       2.952  -1.374   6.226  0.00  0.00    +0.065 A 
ATOM      7  C   UNL     1       2.990  -0.713   7.458  0.00  0.00    +0.136 A 
ATOM      8  N   UNL     1       4.104  -1.037   8.063  0.00  0.00    -0.178 NA
ATOM      9  N   UNL     1       4.814  -1.920   7.240  0.00  0.00    -0.246 N 
BRANCH   9  10
ATOM     10  C   UNL     1       6.111  -2.528   7.545  0.00  0.00    +0.182 C 
BRANCH  10  11
ATOM     11  C   UNL     1       7.215  -1.635   7.040  0.00  0.00    -0.008 A 
ATOM     12  C   UNL     1       7.769  -1.857   5.793  0.00  0.00    +0.007 A 
ATOM     13  C   UNL     1       8.782  -1.038   5.330  0.00  0.00    +0.000 A 
ATOM     14  C   UNL     1       9.241   0.004   6.114  0.00  0.00    +0.001 A 
ATOM     15  C   UNL     1       8.689   0.227   7.361  0.00  0.00    +0.020 A 
ATOM     16  C   UNL     1       7.671  -0.589   7.823  0.00  0.00    +0.046 A 
ATOM     17 CL   UNL     1       6.972  -0.306   9.386  0.00  0.00    -0.083 Cl
ENDBRANCH  10  11
ENDBRANCH   9  10
ENDBRANCH   3   5
BRANCH   1  18
ATOM     18  C   UNL     1       4.007  -3.893   2.802  0.00  0.00    +0.214 C 
BRANCH  18  22
ATOM     19  C   UNL     1       1.684  -3.245  -0.023  0.00  0.00    +0.168 C 
ATOM     20  C   UNL     1       2.935  -2.933   0.774  0.00  0.00    +0.254 C 
ATOM     21  O   UNL     1       3.745  -2.059   0.553  0.00  0.00    -0.272 OA
ATOM     22  N   UNL     1       2.959  -3.830   1.780  0.00  0.00    -0.215 N 
ATOM     23  C   UNL     1       1.908  -4.656   1.730  0.00  0.00    +0.310 C 
ATOM     24  O   UNL     1       1.712  -5.549   2.531  0.00  0.00    -0.252 OA
ATOM     25  N   UNL     1       1.093  -4.388   0.694  0.00  0.00    -0.279 N 
ATOM     26  C   UNL     1       2.040  -3.636  -1.458  0.00  0.00    +0.050 C 
ATOM     27  H   UNL     1       0.275  -4.856   0.464  0.00  0.00    +0.152 HD
BRANCH  19  32
ATOM     28  C   UNL     1      -0.018   1.503   0.010  0.00  0.00    +0.086 C 
ATOM     29  C   UNL     1       0.002  -0.004   0.002  0.00  0.00    +0.102 A 
ATOM     30  C   UNL     1      -1.078  -0.805   0.003  0.00  0.00    +0.045 A 
ATOM     31  C   UNL     1      -0.601  -2.136  -0.007  0.00  0.00    +0.047 A 
ATOM     32  C   UNL     1       0.742  -2.069  -0.013  0.00  0.00    +0.137 A 
ATOM     33  O   UNL     1       1.102  -0.775  -0.013  0.00  0.00    -0.462 OA
ENDBRANCH  19  32
ENDBRANCH  18  22
ENDBRANCH   1  18
TORSDOF 6
