REMARK  Name = ZINC01123683
REMARK  10 active torsions:
REMARK  status: ('A' for Active; 'I' for Inactive)
REMARK    1  A    between atoms: C_1  and  C_2
REMARK    2  A    between atoms: C_6  and  C_29
REMARK    3  A    between atoms: C_7  and  N_8
REMARK    4  A    between atoms: C_9  and  C_11
REMARK    5  A    between atoms: C_15  and  N_16
REMARK    6  A    between atoms: C_17  and  C_19
REMARK    7  A    between atoms: C_19  and  C_20
REMARK    8  A    between atoms: C_19  and  C_21
REMARK    9  A    between atoms: C_19  and  C_22
REMARK   10  A    between atoms: C_24  and  C_28
REMARK                            x       y       z     vdW  Elec       q    Type
REMARK                         _______ _______ _______ _____ _____    ______ ____
ROOT
ATOM      1  C   UNL     1       1.786   0.609   3.378  0.00  0.00    +0.069 A 
ATOM      2  C   UNL     1       1.310   0.061   2.119  0.00  0.00    -0.023 A 
ATOM      3  C   UNL     1       1.949   0.511   1.018  0.00  0.00    -0.004 A 
ATOM      4  S   UNL     1       3.164   1.644   1.631  0.00  0.00    -0.077 S 
ATOM      5  C   UNL     1       2.830   1.522   3.326  0.00  0.00    +0.084 A 
ATOM      6  C   UNL     1       1.678   0.127  -0.404  0.00  0.00    +0.046 C 
ATOM      7  C   UNL     1       0.812  -1.141  -0.406  0.00  0.00    -0.009 C 
ATOM      8  C   UNL     1      -0.350  -0.946   0.572  0.00  0.00    +0.008 C 
ATOM      9  C   UNL     1       0.174  -0.948   2.010  0.00  0.00    +0.037 C 
ATOM     10  C   UNL     1       0.265  -1.387  -1.813  0.00  0.00    +0.008 C 
ENDROOT
BRANCH   1  12
ATOM     11  N   UNL     1       1.679  -0.845   5.332  0.00  0.00    -0.281 N 
ATOM     12  C   UNL     1       1.186   0.212   4.655  0.00  0.00    +0.251 C 
ATOM     13  O   UNL     1       0.243   0.836   5.105  0.00  0.00    -0.270 OA
ATOM     14  H   UNL     1       2.394  -1.376   4.948  0.00  0.00    +0.155 HD
BRANCH  11  21
ATOM     15  C   UNL     1       0.953  -3.554   5.813  0.00  0.00    +0.045 C 
ATOM     16  C   UNL     1       0.792  -2.486   6.865  0.00  0.00    -0.029 A 
ATOM     17  C   UNL     1       0.284  -2.811   8.107  0.00  0.00    +0.005 A 
ATOM     18  C   UNL     1       0.130  -1.831   9.071  0.00  0.00    +0.001 A 
ATOM     19  C   UNL     1       0.489  -0.524   8.795  0.00  0.00    +0.005 A 
ATOM     20  C   UNL     1       1.003  -0.194   7.557  0.00  0.00    -0.029 A 
ATOM     21  C   UNL     1       1.159  -1.176   6.587  0.00  0.00    +0.040 A 
ATOM     22  C   UNL     1       1.394   1.230   7.257  0.00  0.00    +0.045 C 
ENDBRANCH  11  21
ENDBRANCH   1  12
BRANCH   5  23
ATOM     23  N   UNL     1       3.453   2.178   4.377  0.00  0.00    -0.279 N 
ATOM     24  C   UNL     1       4.460   3.040   4.130  0.00  0.00    +0.223 C 
ATOM     25  O   UNL     1       4.821   3.241   2.990  0.00  0.00    -0.275 OA
ATOM     26  H   UNL     1       3.165   2.017   5.289  0.00  0.00    +0.155 HD
BRANCH  24  27
ATOM     27  C   UNL     1       5.138   3.753   5.272  0.00  0.00    +0.039 C 
ATOM     28  C   UNL     1       6.237   4.665   4.723  0.00  0.00    +0.020 C 
ATOM     29  C   UNL     1       4.109   4.594   6.031  0.00  0.00    +0.020 C 
ATOM     30  C   UNL     1       5.756   2.724   6.221  0.00  0.00    +0.020 C 
ENDBRANCH  24  27
ENDBRANCH   5  23
TORSDOF 4
