REMARK  Name = ZINC39781361
REMARK  7 active torsions:
REMARK  status: ('A' for Active; 'I' for Inactive)
REMARK    1  A    between atoms: C_4  and  C_7
REMARK    2  A    between atoms: C_10  and  C_13
REMARK    3  A    between atoms: C_13  and  S_14
REMARK    4  A    between atoms: S_14  and  C_15
REMARK    5  A    between atoms: C_19  and  C_28
REMARK    6  A    between atoms: N_20  and  C_21
REMARK    7  A    between atoms: C_21  and  C_22
REMARK                            x       y       z     vdW  Elec       q    Type
REMARK                         _______ _______ _______ _____ _____    ______ ____
ROOT
ATOM      1  C   UNL     1       5.604  -6.643   0.920  0.00  0.00    +0.237 C 
ATOM      2  N   UNL     1       7.070  -6.559   0.818  0.00  0.00    -0.237 N 
ATOM      3  N   UNL     1       7.527  -6.063   2.045  0.00  0.00    -0.169 NA
ATOM      4  C   UNL     1       6.534  -5.839   2.865  0.00  0.00    +0.147 C 
ATOM      5  N   UNL     1       5.304  -6.162   2.279  0.00  0.00    -0.283 N 
ATOM      6  H   UNL     1       7.613  -6.801   0.051  0.00  0.00    +0.171 HD
ENDROOT
BRANCH   4   7
ATOM      7  C   UNL     1       6.682  -5.340   4.168  0.00  0.00    +0.022 C 
ATOM      8  C   UNL     1       7.876  -5.101   4.849  0.00  0.00    +0.006 A 
ATOM      9  C   UNL     1       9.230  -5.267   4.487  0.00  0.00    +0.010 A 
ATOM     10  C   UNL     1      10.209  -4.944   5.372  0.00  0.00    +0.001 A 
ATOM     11  C   UNL     1       9.911  -4.449   6.643  0.00  0.00    +0.002 A 
ATOM     12  C   UNL     1       8.633  -4.266   7.058  0.00  0.00    +0.026 A 
ATOM     13  C   UNL     1       7.557  -4.580   6.188  0.00  0.00    +0.043 A 
ATOM     14  N   UNL     1       6.251  -4.493   6.350  0.00  0.00    -0.380 N 
ATOM     15  C   UNL     1       5.581  -4.943   5.126  0.00  0.00    +0.152 C 
ATOM     16  H   UNL     1       5.804  -4.176   7.151  0.00  0.00    +0.160 HD
ENDBRANCH   4   7
BRANCH   1  17
ATOM     17  S   UNL     1       4.819  -5.575  -0.318  0.00  0.00    -0.114 S 
BRANCH  17  18
ATOM     18  C   UNL     1       5.501  -3.930   0.025  0.00  0.00    +0.119 C 
BRANCH  18  22
ATOM     19  C   UNL     1       3.327  -1.319  -0.894  0.00  0.00    +0.218 C 
ATOM     20  N   UNL     1       4.416  -0.622  -0.979  0.00  0.00    -0.247 NA
ATOM     21  C   UNL     1       5.566  -1.526  -0.782  0.00  0.00    +0.190 C 
ATOM     22  C   UNL     1       4.915  -2.919  -0.962  0.00  0.00    +0.206 C 
ATOM     23  O   UNL     1       3.536  -2.629  -0.645  0.00  0.00    -0.470 OA
BRANCH  19  27
ATOM     24  C   UNL     1      -0.548   0.365  -1.344  0.00  0.00    +0.000 A 
ATOM     25  C   UNL     1       0.571   1.172  -1.453  0.00  0.00    +0.001 A 
ATOM     26  C   UNL     1       1.832   0.631  -1.308  0.00  0.00    +0.013 A 
ATOM     27  C   UNL     1       1.977  -0.732  -1.051  0.00  0.00    +0.036 A 
ATOM     28  C   UNL     1       0.845  -1.540  -0.942  0.00  0.00    +0.013 A 
ATOM     29  C   UNL     1      -0.410  -0.987  -1.089  0.00  0.00    +0.001 A 
ENDBRANCH  19  27
ENDBRANCH  18  22
ENDBRANCH  17  18
ENDBRANCH   1  17
BRANCH   5  30
ATOM     30  C   UNL     1       3.980  -6.045   2.894  0.00  0.00    +0.140 C 
BRANCH  30  31
ATOM     31  C   UNL     1       3.573  -7.394   3.491  0.00  0.00    +0.136 C 
ATOM     32  C   UNL     1       2.138  -7.306   4.054  0.00  0.00    +0.035 C 
ATOM     33  C   UNL     1       2.244  -8.146   5.357  0.00  0.00    +0.031 C 
ATOM     34  C   UNL     1       3.694  -7.822   5.798  0.00  0.00    +0.160 C 
ATOM     35  O   UNL     1       4.446  -7.729   4.576  0.00  0.00    -0.375 OA
ENDBRANCH  30  31
ENDBRANCH   5  30
TORSDOF 7
