REMARK  Name = ZINC01098744
REMARK  6 active torsions:
REMARK  status: ('A' for Active; 'I' for Inactive)
REMARK    1  A    between atoms: C_6  and  C_7
REMARK    2  A    between atoms: C_7  and  C_8
REMARK    3  A    between atoms: N_10  and  N_11
REMARK    4  A    between atoms: C_12  and  C_13
REMARK    5  A    between atoms: C_16  and  O_20
REMARK    6  A    between atoms: C_18  and  O_19
REMARK                            x       y       z     vdW  Elec       q    Type
REMARK                         _______ _______ _______ _____ _____    ______ ____
ROOT
ATOM      1  C   UNL     1       6.078  -1.084   1.199  0.00  0.00    +0.237 C 
ATOM      2  O   UNL     1       5.688  -1.283   0.068  0.00  0.00    -0.274 OA
ATOM      3  N   UNL     1       7.382  -1.246   1.500  0.00  0.00    -0.207 N 
ATOM      4  H   UNL     1       7.694  -1.087   2.405  0.00  0.00    +0.177 HD
ENDROOT
BRANCH   3   5
ATOM      5  N   UNL     1       8.286  -1.645   0.507  0.00  0.00    -0.188 NA
ATOM      6  C   UNL     1       9.542  -1.802   0.797  0.00  0.00    +0.142 C 
BRANCH   6   7
ATOM      7  C   UNL     1      10.492  -2.221  -0.247  0.00  0.00    +0.037 A 
ATOM      8  C   UNL     1      11.845  -2.385   0.061  0.00  0.00    +0.032 A 
ATOM      9  C   UNL     1      12.730  -2.783  -0.918  0.00  0.00    +0.060 A 
ATOM     10  C   UNL     1      12.283  -3.010  -2.215  0.00  0.00    +0.134 A 
ATOM     11  C   UNL     1      10.943  -2.845  -2.531  0.00  0.00    +0.092 A 
ATOM     12  C   UNL     1      10.044  -2.452  -1.555  0.00  0.00    +0.129 A 
ATOM     13 BR   UNL     1      14.560  -3.011  -0.498  0.00  0.00    -0.047 Br
BRANCH  12  14
ATOM     14  O   UNL     1       8.731  -2.290  -1.864  0.00  0.00    -0.506 OA
ATOM     15  H   UNL     1       8.503  -1.396  -2.155  0.00  0.00    +0.292 HD
ENDBRANCH  12  14
BRANCH  10  16
ATOM     16  O   UNL     1      13.163  -3.397  -3.176  0.00  0.00    -0.506 OA
ATOM     17  H   UNL     1      13.569  -2.662  -3.655  0.00  0.00    +0.292 HD
ENDBRANCH  10  16
ENDBRANCH   6   7
ENDBRANCH   3   5
BRANCH   1  18
ATOM     18  C   UNL     1       5.106  -0.655   2.267  0.00  0.00    +0.132 C 
BRANCH  18  24
ATOM     19  C   UNL     1       2.886  -1.646   1.677  0.00  0.00    +0.008 A 
ATOM     20  C   UNL     1       1.617  -1.552   1.135  0.00  0.00    +0.050 A 
ATOM     21  C   UNL     1       1.183  -0.356   0.589  0.00  0.00    +0.166 A 
ATOM     22  C   UNL     1       2.029   0.752   0.587  0.00  0.00    +0.166 A 
ATOM     23  C   UNL     1       3.298   0.650   1.131  0.00  0.00    +0.053 A 
ATOM     24  C   UNL     1       3.724  -0.547   1.675  0.00  0.00    -0.035 A 
ATOM     25  O   UNL     1       1.376   1.797  -0.001  0.00  0.00    -0.453 OA
ATOM     26  C   UNL     1      -0.018   1.436   0.010  0.00  0.00    +0.466 C 
ATOM     27  O   UNL     1       0.002  -0.004   0.002  0.00  0.00    -0.453 OA
ENDBRANCH  18  24
ENDBRANCH   1  18
TORSDOF 6
