REMARK  Name = ZINC40399227
REMARK  5 active torsions:
REMARK  status: ('A' for Active; 'I' for Inactive)
REMARK    1  A    between atoms: C_1  and  C_2
REMARK    2  A    between atoms: C_5  and  N_11
REMARK    3  A    between atoms: C_7  and  N_8
REMARK    4  A    between atoms: C_12  and  C_14
REMARK    5  A    between atoms: N_28  and  C_29
REMARK                            x       y       z     vdW  Elec       q    Type
REMARK                         _______ _______ _______ _____ _____    ______ ____
ROOT
ATOM      1  C   UNL     1       0.585  -6.424   1.116  0.00  0.00    +0.122 C 
ATOM      2  C   UNL     1       2.000  -6.633   1.657  0.00  0.00    +0.114 C 
ATOM      3  C   UNL     1       2.969  -6.743   0.510  0.00  0.00    +0.219 C 
ATOM      4  O   UNL     1       4.075  -6.256   0.610  0.00  0.00    -0.275 OA
ATOM      5  N   UNL     1       2.622  -7.375  -0.624  0.00  0.00    -0.270 N 
ATOM      6  C   UNL     1       1.334  -7.848  -0.808  0.00  0.00    +0.138 A 
ATOM      7  C   UNL     1       0.312  -7.420   0.021  0.00  0.00    +0.069 A 
ATOM      8  C   UNL     1      -0.977  -7.928  -0.170  0.00  0.00    +0.258 A 
ATOM      9  O   UNL     1      -1.897  -7.580   0.553  0.00  0.00    -0.267 OA
ATOM     10  N   UNL     1      -1.183  -8.809  -1.172  0.00  0.00    -0.295 N 
ATOM     11  H   UNL     1      -2.066  -9.185  -1.313  0.00  0.00    +0.172 HD
ATOM     12  C   UNL     1      -0.152  -9.171  -1.984  0.00  0.00    +0.202 A 
ATOM     13  N   UNL     1       1.063  -8.699  -1.804  0.00  0.00    -0.200 NA
ATOM     14  N   UNL     1      -0.385 -10.047  -3.013  0.00  0.00    -0.285 N 
ATOM     15  H   UNL     1       3.282  -7.502  -1.323  0.00  0.00    +0.156 HD
ATOM     16  H   UNL     1      -1.290 -10.335  -3.209  0.00  0.00    +0.155 HD
ENDROOT
BRANCH  14  17
ATOM     17  C   UNL     1       0.682 -10.525  -3.779  0.00  0.00    +0.034 A 
ATOM     18  C   UNL     1       1.926 -10.723  -3.193  0.00  0.00    +0.023 A 
ATOM     19  C   UNL     1       2.978 -11.195  -3.953  0.00  0.00    +0.002 A 
ATOM     20  C   UNL     1       2.795 -11.472  -5.295  0.00  0.00    +0.000 A 
ATOM     21  C   UNL     1       1.558 -11.276  -5.882  0.00  0.00    +0.002 A 
ATOM     22  C   UNL     1       0.500 -10.809  -5.126  0.00  0.00    +0.023 A 
ENDBRANCH  14  17
BRANCH   1  24
ATOM     23  N   UNL     1       0.660  -3.965   1.372  0.00  0.00    -0.285 N 
ATOM     24  C   UNL     1       0.459  -5.027   0.566  0.00  0.00    +0.225 C 
ATOM     25  O   UNL     1       0.176  -4.857  -0.601  0.00  0.00    -0.275 OA
ATOM     26  H   UNL     1       0.815  -4.098   2.320  0.00  0.00    +0.155 HD
BRANCH  23  31
ATOM     27  C   UNL     1       0.606   1.282  -0.785  0.00  0.00    +0.046 C 
ATOM     28  C   UNL     1       0.620  -0.112  -0.212  0.00  0.00    -0.020 A 
ATOM     29  C   UNL     1       1.159  -1.154  -0.945  0.00  0.00    +0.007 A 
ATOM     30  C   UNL     1       1.174  -2.432  -0.423  0.00  0.00    +0.024 A 
ATOM     31  C   UNL     1       0.647  -2.671   0.840  0.00  0.00    +0.036 A 
ATOM     32  C   UNL     1       0.106  -1.623   1.573  0.00  0.00    +0.056 A 
ATOM     33  C   UNL     1       0.099  -0.346   1.047  0.00  0.00    +0.131 A 
BRANCH  33  34
ATOM     34  N   UNL     1      -0.472   0.773   1.830  0.00  0.00    +0.057 N 
ATOM     35  O   UNL     1       0.044   1.865   1.788  0.00  0.00    -0.126 OA
ATOM     36  O   UNL     1      -1.455   0.594   2.511  0.00  0.00    -0.126 OA
ENDBRANCH  33  34
ENDBRANCH  23  31
ENDBRANCH   1  24
TORSDOF 4
