REMARK  Name = ZINC00407348
REMARK  7 active torsions:
REMARK  status: ('A' for Active; 'I' for Inactive)
REMARK    1  A    between atoms: C_1  and  C_2
REMARK    2  A    between atoms: C_3  and  C_20
REMARK    3  A    between atoms: C_4  and  C_14
REMARK    4  A    between atoms: C_6  and  C_10
REMARK    5  A    between atoms: C_7  and  C_9
REMARK    6  A    between atoms: C_10  and  O_12
REMARK    7  A    between atoms: O_12  and  C_13
REMARK                            x       y       z     vdW  Elec       q    Type
REMARK                         _______ _______ _______ _____ _____    ______ ____
ROOT
ATOM      1  C   UNL     1       3.647  -0.719  -0.771  0.00  0.00    +0.061 C 
ATOM      2  C   UNL     1       2.393   0.022  -0.381  0.00  0.00    +0.019 C 
ATOM      3  C   UNL     1       2.378   1.363  -0.414  0.00  0.00    +0.058 C 
ATOM      4  C   UNL     1       1.154   2.143  -0.026  0.00  0.00    +0.099 C 
ATOM      5  C   UNL     1      -0.058   1.256  -0.006  0.00  0.00    +0.066 C 
ATOM      6  C   UNL     1       0.053  -0.084   0.012  0.00  0.00    +0.016 C 
ATOM      7  N   UNL     1       1.281  -0.684   0.004  0.00  0.00    -0.320 N 
ATOM      8  C   UNL     1      -1.191  -0.934   0.041  0.00  0.00    +0.061 C 
ATOM      9  H   UNL     1       1.376  -1.738   0.307  0.00  0.00    +0.152 HD
ENDROOT
BRANCH   4  10
ATOM     10  C   UNL     1       1.357   2.736   1.344  0.00  0.00    -0.035 A 
ATOM     11  C   UNL     1       1.557   1.909   2.433  0.00  0.00    +0.004 A 
ATOM     12  C   UNL     1       1.747   2.453   3.689  0.00  0.00    +0.000 A 
ATOM     13  C   UNL     1       1.730   3.825   3.858  0.00  0.00    +0.000 A 
ATOM     14  C   UNL     1       1.526   4.653   2.769  0.00  0.00    +0.000 A 
ATOM     15  C   UNL     1       1.339   4.108   1.513  0.00  0.00    +0.004 A 
ENDBRANCH   4  10
BRANCH   5  16
ATOM     16  C   UNL     1      -1.344   1.843  -0.012  0.00  0.00    +0.337 C 
ATOM     17  O   UNL     1      -2.333   1.141  -0.107  0.00  0.00    -0.245 OA
BRANCH  16  18
ATOM     18  O   UNL     1      -1.475   3.183   0.088  0.00  0.00    -0.465 OA
ATOM     19  C   UNL     1      -2.804   3.708   0.075  0.00  0.00    +0.280 C 
ENDBRANCH  16  18
ENDBRANCH   5  16
BRANCH   3  20
ATOM     20  C   UNL     1       3.554   2.067  -0.828  0.00  0.00    +0.097 C 
ATOM     21  N   UNL     1       4.488   2.625  -1.157  0.00  0.00    -0.191 NA
ENDBRANCH   3  20
TORSDOF 4
