REMARK  Name = ZINC15103821
REMARK  16 active torsions:
REMARK  status: ('A' for Active; 'I' for Inactive)
REMARK    1  A    between atoms: C_1  and  C_2
REMARK    2  A    between atoms: C_2  and  C_3
REMARK    3  A    between atoms: C_2  and  C_4
REMARK    4  A    between atoms: C_4  and  N_5
REMARK    5  A    between atoms: C_6  and  N_36
REMARK    6  A    between atoms: C_7  and  N_14
REMARK    7  A    between atoms: N_14  and  C_15
REMARK    8  A    between atoms: C_15  and  C_16
REMARK    9  A    between atoms: C_16  and  C_17
REMARK   10  A    between atoms: C_16  and  C_18
REMARK   11  A    between atoms: C_19  and  C_21
REMARK   12  A    between atoms: C_21  and  N_78
REMARK   13  A    between atoms: C_22  and  N_78
REMARK   14  A    between atoms: C_23  and  C_24
REMARK   15  A    between atoms: C_23  and  N_78
REMARK   16  A    between atoms: C_29  and  N_30
REMARK                            x       y       z     vdW  Elec       q    Type
REMARK                         _______ _______ _______ _____ _____    ______ ____
ROOT
ATOM      1  N   UNL     1       1.420   1.817  -0.926  0.00  0.00    -0.266 N 
ATOM      2  C   UNL     1       0.220   1.227  -0.750  0.00  0.00    +0.203 C 
ATOM      3  O   UNL     1       0.138   0.017  -0.718  0.00  0.00    -0.277 OA
ENDROOT
BRANCH   1   6
ATOM      4  N   UNL     1       4.112  -0.497   0.021  0.00  0.00    -0.280 N 
ATOM      5  C   UNL     1       2.965   0.258   0.102  0.00  0.00    +0.127 A 
ATOM      6  C   UNL     1       2.591   1.032  -0.978  0.00  0.00    +0.140 A 
ATOM      7  C   UNL     1       3.396   1.022  -2.132  0.00  0.00    +0.277 A 
ATOM      8  O   UNL     1       3.086   1.693  -3.102  0.00  0.00    -0.266 OA
ATOM      9  N   UNL     1       4.513   0.269  -2.158  0.00  0.00    -0.273 N 
ATOM     10  H   UNL     1       5.090   0.267  -2.975  0.00  0.00    +0.173 HD
ATOM     11  C   UNL     1       4.861  -0.480  -1.096  0.00  0.00    +0.331 A 
ATOM     12  O   UNL     1       5.872  -1.154  -1.148  0.00  0.00    -0.246 OA
BRANCH   5  13
ATOM     13  N   UNL     1       2.201   0.241   1.243  0.00  0.00    -0.343 N 
ATOM     14  H   UNL     1       1.390   0.772   1.292  0.00  0.00    +0.144 HD
ATOM     15  H   UNL     1       2.471  -0.301   2.001  0.00  0.00    +0.144 HD
ENDBRANCH   5  13
BRANCH   4  16
ATOM     16  C   UNL     1       4.521  -1.324   1.159  0.00  0.00    +0.131 C 
BRANCH  16  18
ATOM     17  C   UNL     1       4.473  -3.415  -0.208  0.00  0.00    +0.009 C 
ATOM     18  C   UNL     1       3.900  -2.716   1.026  0.00  0.00    +0.003 C 
ATOM     19  C   UNL     1       4.223  -3.540   2.275  0.00  0.00    +0.009 C 
ENDBRANCH  16  18
ENDBRANCH   4  16
ENDBRANCH   1   6
BRANCH   1  20
ATOM     20  C   UNL     1       1.507   3.273  -1.063  0.00  0.00    +0.117 C 
BRANCH  20  21
ATOM     21  C   UNL     1       1.563   3.914   0.325  0.00  0.00    +0.001 C 
ATOM     22  C   UNL     1       2.863   3.507   1.022  0.00  0.00    +0.009 C 
ATOM     23  C   UNL     1       1.515   5.437   0.186  0.00  0.00    +0.009 C 
ENDBRANCH  20  21
ENDBRANCH   1  20
BRANCH   2  24
ATOM     24  C   UNL     1      -1.020   2.070  -0.600  0.00  0.00    +0.019 C 
BRANCH  24  26
ATOM     25  C   UNL     1      -2.113   0.458   0.839  0.00  0.00    -0.095 C 
ATOM     26  N   UNL     1      -2.189   1.177  -0.450  0.00  0.00    +0.386 N 
ATOM     27  H   UNL     1      -2.186   0.492  -1.215  0.00  0.00    -0.081 HD
BRANCH  26  28
ATOM     28  C   UNL     1      -3.438   1.965  -0.516  0.00  0.00    -0.041 C 
BRANCH  28  29
ATOM     29  C   UNL     1      -4.594   1.022  -0.728  0.00  0.00    -0.043 A 
ATOM     30  C   UNL     1      -5.469   0.758   0.307  0.00  0.00    +0.003 A 
ATOM     31  C   UNL     1      -6.533  -0.104   0.113  0.00  0.00    +0.000 A 
ATOM     32  C   UNL     1      -6.719  -0.712  -1.115  0.00  0.00    +0.002 A 
ATOM     33  C   UNL     1      -5.845  -0.456  -2.153  0.00  0.00    +0.023 A 
ATOM     34  C   UNL     1      -4.777   0.413  -1.962  0.00  0.00    +0.031 A 
BRANCH  34  35
ATOM     35  N   UNL     1      -3.891   0.673  -3.010  0.00  0.00    -0.330 N 
ATOM     36  C   UNL     1      -4.567   1.372  -4.110  0.00  0.00    +0.105 C 
ATOM     37  C   UNL     1      -3.539   1.769  -5.172  0.00  0.00    +0.019 C 
ATOM     38  C   UNL     1      -2.841   0.510  -5.695  0.00  0.00    +0.003 C 
ATOM     39  C   UNL     1      -2.186  -0.225  -4.522  0.00  0.00    +0.019 C 
ATOM     40  C   UNL     1      -3.253  -0.564  -3.479  0.00  0.00    +0.105 C 
ENDBRANCH  34  35
ENDBRANCH  28  29
ENDBRANCH  26  28
ENDBRANCH  24  26
ENDBRANCH   2  24
TORSDOF 11
