REMARK  Name = ZINC20320252
REMARK  8 active torsions:
REMARK  status: ('A' for Active; 'I' for Inactive)
REMARK    1  A    between atoms: C_1  and  C_2
REMARK    2  A    between atoms: C_2  and  C_3
REMARK    3  A    between atoms: N_9  and  C_10
REMARK    4  A    between atoms: C_10  and  C_11
REMARK    5  A    between atoms: C_14  and  C_16
REMARK    6  A    between atoms: C_16  and  N_17
REMARK    7  A    between atoms: N_21  and  C_28
REMARK    8  A    between atoms: N_24  and  C_27
REMARK                            x       y       z     vdW  Elec       q    Type
REMARK                         _______ _______ _______ _____ _____    ______ ____
ROOT
ATOM      1  C   UNL     1       0.046   2.224   3.068  0.00  0.00    -0.000 C 
ENDROOT
BRANCH   1   2
ATOM      2  N   UNL     1      -0.401   3.169   2.035  0.00  0.00    +0.397 N 
ATOM      3  C   UNL     1       0.080   4.529   2.318  0.00  0.00    -0.031 C 
ATOM      4  C   UNL     1      -0.184   5.415   1.129  0.00  0.00    +0.039 A 
ATOM      5  C   UNL     1      -0.502   4.901  -0.091  0.00  0.00    +0.107 A 
ATOM      6  N   UNL     1      -0.716   5.763  -1.146  0.00  0.00    -0.285 N 
ATOM      7  C   UNL     1      -0.622   7.092  -0.973  0.00  0.00    +0.333 A 
ATOM      8  O   UNL     1      -0.816   7.834  -1.917  0.00  0.00    -0.246 OA
ATOM      9  N   UNL     1      -0.316   7.615   0.228  0.00  0.00    -0.264 N 
ATOM     10  C   UNL     1      -0.093   6.809   1.284  0.00  0.00    +0.259 A 
ATOM     11  O   UNL     1       0.187   7.287   2.370  0.00  0.00    -0.267 OA
ATOM     12  C   UNL     1      -0.226   9.068   0.389  0.00  0.00    +0.157 C 
ATOM     13  C   UNL     1      -1.048   5.224  -2.467  0.00  0.00    +0.155 C 
ATOM     14  N   UNL     1      -0.621   3.556  -0.314  0.00  0.00    -0.347 N 
ATOM     15  C   UNL     1       0.062   2.750   0.701  0.00  0.00    +0.028 C 
ATOM     16  H   UNL     1      -1.153   3.063  -1.141  0.00  0.00    +0.145 HD
ATOM     17  H   UNL     1      -1.501   3.172   2.049  0.00  0.00    -0.078 HD
ENDBRANCH   1   2
BRANCH   1  21
ATOM     18  C   UNL     1       3.668   1.830   2.838  0.00  0.00    +0.089 A 
ATOM     19  C   UNL     1       3.618   2.798   3.770  0.00  0.00    +0.043 A 
ATOM     20  C   UNL     1       2.251   3.088   3.985  0.00  0.00    +0.043 A 
ATOM     21  C   UNL     1       1.548   2.274   3.178  0.00  0.00    +0.089 A 
ATOM     22  O   UNL     1       2.412   1.516   2.483  0.00  0.00    -0.468 OA
BRANCH  18  23
ATOM     23  C   UNL     1       4.923   1.202   2.286  0.00  0.00    -0.003 C 
BRANCH  23  29
ATOM     24  C   UNL     1       6.447  -0.661   2.534  0.00  0.00    -0.068 C 
ATOM     25  C   UNL     1       6.889  -1.777   3.484  0.00  0.00    -0.015 C 
ATOM     26  C   UNL     1       5.729  -2.755   3.689  0.00  0.00    -0.003 C 
ATOM     27  C   UNL     1       4.519  -1.993   4.237  0.00  0.00    -0.019 C 
ATOM     28  C   UNL     1       4.146  -0.871   3.265  0.00  0.00    -0.078 C 
ATOM     29  N   UNL     1       5.288   0.038   3.103  0.00  0.00    +0.386 N 
ATOM     30  H   UNL     1       5.572   0.400   4.102  0.00  0.00    -0.081 HD
BRANCH  24  32
ATOM     31  C   UNL     1       8.758  -0.367   1.630  0.00  0.00    +0.002 C 
ATOM     32  C   UNL     1       7.597   0.330   2.343  0.00  0.00    -0.019 C 
ENDBRANCH  24  32
ENDBRANCH  23  29
ENDBRANCH  18  23
ENDBRANCH   1  21
TORSDOF 5
