REMARK  Name = ZINC63958697
REMARK  11 active torsions:
REMARK  status: ('A' for Active; 'I' for Inactive)
REMARK    1  A    between atoms: C_1  and  C_2
REMARK    2  A    between atoms: C_2  and  C_19
REMARK    3  A    between atoms: C_3  and  C_4
REMARK    4  A    between atoms: N_6  and  C_7
REMARK    5  A    between atoms: C_7  and  C_8
REMARK    6  A    between atoms: C_7  and  C_9
REMARK    7  A    between atoms: C_7  and  C_10
REMARK    8  A    between atoms: C_12  and  C_15
REMARK    9  A    between atoms: C_15  and  C_16
REMARK   10  A    between atoms: C_15  and  C_17
REMARK   11  A    between atoms: C_15  and  C_18
REMARK                            x       y       z     vdW  Elec       q    Type
REMARK                         _______ _______ _______ _____ _____    ______ ____
ROOT
ATOM      1  C   UNL     1       0.042  -2.148   1.158  0.00  0.00    +0.238 C 
ATOM      2  O   UNL     1       0.040  -2.751   0.101  0.00  0.00    -0.271 OA
ATOM      3  N   UNL     1       0.062  -2.828   2.322  0.00  0.00    -0.300 N 
ATOM      4  H   UNL     1       0.064  -2.348   3.164  0.00  0.00    +0.150 HD
ENDROOT
BRANCH   1   7
ATOM      5  C   UNL     1      -0.018   1.503   0.010  0.00  0.00    +0.044 C 
ATOM      6  C   UNL     1       0.002  -0.004   0.002  0.00  0.00    -0.038 C 
ATOM      7  C   UNL     1       0.022  -0.685   1.166  0.00  0.00    +0.071 C 
BRANCH   6   8
ATOM      8  C   UNL     1      -0.000  -0.733  -1.276  0.00  0.00    -0.022 A 
ATOM      9  C   UNL     1       1.101  -1.514  -1.641  0.00  0.00    +0.011 A 
ATOM     10  C   UNL     1       1.093  -2.195  -2.839  0.00  0.00    +0.039 A 
ATOM     11  C   UNL     1      -0.004  -2.105  -3.683  0.00  0.00    +0.123 A 
ATOM     12  C   UNL     1      -1.099  -1.332  -3.327  0.00  0.00    +0.039 A 
ATOM     13  C   UNL     1      -1.106  -0.651  -2.129  0.00  0.00    +0.011 A 
ATOM     14  F   UNL     1      -0.006  -2.774  -4.857  0.00  0.00    -0.205 F 
ENDBRANCH   6   8
ENDBRANCH   1   7
BRANCH   3  15
ATOM     15  C   UNL     1       0.082  -4.293   2.314  0.00  0.00    +0.092 C 
ATOM     16  C   UNL     1      -1.167  -4.816   1.602  0.00  0.00    +0.040 C 
ATOM     17  C   UNL     1       1.331  -4.782   1.578  0.00  0.00    +0.040 C 
BRANCH  15  18
ATOM     18  C   UNL     1       0.103  -4.803   3.732  0.00  0.00    +0.194 A 
ATOM     19  N   UNL     1       0.129  -6.090   4.095  0.00  0.00    -0.193 NA
ATOM     20  C   UNL     1       0.141  -6.188   5.396  0.00  0.00    +0.233 A 
ATOM     21  O   UNL     1       0.122  -4.952   5.909  0.00  0.00    -0.337 OA
ATOM     22  N   UNL     1       0.103  -4.062   4.803  0.00  0.00    -0.059 NA
BRANCH  20  23
ATOM     23  C   UNL     1       0.171  -7.472   6.184  0.00  0.00    +0.041 C 
ATOM     24  C   UNL     1       1.432  -8.261   5.827  0.00  0.00    +0.020 C 
ATOM     25  C   UNL     1       0.176  -7.151   7.680  0.00  0.00    +0.020 C 
ATOM     26  C   UNL     1      -1.066  -8.306   5.846  0.00  0.00    +0.020 C 
ENDBRANCH  20  23
ENDBRANCH  15  18
ENDBRANCH   3  15
TORSDOF 5
