REMARK  Name = ZINC23388067
REMARK  5 active torsions:
REMARK  status: ('A' for Active; 'I' for Inactive)
REMARK    1  A    between atoms: C_1  and  C_2
REMARK    2  A    between atoms: C_9  and  C_11
REMARK    3  A    between atoms: N_13  and  C_14
REMARK    4  A    between atoms: C_14  and  C_15
REMARK    5  A    between atoms: C_14  and  C_18
REMARK                            x       y       z     vdW  Elec       q    Type
REMARK                         _______ _______ _______ _____ _____    ______ ____
ROOT
ATOM      1  C   UNL     1      -2.124   1.081  -0.073  0.00  0.00    +0.252 C 
ATOM      2  O   UNL     1      -2.650  -0.009   0.049  0.00  0.00    -0.270 OA
ATOM      3  N   UNL     1      -0.781   1.177  -0.143  0.00  0.00    -0.292 N 
ATOM      4  H   UNL     1      -0.305   2.163  -0.253  0.00  0.00    +0.150 HD
ENDROOT
BRANCH   1  12
ATOM      5  C   UNL     1      -8.143   5.659  -0.509  0.00  0.00    +0.008 C 
ATOM      6  C   UNL     1      -6.664   5.320  -0.708  0.00  0.00    -0.009 C 
ATOM      7  C   UNL     1      -5.802   6.366   0.004  0.00  0.00    +0.009 C 
ATOM      8  C   UNL     1      -4.340   6.175  -0.423  0.00  0.00    +0.043 C 
ATOM      9  C   UNL     1      -4.001   4.721  -0.311  0.00  0.00    -0.006 A 
ATOM     10  C   UNL     1      -4.875   3.679  -0.179  0.00  0.00    -0.036 A 
ATOM     11  C   UNL     1      -4.326   2.411  -0.091  0.00  0.00    +0.024 A 
ATOM     12  C   UNL     1      -2.949   2.291  -0.143  0.00  0.00    +0.074 A 
ATOM     13  S   UNL     1      -2.440   3.993  -0.311  0.00  0.00    -0.088 S 
ATOM     14  C   UNL     1      -6.380   3.932  -0.134  0.00  0.00    +0.039 C 
ENDBRANCH   1  12
BRANCH   3  15
ATOM     15  C   UNL     1       0.044  -0.031  -0.072  0.00  0.00    +0.245 C 
BRANCH  15  16
ATOM     16  C   UNL     1       1.359   0.218  -0.765  0.00  0.00    +0.240 C 
ATOM     17  O   UNL     1       1.799   1.345  -0.845  0.00  0.00    -0.273 OA
ATOM     18  N   UNL     1       2.048  -0.813  -1.294  0.00  0.00    -0.327 N 
ATOM     19  H   UNL     1       3.008  -0.631  -1.800  0.00  0.00    +0.145 HD
ATOM     20  H   UNL     1       1.649  -1.836  -1.222  0.00  0.00    +0.145 HD
ENDBRANCH  15  16
BRANCH  15  21
ATOM     21  C   UNL     1       0.295  -0.385   1.371  0.00  0.00    +0.240 C 
ATOM     22  O   UNL     1       0.232   0.474   2.225  0.00  0.00    -0.273 OA
ATOM     23  N   UNL     1       0.590  -1.655   1.712  0.00  0.00    -0.327 N 
ATOM     24  H   UNL     1       0.773  -1.913   2.766  0.00  0.00    +0.145 HD
ATOM     25  H   UNL     1       0.647  -2.434   0.937  0.00  0.00    +0.145 HD
ENDBRANCH  15  21
ENDBRANCH   3  15
TORSDOF 4
