REMARK  Name = ZINC39667810
REMARK  6 active torsions:
REMARK  status: ('A' for Active; 'I' for Inactive)
REMARK    1  A    between atoms: C_1  and  C_2
REMARK    2  A    between atoms: C_2  and  C_4
REMARK    3  A    between atoms: C_2  and  S_16
REMARK    4  A    between atoms: S_16  and  C_17
REMARK    5  A    between atoms: C_22  and  C_36
REMARK    6  A    between atoms: N_28  and  C_29
REMARK                            x       y       z     vdW  Elec       q    Type
REMARK                         _______ _______ _______ _____ _____    ______ ____
ROOT
ATOM      1  C   UNL     1      -2.443  -0.218   1.762  0.00  0.00    +0.227 C 
ATOM      2  N   UNL     1      -1.493  -0.706   2.769  0.00  0.00    -0.316 N 
ATOM      3  C   UNL     1      -0.327   0.017   2.996  0.00  0.00    +0.042 A 
ATOM      4  C   UNL     1       0.835  -0.597   3.430  0.00  0.00    +0.038 A 
ATOM      5  C   UNL     1       1.977   0.172   3.655  0.00  0.00    +0.065 A 
ATOM      6  C   UNL     1       1.947   1.554   3.444  0.00  0.00    +0.016 A 
ATOM      7  C   UNL     1       0.793   2.167   3.008  0.00  0.00    +0.016 A 
ATOM      8  C   UNL     1      -0.350   1.405   2.776  0.00  0.00    +0.058 A 
ATOM      9  C   UNL     1      -1.599   2.020   2.285  0.00  0.00    +0.255 C 
ATOM     10  O   UNL     1      -1.710   3.230   2.240  0.00  0.00    -0.269 OA
ATOM     11  N   UNL     1      -2.611   1.230   1.887  0.00  0.00    -0.236 N 
ATOM     12  H   UNL     1      -1.676  -1.518   3.267  0.00  0.00    +0.149 HD
ENDROOT
BRANCH  11  13
ATOM     13  C   UNL     1      -3.850   1.807   1.585  0.00  0.00    +0.074 A 
ATOM     14  C   UNL     1      -4.806   1.960   2.579  0.00  0.00    +0.026 A 
ATOM     15  C   UNL     1      -6.028   2.531   2.279  0.00  0.00    +0.002 A 
ATOM     16  C   UNL     1      -6.300   2.949   0.989  0.00  0.00    +0.003 A 
ATOM     17  C   UNL     1      -5.351   2.797  -0.005  0.00  0.00    +0.040 A 
ATOM     18  C   UNL     1      -4.123   2.233   0.290  0.00  0.00    +0.145 A 
ATOM     19  F   UNL     1      -3.193   2.090  -0.680  0.00  0.00    -0.204 F 
ENDBRANCH  11  13
BRANCH   5  20
ATOM     20  C   UNL     1       3.222  -0.476   4.118  0.00  0.00    +0.387 C 
ATOM     21  O   UNL     1       3.250  -1.685   4.303  0.00  0.00    -0.241 OA
ATOM     22  O   UNL     1       4.224   0.196   4.315  0.00  0.00    -0.241 OA
ENDBRANCH   5  20
BRANCH   1  23
ATOM     23  S   UNL     1      -1.816  -0.610   0.105  0.00  0.00    -0.108 S 
BRANCH  23  25
ATOM     24  C   UNL     1      -1.223  -3.169   0.867  0.00  0.00    +0.027 C 
ATOM     25  C   UNL     1      -2.137  -2.386  -0.077  0.00  0.00    +0.112 C 
BRANCH  25  26
ATOM     26  C   UNL     1      -1.866  -2.801  -1.500  0.00  0.00    +0.123 A 
ATOM     27  N   UNL     1      -1.955  -4.120  -1.814  0.00  0.00    -0.309 N 
ATOM     28  H   UNL     1      -2.190  -4.763  -1.127  0.00  0.00    +0.170 HD
ATOM     29  C   UNL     1      -1.721  -4.545  -3.078  0.00  0.00    +0.259 A 
ATOM     30  O   UNL     1      -1.799  -5.723  -3.374  0.00  0.00    -0.267 OA
ATOM     31  C   UNL     1      -1.370  -3.527  -4.080  0.00  0.00    +0.065 A 
ATOM     32  C   UNL     1      -1.110  -3.859  -5.408  0.00  0.00    +0.015 A 
ATOM     33  C   UNL     1      -0.785  -2.866  -6.305  0.00  0.00    +0.001 A 
ATOM     34  C   UNL     1      -0.715  -1.540  -5.896  0.00  0.00    +0.002 A 
ATOM     35  C   UNL     1      -0.968  -1.191  -4.588  0.00  0.00    +0.028 A 
ATOM     36  C   UNL     1      -1.300  -2.180  -3.660  0.00  0.00    +0.078 A 
ATOM     37  N   UNL     1      -1.563  -1.881  -2.364  0.00  0.00    -0.233 NA
ENDBRANCH  25  26
ENDBRANCH  23  25
ENDBRANCH   1  23
TORSDOF 5
