REMARK  Name = ZINC17070553
REMARK  4 active torsions:
REMARK  status: ('A' for Active; 'I' for Inactive)
REMARK    1  A    between atoms: C_1  and  C_2
REMARK    2  A    between atoms: C_9  and  C_11
REMARK    3  A    between atoms: N_13  and  N_14
REMARK    4  A    between atoms: C_15  and  C_16
REMARK                            x       y       z     vdW  Elec       q    Type
REMARK                         _______ _______ _______ _____ _____    ______ ____
ROOT
ATOM      1  C   UNL     1      -2.432   4.201   0.573  0.00  0.00    +0.236 C 
ATOM      2  O   UNL     1      -3.442   3.565   0.359  0.00  0.00    -0.274 OA
ATOM      3  N   UNL     1      -1.327   3.577   1.029  0.00  0.00    -0.207 N 
ATOM      4  H   UNL     1      -0.519   4.085   1.201  0.00  0.00    +0.177 HD
ENDROOT
BRANCH   1  12
ATOM      5  C   UNL     1      -4.932   5.429  -0.190  0.00  0.00    +0.012 C 
ATOM      6  C   UNL     1      -3.722   6.355  -0.064  0.00  0.00    -0.017 C 
ATOM      7  C   UNL     1      -4.043   7.752   0.447  0.00  0.00    +0.008 C 
ATOM      8  C   UNL     1      -2.873   8.694   0.236  0.00  0.00    +0.001 C 
ATOM      9  C   UNL     1      -2.505   8.673  -1.251  0.00  0.00    +0.000 C 
ATOM     10  C   UNL     1      -1.782   7.361  -1.556  0.00  0.00    +0.005 C 
ATOM     11  C   UNL     1      -2.634   6.175  -1.110  0.00  0.00    +0.008 C 
ATOM     12  C   UNL     1      -2.410   5.688   0.330  0.00  0.00    +0.086 C 
ENDBRANCH   1  12
BRANCH   3  13
ATOM     13  N   UNL     1      -1.347   2.194   1.256  0.00  0.00    -0.188 NA
ATOM     14  C   UNL     1      -0.284   1.593   1.695  0.00  0.00    +0.139 C 
BRANCH  14  15
ATOM     15  C   UNL     1      -0.304   0.139   1.933  0.00  0.00    +0.017 A 
ATOM     16  C   UNL     1       0.843  -0.512   2.395  0.00  0.00    +0.060 A 
ATOM     17  C   UNL     1       0.818  -1.875   2.621  0.00  0.00    +0.167 A 
ATOM     18  C   UNL     1      -0.348  -2.601   2.379  0.00  0.00    +0.168 A 
ATOM     19  C   UNL     1      -1.485  -1.956   1.916  0.00  0.00    +0.070 A 
ATOM     20  C   UNL     1      -1.470  -0.594   1.692  0.00  0.00    +0.053 A 
ATOM     21 CL   UNL     1      -2.896   0.207   1.113  0.00  0.00    -0.083 Cl
ATOM     22  O   UNL     1      -0.112  -3.913   2.672  0.00  0.00    -0.453 OA
ATOM     23  C   UNL     1       1.078  -3.918   3.483  0.00  0.00    +0.466 C 
ATOM     24  O   UNL     1       1.782  -2.734   3.066  0.00  0.00    -0.453 OA
ENDBRANCH  14  15
ENDBRANCH   3  13
TORSDOF 3
