REMARK  Name = ZINC39430291
REMARK  7 active torsions:
REMARK  status: ('A' for Active; 'I' for Inactive)
REMARK    1  A    between atoms: C_1  and  C_2
REMARK    2  A    between atoms: C_3  and  C_28
REMARK    3  A    between atoms: C_7  and  C_8
REMARK    4  A    between atoms: C_8  and  C_9
REMARK    5  A    between atoms: C_9  and  C_10
REMARK    6  A    between atoms: C_15  and  N_18
REMARK    7  A    between atoms: C_20  and  C_23
REMARK                            x       y       z     vdW  Elec       q    Type
REMARK                         _______ _______ _______ _____ _____    ______ ____
ROOT
ATOM      1  C   UNL     1      -1.399   0.355   4.428  0.00  0.00    +0.216 C 
ATOM      2  O   UNL     1      -0.349   0.465   5.024  0.00  0.00    -0.276 OA
ATOM      3  N   UNL     1      -2.560   0.639   5.050  0.00  0.00    -0.301 N 
ATOM      4  C   UNL     1      -3.841   0.504   4.343  0.00  0.00    +0.109 C 
ATOM      5  C   UNL     1      -4.609   1.825   4.458  0.00  0.00    +0.039 C 
ATOM      6  C   UNL     1      -4.742   2.206   5.934  0.00  0.00    +0.081 C 
ATOM      7  C   UNL     1      -3.351   2.402   6.540  0.00  0.00    +0.039 C 
ATOM      8  C   UNL     1      -2.570   1.082   6.451  0.00  0.00    +0.109 C 
ENDROOT
BRANCH   6   9
ATOM      9  N   UNL     1      -5.507   3.456   6.050  0.00  0.00    -0.205 NA
ATOM     10  C   UNL     1      -6.874   3.292   5.514  0.00  0.00    +0.160 C 
ATOM     11  C   UNL     1      -6.960   4.310   4.399  0.00  0.00    +0.057 C 
ATOM     12  N   UNL     1      -5.838   4.915   4.345  0.00  0.00    -0.179 NA
ATOM     13  N   UNL     1      -4.939   4.449   5.301  0.00  0.00    -0.199 N 
ATOM     14  H   UNL     1      -4.035   4.782   5.419  0.00  0.00    +0.189 HD
BRANCH  11  15
ATOM     15  C   UNL     1      -8.153   4.564   3.513  0.00  0.00    +0.036 C 
ATOM     16  C   UNL     1      -8.399   3.348   2.596  0.00  0.00    +0.009 C 
ATOM     17  C   UNL     1      -8.856   3.971   1.254  0.00  0.00    +0.001 C 
ATOM     18  C   UNL     1      -7.967   5.235   1.143  0.00  0.00    +0.001 C 
ATOM     19  C   UNL     1      -7.879   5.764   2.590  0.00  0.00    +0.009 C 
ENDBRANCH  11  15
ENDBRANCH   6   9
BRANCH   1  20
ATOM     20  C   UNL     1      -1.406  -0.099   2.990  0.00  0.00    +0.102 C 
BRANCH  20  21
ATOM     21  C   UNL     1       0.030  -0.352   2.529  0.00  0.00    +0.064 C 
BRANCH  21  28
ATOM     22  C   UNL     1      -0.018   1.503   0.010  0.00  0.00    +0.047 C 
ATOM     23  C   UNL     1       0.002  -0.004   0.002  0.00  0.00    -0.007 A 
ATOM     24  C   UNL     1       0.009  -0.821  -1.133  0.00  0.00    +0.063 A 
ATOM     25  N   UNL     1       0.028  -2.068  -0.740  0.00  0.00    -0.179 NA
ATOM     26  N   UNL     1       0.034  -2.085   0.661  0.00  0.00    -0.281 N 
ATOM     27  H   UNL     1       0.047  -2.876   1.222  0.00  0.00    +0.189 HD
ATOM     28  C   UNL     1       0.023  -0.806   1.092  0.00  0.00    +0.040 A 
ATOM     29  C   UNL     1      -0.004  -0.346  -2.564  0.00  0.00    +0.068 C 
ENDBRANCH  21  28
ENDBRANCH  20  21
ENDBRANCH   1  20
TORSDOF 5
