REMARK  Name = ZINC51147699
REMARK  6 active torsions:
REMARK  status: ('A' for Active; 'I' for Inactive)
REMARK    1  A    between atoms: C_1  and  C_2
REMARK    2  A    between atoms: C_3  and  C_10
REMARK    3  A    between atoms: C_4  and  N_8
REMARK    4  A    between atoms: N_5  and  C_7
REMARK    5  A    between atoms: N_8  and  N_9
REMARK    6  A    between atoms: C_10  and  N_11
REMARK                            x       y       z     vdW  Elec       q    Type
REMARK                         _______ _______ _______ _____ _____    ______ ____
ROOT
ATOM      1  C   UNL     1      -0.018   1.503   0.010  0.00  0.00    +0.068 C 
ATOM      2  C   UNL     1       0.002  -0.004   0.002  0.00  0.00    +0.067 A 
ATOM      3  C   UNL     1       0.008  -0.816  -1.136  0.00  0.00    +0.033 A 
ATOM      4  C   UNL     1       0.027  -2.113  -0.721  0.00  0.00    +0.135 A 
ATOM      5  N   UNL     1       0.034  -2.110   0.631  0.00  0.00    -0.252 N 
ATOM      6  N   UNL     1       0.023  -0.776   1.058  0.00  0.00    -0.175 NA
ATOM      7  C   UNL     1       0.053  -3.292   1.496  0.00  0.00    +0.174 C 
ENDROOT
BRANCH   4   8
ATOM      8  N   UNL     1       0.038  -3.238  -1.541  0.00  0.00    -0.267 N 
ATOM      9  H   UNL     1       0.250  -3.150  -2.483  0.00  0.00    +0.167 HD
BRANCH   8  10
ATOM     10  N   UNL     1      -0.249  -4.467  -1.018  0.00  0.00    -0.255 NA
ATOM     11  H   UNL     1      -1.150  -4.466  -0.565  0.00  0.00    +0.140 HD
ATOM     12  H   UNL     1      -0.202  -5.182  -1.728  0.00  0.00    +0.140 HD
ENDBRANCH   8  10
ENDBRANCH   4   8
BRANCH   3  13
ATOM     13  C   UNL     1      -0.005  -0.341  -2.566  0.00  0.00    +0.148 C 
BRANCH  13  14
ATOM     14  N   UNL     1       1.372  -0.169  -3.035  0.00  0.00    -0.297 N 
ATOM     15  C   UNL     1       2.047   1.127  -2.862  0.00  0.00    +0.108 C 
ATOM     16  C   UNL     1       3.110   0.984  -1.771  0.00  0.00    +0.019 C 
ATOM     17  C   UNL     1       4.419   0.482  -2.354  0.00  0.00    +0.002 C 
ATOM     18  C   UNL     1       4.351  -0.940  -2.880  0.00  0.00    +0.009 C 
ATOM     19  C   UNL     1       3.431  -1.023  -4.101  0.00  0.00    +0.096 C 
ATOM     20  C   UNL     1       2.007  -1.189  -3.613  0.00  0.00    +0.216 C 
ATOM     21  O   UNL     1       1.442  -2.253  -3.752  0.00  0.00    -0.276 OA
ENDBRANCH  13  14
ENDBRANCH   3  13
TORSDOF 4
