REMARK  Name = ZINC03544736
REMARK  7 active torsions:
REMARK  status: ('A' for Active; 'I' for Inactive)
REMARK    1  A    between atoms: C_1  and  C_2
REMARK    2  A    between atoms: C_6  and  C_9
REMARK    3  A    between atoms: C_7  and  O_8
REMARK    4  A    between atoms: C_9  and  O_11
REMARK    5  A    between atoms: O_11  and  C_12
REMARK    6  A    between atoms: C_12  and  C_14
REMARK    7  A    between atoms: C_12  and  C_15
REMARK                            x       y       z     vdW  Elec       q    Type
REMARK                         _______ _______ _______ _____ _____    ______ ____
ROOT
ATOM      1  C   UNL     1      -0.575   4.234   0.146  0.00  0.00    +0.259 C 
ATOM      2  C   UNL     1       0.228   4.270  -1.156  0.00  0.00    +0.062 C 
ENDROOT
BRANCH   1   3
ATOM      3  C   UNL     1      -1.656   3.190   0.040  0.00  0.00    +0.260 C 
ATOM      4  O   UNL     1      -2.814   3.527  -0.089  0.00  0.00    -0.271 OA
ATOM      5  N   UNL     1      -1.337   1.881   0.089  0.00  0.00    -0.268 N 
ATOM      6  C   UNL     1       0.028   1.351   0.147  0.00  0.00    +0.118 C 
ATOM      7  C   UNL     1      -0.135  -0.177   0.188  0.00  0.00    +0.056 C 
ATOM      8  C   UNL     1      -1.629  -0.402   0.153  0.00  0.00    -0.024 A 
ATOM      9  C   UNL     1      -2.260   0.831   0.100  0.00  0.00    +0.040 A 
ATOM     10  C   UNL     1      -3.655   0.878   0.060  0.00  0.00    +0.024 A 
ATOM     11  C   UNL     1      -4.390  -0.288   0.074  0.00  0.00    +0.002 A 
ATOM     12  C   UNL     1      -3.752  -1.514   0.128  0.00  0.00    +0.000 A 
ATOM     13  C   UNL     1      -2.370  -1.568   0.167  0.00  0.00    +0.005 A 
ENDBRANCH   1   3
BRANCH   1  14
ATOM     14  O   UNL     1      -1.178   5.534   0.379  0.00  0.00    -0.449 OA
BRANCH  14  15
ATOM     15  C   UNL     1      -0.457   6.425   1.088  0.00  0.00    +0.343 C 
ATOM     16  O   UNL     1       0.645   6.123   1.500  0.00  0.00    -0.245 OA
BRANCH  15  22
ATOM     17  C   UNL     1       0.011  10.956   3.147  0.00  0.00    +0.047 C 
ATOM     18  C   UNL     1      -0.786   9.952   2.354  0.00  0.00    -0.008 A 
ATOM     19  C   UNL     1      -2.040  10.286   1.881  0.00  0.00    +0.007 A 
ATOM     20  C   UNL     1      -2.781   9.370   1.152  0.00  0.00    +0.001 A 
ATOM     21  C   UNL     1      -2.273   8.116   0.891  0.00  0.00    +0.018 A 
ATOM     22  C   UNL     1      -1.006   7.764   1.363  0.00  0.00    +0.101 A 
ATOM     23  C   UNL     1      -0.262   8.693   2.106  0.00  0.00    +0.134 A 
BRANCH  23  24
ATOM     24  O   UNL     1       0.968   8.362   2.574  0.00  0.00    -0.506 OA
ATOM     25  H   UNL     1       1.689   8.569   1.964  0.00  0.00    +0.292 HD
ENDBRANCH  23  24
ENDBRANCH  15  22
ENDBRANCH  14  15
ENDBRANCH   1  14
TORSDOF 5
