REMARK  Name = ZINC49713919
REMARK  5 active torsions:
REMARK  status: ('A' for Active; 'I' for Inactive)
REMARK    1  A    between atoms: C_1  and  C_2
REMARK    2  A    between atoms: C_4  and  C_15
REMARK    3  A    between atoms: C_5  and  C_14
REMARK    4  A    between atoms: N_6  and  C_7
REMARK    5  A    between atoms: C_25  and  C_27
REMARK                            x       y       z     vdW  Elec       q    Type
REMARK                         _______ _______ _______ _____ _____    ______ ____
ROOT
ATOM      1  C   UNL     1       0.014  -3.317  -1.428  0.00  0.00    +0.026 C 
ATOM      2  C   UNL     1       0.525  -3.284  -2.709  0.00  0.00    +0.079 C 
ATOM      3  C   UNL     1       1.180  -2.066  -3.261  0.00  0.00    +0.132 C 
ATOM      4  N   UNL     1       1.873  -1.230  -2.532  0.00  0.00    -0.385 N 
ATOM      5  N   UNL     1       0.980  -1.902  -4.648  0.00  0.00    -0.153 N 
ATOM      6  C   UNL     1       0.686  -3.029  -5.386  0.00  0.00    +0.181 C 
ATOM      7  N   UNL     1       0.471  -4.240  -4.940  0.00  0.00    -0.152 NA
ATOM      8  C   UNL     1       0.456  -4.461  -3.608  0.00  0.00    +0.273 C 
ATOM      9  O   UNL     1       0.385  -5.593  -3.156  0.00  0.00    -0.268 OA
ATOM     10  S   UNL     1       0.658  -2.397  -7.043  0.00  0.00    -0.030 S 
ATOM     11  C   UNL     1       0.935  -0.676  -6.645  0.00  0.00    +0.165 C 
ATOM     12  N   UNL     1       1.063  -0.711  -5.338  0.00  0.00    -0.161 NA
ATOM     13  H   UNL     1       2.052  -1.433  -1.600  0.00  0.00    +0.157 HD
ATOM     14  H   UNL     1       2.208  -0.408  -2.923  0.00  0.00    +0.157 HD
ENDROOT
BRANCH   1  18
ATOM     15  C   UNL     1      -0.335   1.556  -0.142  0.00  0.00    +0.064 C 
ATOM     16  C   UNL     1      -0.223   0.054  -0.103  0.00  0.00    +0.022 A 
ATOM     17  C   UNL     1      -0.174  -0.750  -1.178  0.00  0.00    +0.031 A 
ATOM     18  C   UNL     1      -0.067  -2.123  -0.665  0.00  0.00    -0.003 A 
ATOM     19  C   UNL     1      -0.060  -2.013   0.716  0.00  0.00    +0.028 A 
ATOM     20  N   UNL     1      -0.148  -0.706   1.031  0.00  0.00    -0.315 N 
ATOM     21  C   UNL     1       0.035  -3.155   1.694  0.00  0.00    +0.064 C 
BRANCH  20  22
ATOM     22  C   UNL     1      -0.166  -0.197   2.337  0.00  0.00    +0.082 A 
ATOM     23  C   UNL     1      -1.371  -0.040   3.007  0.00  0.00    +0.029 A 
ATOM     24  C   UNL     1      -1.385   0.462   4.294  0.00  0.00    +0.002 A 
ATOM     25  C   UNL     1      -0.200   0.807   4.917  0.00  0.00    +0.003 A 
ATOM     26  C   UNL     1       1.004   0.652   4.255  0.00  0.00    +0.040 A 
ATOM     27  C   UNL     1       1.026   0.146   2.967  0.00  0.00    +0.147 A 
ATOM     28  F   UNL     1       2.202  -0.011   2.322  0.00  0.00    -0.203 F 
ENDBRANCH  20  22
ENDBRANCH   1  18
BRANCH  11  29
ATOM     29  C   UNL     1       1.002   0.483  -7.550  0.00  0.00    +0.161 A 
ATOM     30  C   UNL     1       0.855   0.450  -8.903  0.00  0.00    +0.052 A 
ATOM     31  C   UNL     1       0.993   1.775  -9.358  0.00  0.00    +0.042 A 
ATOM     32  C   UNL     1       1.216   2.545  -8.274  0.00  0.00    +0.196 A 
ATOM     33  O   UNL     1       1.216   1.762  -7.183  0.00  0.00    -0.461 OA
ENDBRANCH  11  29
TORSDOF 3
