REMARK  Name = ZINC21142917
REMARK  9 active torsions:
REMARK  status: ('A' for Active; 'I' for Inactive)
REMARK    1  A    between atoms: C_1  and  C_2
REMARK    2  A    between atoms: C_2  and  C_3
REMARK    3  A    between atoms: C_3  and  C_5
REMARK    4  A    between atoms: C_3  and  C_6
REMARK    5  A    between atoms: C_6  and  C_8
REMARK    6  A    between atoms: C_6  and  N_29
REMARK    7  A    between atoms: N_10  and  C_11
REMARK    8  A    between atoms: C_14  and  C_17
REMARK    9  A    between atoms: N_25  and  C_26
REMARK                            x       y       z     vdW  Elec       q    Type
REMARK                         _______ _______ _______ _____ _____    ______ ____
ROOT
ATOM      1  C   UNL     1      -0.907  -2.300  -0.438  0.00  0.00    +0.033 A 
ATOM      2  C   UNL     1       0.317  -1.755  -0.065  0.00  0.00    +0.024 A 
ATOM      3  C   UNL     1       0.665  -0.489  -0.482  0.00  0.00    +0.013 A 
ATOM      4  C   UNL     1      -0.213   0.247  -1.281  0.00  0.00    +0.018 A 
ATOM      5  C   UNL     1      -1.444  -0.301  -1.649  0.00  0.00    +0.013 A 
ATOM      6  C   UNL     1      -1.783  -1.570  -1.233  0.00  0.00    +0.024 A 
ENDROOT
BRANCH   4   7
ATOM      7  C   UNL     1       0.157   1.605  -1.731  0.00  0.00    +0.146 A 
ATOM      8  N   UNL     1       0.915   2.440  -1.063  0.00  0.00    -0.227 NA
ATOM      9  C   UNL     1       1.051   3.592  -1.764  0.00  0.00    +0.090 A 
ATOM     10  C   UNL     1       1.735   4.788  -1.523  0.00  0.00    +0.030 A 
ATOM     11  C   UNL     1       1.684   5.798  -2.442  0.00  0.00    +0.002 A 
ATOM     12  C   UNL     1       0.958   5.652  -3.615  0.00  0.00    +0.002 A 
ATOM     13  C   UNL     1       0.275   4.482  -3.874  0.00  0.00    +0.028 A 
ATOM     14  C   UNL     1       0.315   3.444  -2.953  0.00  0.00    +0.074 A 
ATOM     15  N   UNL     1      -0.236   2.178  -2.911  0.00  0.00    -0.267 N 
BRANCH  15  16
ATOM     16  C   UNL     1      -1.084   1.564  -3.936  0.00  0.00    +0.450 C 
ATOM     17  F   UNL     1      -2.325   2.211  -3.962  0.00  0.00    -0.185 F 
ATOM     18  F   UNL     1      -0.467   1.686  -5.185  0.00  0.00    -0.185 F 
ENDBRANCH  15  16
ENDBRANCH   4   7
BRANCH   1  21
ATOM     19  C   UNL     1      -2.533  -3.859   0.323  0.00  0.00    +0.238 C 
ATOM     20  O   UNL     1      -3.393  -3.016   0.177  0.00  0.00    -0.273 OA
ATOM     21  N   UNL     1      -1.256  -3.584  -0.013  0.00  0.00    -0.284 N 
ATOM     22  H   UNL     1      -0.490  -4.371   0.048  0.00  0.00    +0.155 HD
BRANCH  19  23
ATOM     23  C   UNL     1      -2.891  -5.213   0.879  0.00  0.00    +0.163 C 
BRANCH  23  24
ATOM     24  N   UNL     1      -4.329  -5.442   0.718  0.00  0.00    -0.288 N 
ATOM     25  C   UNL     1      -5.212  -4.686   1.399  0.00  0.00    +0.298 C 
ATOM     26  O   UNL     1      -4.820  -3.759   2.081  0.00  0.00    -0.253 OA
ATOM     27  N   UNL     1      -6.530  -4.957   1.324  0.00  0.00    -0.313 N 
ATOM     28  H   UNL     1      -4.687  -6.232   0.041  0.00  0.00    +0.151 HD
ATOM     29  H   UNL     1      -7.251  -4.340   1.880  0.00  0.00    +0.146 HD
ATOM     30  H   UNL     1      -6.885  -5.796   0.707  0.00  0.00    +0.146 HD
ENDBRANCH  23  24
BRANCH  23  31
ATOM     31  C   UNL     1      -2.529  -5.266   2.364  0.00  0.00    +0.015 C 
ATOM     32  C   UNL     1      -2.995  -6.598   2.956  0.00  0.00    +0.010 C 
BRANCH  31  34
ATOM     33  C   UNL     1      -0.662  -5.067   4.013  0.00  0.00    +0.004 C 
ATOM     34  C   UNL     1      -1.013  -5.139   2.525  0.00  0.00    +0.002 C 
ENDBRANCH  31  34
ENDBRANCH  23  31
ENDBRANCH  19  23
ENDBRANCH   1  21
TORSDOF 7
