REMARK  Name = ZINC65382625
REMARK  6 active torsions:
REMARK  status: ('A' for Active; 'I' for Inactive)
REMARK    1  A    between atoms: C_1  and  C_2
REMARK    2  A    between atoms: C_3  and  C_10
REMARK    3  A    between atoms: N_5  and  C_7
REMARK    4  A    between atoms: C_7  and  C_8
REMARK    5  A    between atoms: C_10  and  N_11
REMARK    6  A    between atoms: C_19  and  N_24
REMARK                            x       y       z     vdW  Elec       q    Type
REMARK                         _______ _______ _______ _____ _____    ______ ____
ROOT
ATOM      1  N   UNL     1       1.607  -0.022  -2.866  0.00  0.00    -0.295 NA
ATOM      2  C   UNL     1       2.206   0.972  -1.966  0.00  0.00    +0.103 C 
ATOM      3  C   UNL     1       3.713   1.053  -2.231  0.00  0.00    +0.122 C 
ATOM      4  N   UNL     1       3.923   1.307  -3.665  0.00  0.00    -0.313 N 
ATOM      5  C   UNL     1       3.242   0.433  -4.633  0.00  0.00    +0.122 C 
ATOM      6  C   UNL     1       1.753   0.376  -4.273  0.00  0.00    +0.103 C 
ATOM      7  C   UNL     1       4.741   2.341  -4.093  0.00  0.00    +0.128 A 
ATOM      8  C   UNL     1       5.467   3.092  -3.173  0.00  0.00    +0.087 A 
ATOM      9  C   UNL     1       6.275   4.120  -3.649  0.00  0.00    +0.123 A 
ATOM     10  N   UNL     1       6.327   4.350  -4.959  0.00  0.00    -0.200 NA
ATOM     11  C   UNL     1       5.622   3.615  -5.805  0.00  0.00    +0.216 A 
ATOM     12  N   UNL     1       4.846   2.625  -5.389  0.00  0.00    -0.200 NA
ATOM     13  N   UNL     1       5.702   3.884  -7.160  0.00  0.00    -0.327 N 
ATOM     14  H   UNL     1       6.269   4.603  -7.479  0.00  0.00    +0.145 HD
ATOM     15  H   UNL     1       5.190   3.353  -7.791  0.00  0.00    +0.145 HD
ENDROOT
BRANCH   9  16
ATOM     16  N   UNL     1       7.016   4.895  -2.770  0.00  0.00    -0.343 N 
ATOM     17  H   UNL     1       6.973   4.722  -1.816  0.00  0.00    +0.144 HD
ATOM     18  H   UNL     1       7.577   5.610  -3.108  0.00  0.00    +0.144 HD
ENDBRANCH   9  16
BRANCH   1  19
ATOM     19  C   UNL     1       0.197  -0.256  -2.529  0.00  0.00    +0.123 C 
BRANCH  19  22
ATOM     20  C   UNL     1       0.748  -3.353  -2.151  0.00  0.00    +0.068 C 
ATOM     21  C   UNL     1       0.354  -2.386  -1.065  0.00  0.00    +0.064 A 
ATOM     22  C   UNL     1       0.110  -1.019  -1.233  0.00  0.00    +0.007 A 
ATOM     23  C   UNL     1      -0.216  -0.503  -0.025  0.00  0.00    +0.113 A 
ATOM     24  N   UNL     1      -0.180  -1.508   0.875  0.00  0.00    -0.267 N 
ATOM     25  N   UNL     1       0.175  -2.682   0.197  0.00  0.00    -0.176 NA
BRANCH  24  26
ATOM     26  C   UNL     1      -0.468  -1.393   2.307  0.00  0.00    +0.170 C 
BRANCH  26  27
ATOM     27  C   UNL     1      -1.546  -2.376   2.683  0.00  0.00    -0.012 C 
ATOM     28  C   UNL     1      -1.337  -3.240   3.646  0.00  0.00    +0.006 C 
ENDBRANCH  26  27
ENDBRANCH  24  26
ENDBRANCH  19  22
ENDBRANCH   1  19
TORSDOF 5
