REMARK  Name = ZINC39638244
REMARK  10 active torsions:
REMARK  status: ('A' for Active; 'I' for Inactive)
REMARK    1  A    between atoms: C_1  and  C_2
REMARK    2  A    between atoms: C_2  and  C_3
REMARK    3  A    between atoms: C_3  and  C_5
REMARK    4  A    between atoms: C_3  and  N_8
REMARK    5  A    between atoms: C_5  and  O_6
REMARK    6  A    between atoms: O_6  and  C_7
REMARK    7  A    between atoms: C_9  and  C_11
REMARK    8  A    between atoms: C_22  and  C_24
REMARK    9  A    between atoms: C_25  and  C_30
REMARK   10  A    between atoms: C_28  and  C_29
REMARK                            x       y       z     vdW  Elec       q    Type
REMARK                         _______ _______ _______ _____ _____    ______ ____
ROOT
ATOM      1  C   UNL     1       3.934   1.552  -1.591  0.00  0.00    +0.100 C 
ATOM      2  C   UNL     1       4.401   1.706  -0.126  0.00  0.00    +0.121 C 
ATOM      3  N   UNL     1       5.312   2.875  -0.144  0.00  0.00    -0.296 N 
ATOM      4  C   UNL     1       4.666   3.831  -1.076  0.00  0.00    +0.115 C 
ATOM      5  C   UNL     1       4.109   2.948  -2.211  0.00  0.00    -0.004 C 
ATOM      6  C   UNL     1       2.764   3.488  -2.686  0.00  0.00    -0.010 C 
ATOM      7  C   UNL     1       2.972   4.851  -3.351  0.00  0.00    -0.082 C 
ATOM      8  N   UNL     1       3.893   4.710  -4.485  0.00  0.00    +0.379 N 
ATOM      9  C   UNL     1       5.213   4.279  -4.007  0.00  0.00    -0.082 C 
ATOM     10  C   UNL     1       5.100   2.891  -3.370  0.00  0.00    -0.010 C 
ATOM     11  C   UNL     1       6.466   3.033   0.532  0.00  0.00    +0.252 C 
ATOM     12  O   UNL     1       7.106   4.060   0.411  0.00  0.00    -0.270 OA
ATOM     13  H   UNL     1       3.530   4.022  -5.128  0.00  0.00    -0.086 HD
ATOM     14  H   UNL     1       3.981   5.596  -4.958  0.00  0.00    -0.086 HD
ENDROOT
BRANCH  11  15
ATOM     15  C   UNL     1       6.953   1.961   1.420  0.00  0.00    +0.101 A 
ATOM     16  C   UNL     1       7.838   0.856   1.048  0.00  0.00    +0.093 A 
ATOM     17  N   UNL     1       8.023   0.138   2.117  0.00  0.00    -0.083 NA
ATOM     18  O   UNL     1       7.299   0.718   3.184  0.00  0.00    -0.359 OA
ATOM     19  C   UNL     1       6.670   1.812   2.747  0.00  0.00    +0.147 A 
ATOM     20  C   UNL     1       5.798   2.721   3.574  0.00  0.00    +0.090 C 
ATOM     21  C   UNL     1       8.424   0.598  -0.316  0.00  0.00    +0.070 C 
ENDBRANCH  11  15
BRANCH   1  23
ATOM     22  N   UNL     1       2.030   0.408  -2.679  0.00  0.00    -0.310 N 
ATOM     23  C   UNL     1       2.487   1.134  -1.640  0.00  0.00    +0.218 C 
ATOM     24  O   UNL     1       1.734   1.451  -0.744  0.00  0.00    -0.275 OA
ATOM     25  H   UNL     1       2.633   0.154  -3.396  0.00  0.00    +0.149 HD
BRANCH  22  26
ATOM     26  C   UNL     1       0.624   0.001  -2.727  0.00  0.00    +0.098 C 
BRANCH  26  28
ATOM     27  C   UNL     1       0.735  -1.030  -0.453  0.00  0.00    +0.006 C 
ATOM     28  C   UNL     1       0.440  -1.293  -1.931  0.00  0.00    +0.021 C 
ENDBRANCH  26  28
BRANCH  26  29
ATOM     29  C   UNL     1       0.209  -0.231  -4.181  0.00  0.00    +0.181 C 
BRANCH  29  30
ATOM     30  O   UNL     1       0.940  -1.336  -4.714  0.00  0.00    -0.381 OA
ATOM     31  C   UNL     1       0.625  -1.639  -6.075  0.00  0.00    +0.194 C 
ENDBRANCH  29  30
ENDBRANCH  26  29
ENDBRANCH  22  26
ENDBRANCH   1  23
TORSDOF 6
