REMARK  Name = ZINC63488994
REMARK  9 active torsions:
REMARK  status: ('A' for Active; 'I' for Inactive)
REMARK    1  A    between atoms: C_1  and  C_2
REMARK    2  A    between atoms: C_2  and  C_3
REMARK    3  A    between atoms: C_2  and  N_15
REMARK    4  A    between atoms: C_7  and  C_9
REMARK    5  A    between atoms: C_16  and  C_18
REMARK    6  A    between atoms: C_18  and  C_19
REMARK    7  A    between atoms: C_19  and  C_20
REMARK    8  A    between atoms: C_25  and  O_26
REMARK    9  A    between atoms: O_26  and  C_27
REMARK                            x       y       z     vdW  Elec       q    Type
REMARK                         _______ _______ _______ _____ _____    ______ ____
ROOT
ATOM      1  C   UNL     1      -0.019   1.526   0.010  0.00  0.00    +0.036 C 
ATOM      2  C   UNL     1       0.002  -0.004   0.002  0.00  0.00    +0.134 C 
ENDROOT
BRANCH   2   3
ATOM      3  C   UNL     1       0.707  -0.490  -1.238  0.00  0.00    +0.105 A 
ATOM      4  N   UNL     1       0.118  -0.748  -2.426  0.00  0.00    -0.348 N 
ATOM      5  H   UNL     1      -0.825  -0.653  -2.631  0.00  0.00    +0.167 HD
ATOM      6  C   UNL     1       1.095  -1.165  -3.286  0.00  0.00    +0.110 A 
ATOM      7  C   UNL     1       2.261  -1.149  -2.589  0.00  0.00    +0.064 A 
ATOM      8  N   UNL     1       1.986  -0.725  -1.339  0.00  0.00    -0.342 N 
ATOM      9  H   UNL     1       2.635  -0.614  -0.627  0.00  0.00    +0.167 HD
BRANCH   7  10
ATOM     10  C   UNL     1       3.598  -1.525  -3.111  0.00  0.00    -0.000 A 
ATOM     11  C   UNL     1       4.715  -1.467  -2.280  0.00  0.00    +0.010 A 
ATOM     12  C   UNL     1       5.956  -1.818  -2.771  0.00  0.00    +0.001 A 
ATOM     13  C   UNL     1       6.093  -2.225  -4.086  0.00  0.00    +0.000 A 
ATOM     14  C   UNL     1       4.988  -2.284  -4.915  0.00  0.00    +0.001 A 
ATOM     15  C   UNL     1       3.740  -1.942  -4.433  0.00  0.00    +0.010 A 
ENDBRANCH   7  10
ENDBRANCH   2   3
BRANCH   2  16
ATOM     16  N   UNL     1      -1.372  -0.511   0.012  0.00  0.00    -0.306 N 
ATOM     17  C   UNL     1      -2.029  -0.655   1.181  0.00  0.00    +0.214 C 
ATOM     18  O   UNL     1      -1.481  -0.365   2.224  0.00  0.00    -0.276 OA
ATOM     19  H   UNL     1      -1.810  -0.743  -0.822  0.00  0.00    +0.149 HD
BRANCH  17  20
ATOM     20  C   UNL     1      -3.442  -1.177   1.191  0.00  0.00    +0.100 C 
BRANCH  20  21
ATOM     21  C   UNL     1      -3.951  -1.243   2.633  0.00  0.00    +0.048 C 
BRANCH  21  22
ATOM     22  C   UNL     1      -5.364  -1.765   2.644  0.00  0.00    -0.005 A 
ATOM     23  C   UNL     1      -6.427  -0.882   2.653  0.00  0.00    +0.007 A 
ATOM     24  C   UNL     1      -7.724  -1.360   2.663  0.00  0.00    +0.000 A 
ATOM     25  C   UNL     1      -7.962  -2.722   2.664  0.00  0.00    +0.004 A 
ATOM     26  C   UNL     1      -6.903  -3.609   2.654  0.00  0.00    +0.046 A 
ATOM     27  C   UNL     1      -5.600  -3.132   2.639  0.00  0.00    +0.123 A 
BRANCH  27  28
ATOM     28  O   UNL     1      -4.557  -4.002   2.623  0.00  0.00    -0.495 OA
ATOM     29  C   UNL     1      -4.874  -5.396   2.619  0.00  0.00    +0.277 C 
ENDBRANCH  27  28
ENDBRANCH  21  22
ENDBRANCH  20  21
ENDBRANCH  17  20
ENDBRANCH   2  16
TORSDOF 7
