REMARK  Name = ZINC39607291
REMARK  7 active torsions:
REMARK  status: ('A' for Active; 'I' for Inactive)
REMARK    1  A    between atoms: C_1  and  C_2
REMARK    2  A    between atoms: C_5  and  C_9
REMARK    3  A    between atoms: C_6  and  C_8
REMARK    4  A    between atoms: C_9  and  N_10
REMARK    5  A    between atoms: C_11  and  C_13
REMARK    6  A    between atoms: C_24  and  C_26
REMARK    7  A    between atoms: N_30  and  C_31
REMARK                            x       y       z     vdW  Elec       q    Type
REMARK                         _______ _______ _______ _____ _____    ______ ____
ROOT
ATOM      1  C   UNL     1      -3.838  -6.406   0.649  0.00  0.00    +0.100 C 
ATOM      2  C   UNL     1      -4.630  -6.046  -0.628  0.00  0.00    +0.121 C 
ATOM      3  N   UNL     1      -4.293  -7.121  -1.591  0.00  0.00    -0.295 N 
ATOM      4  C   UNL     1      -4.261  -8.355  -0.771  0.00  0.00    +0.115 C 
ATOM      5  C   UNL     1      -3.602  -7.922   0.554  0.00  0.00    -0.004 C 
ATOM      6  C   UNL     1      -2.106  -8.222   0.520  0.00  0.00    -0.010 C 
ATOM      7  C   UNL     1      -1.895  -9.739   0.482  0.00  0.00    -0.082 C 
ATOM      8  N   UNL     1      -2.511 -10.350   1.666  0.00  0.00    +0.379 N 
ATOM      9  C   UNL     1      -3.963 -10.135   1.643  0.00  0.00    -0.082 C 
ATOM     10  C   UNL     1      -4.261  -8.636   1.730  0.00  0.00    -0.010 C 
ATOM     11  C   UNL     1      -4.068  -7.003  -2.915  0.00  0.00    +0.265 C 
ATOM     12  O   UNL     1      -3.993  -7.999  -3.611  0.00  0.00    -0.268 OA
ATOM     13  H   UNL     1      -2.318 -11.340   1.671  0.00  0.00    -0.086 HD
ATOM     14  H   UNL     1      -2.123  -9.931   2.499  0.00  0.00    -0.086 HD
ENDROOT
BRANCH  11  15
ATOM     15  C   UNL     1      -3.913  -5.674  -3.517  0.00  0.00    +0.124 A 
ATOM     16  C   UNL     1      -3.650  -4.503  -2.863  0.00  0.00    +0.143 A 
ATOM     17  N   UNL     1      -3.586  -3.532  -3.775  0.00  0.00    -0.243 NA
ATOM     18  C   UNL     1      -3.796  -4.032  -4.966  0.00  0.00    +0.199 A 
ATOM     19  N   UNL     1      -3.998  -5.357  -4.859  0.00  0.00    -0.330 N 
ATOM     20  C   UNL     1      -4.262  -6.289  -5.959  0.00  0.00    +0.150 C 
ENDBRANCH  11  15
BRANCH   1  22
ATOM     21  N   UNL     1      -1.978  -5.309   1.855  0.00  0.00    -0.311 N 
ATOM     22  C   UNL     1      -2.524  -5.670   0.677  0.00  0.00    +0.218 C 
ATOM     23  O   UNL     1      -1.957  -5.402  -0.361  0.00  0.00    -0.275 OA
ATOM     24  H   UNL     1      -2.431  -5.523   2.685  0.00  0.00    +0.149 HD
BRANCH  21  25
ATOM     25  C   UNL     1      -0.699  -4.594   1.882  0.00  0.00    +0.139 C 
BRANCH  25  30
ATOM     26  C   UNL     1       0.783  -3.507   7.360  0.00  0.00    +0.044 C 
ATOM     27  C   UNL     1       0.397  -3.791   5.931  0.00  0.00    -0.050 A 
ATOM     28  C   UNL     1      -0.181  -2.798   5.162  0.00  0.00    +0.004 A 
ATOM     29  C   UNL     1      -0.535  -3.058   3.851  0.00  0.00    +0.006 A 
ATOM     30  C   UNL     1      -0.312  -4.310   3.310  0.00  0.00    -0.027 A 
ATOM     31  C   UNL     1       0.266  -5.302   4.079  0.00  0.00    -0.046 A 
ATOM     32  C   UNL     1       0.625  -5.041   5.389  0.00  0.00    +0.007 A 
ATOM     33  C   UNL     1       0.509  -6.668   3.490  0.00  0.00    +0.044 C 
ENDBRANCH  25  30
ENDBRANCH  21  25
ENDBRANCH   1  22
TORSDOF 4
