REMARK  Name = ZINC00845568
REMARK  7 active torsions:
REMARK  status: ('A' for Active; 'I' for Inactive)
REMARK    1  A    between atoms: C_1  and  C_2
REMARK    2  A    between atoms: C_2  and  O_3
REMARK    3  A    between atoms: O_3  and  C_4
REMARK    4  A    between atoms: C_7  and  N_10
REMARK    5  A    between atoms: C_11  and  C_13
REMARK    6  A    between atoms: C_14  and  C_28
REMARK    7  A    between atoms: C_19  and  C_21
REMARK                            x       y       z     vdW  Elec       q    Type
REMARK                         _______ _______ _______ _____ _____    ______ ____
ROOT
ATOM      1  C   UNL     1      -0.886  -2.391  -0.518  0.00  0.00    +0.056 C 
ATOM      2  C   UNL     1      -1.889  -3.293  -0.537  0.00  0.00    +0.019 C 
ATOM      3  N   UNL     1      -1.667  -4.603  -0.215  0.00  0.00    -0.273 N 
ATOM      4  C   UNL     1      -0.471  -5.085   0.148  0.00  0.00    +0.304 C 
ATOM      5  O   UNL     1      -0.372  -6.265   0.422  0.00  0.00    -0.252 OA
ATOM      6  N   UNL     1       0.625  -4.304   0.219  0.00  0.00    -0.288 N 
ATOM      7  C   UNL     1       0.492  -2.876  -0.116  0.00  0.00    +0.142 C 
ATOM      8  C   UNL     1      -3.276  -2.851  -0.927  0.00  0.00    +0.061 C 
ATOM      9  H   UNL     1      -2.417  -5.216  -0.246  0.00  0.00    +0.156 HD
ATOM     10  H   UNL     1       1.482  -4.674   0.484  0.00  0.00    +0.151 HD
ENDROOT
BRANCH   7  11
ATOM     11  C   UNL     1       1.440  -2.575  -1.248  0.00  0.00    -0.022 A 
ATOM     12  C   UNL     1       1.363  -3.297  -2.424  0.00  0.00    +0.007 A 
ATOM     13  C   UNL     1       2.228  -3.017  -3.465  0.00  0.00    +0.020 A 
ATOM     14  C   UNL     1       3.179  -2.021  -3.325  0.00  0.00    +0.041 A 
ATOM     15  C   UNL     1       3.258  -1.302  -2.146  0.00  0.00    +0.020 A 
ATOM     16  C   UNL     1       2.389  -1.579  -1.108  0.00  0.00    +0.007 A 
ATOM     17 CL   UNL     1       4.271  -1.674  -4.629  0.00  0.00    -0.084 Cl
ENDBRANCH   7  11
BRANCH   1  19
ATOM     18  N   UNL     1      -1.107  -0.653  -2.151  0.00  0.00    -0.282 N 
ATOM     19  C   UNL     1      -1.115  -1.035  -0.858  0.00  0.00    +0.248 C 
ATOM     20  O   UNL     1      -1.318  -0.214   0.018  0.00  0.00    -0.270 OA
ATOM     21  H   UNL     1      -1.048  -1.320  -2.853  0.00  0.00    +0.155 HD
BRANCH  18  25
ATOM     22  C   UNL     1      -1.343   3.392  -3.131  0.00  0.00    +0.121 A 
ATOM     23  C   UNL     1      -0.541   2.543  -3.880  0.00  0.00    +0.047 A 
ATOM     24  C   UNL     1      -0.462   1.203  -3.555  0.00  0.00    +0.027 A 
ATOM     25  C   UNL     1      -1.186   0.706  -2.480  0.00  0.00    +0.034 A 
ATOM     26  C   UNL     1      -1.993   1.556  -1.735  0.00  0.00    +0.027 A 
ATOM     27  C   UNL     1      -2.066   2.896  -2.057  0.00  0.00    +0.047 A 
BRANCH  22  28
ATOM     28  O   UNL     1      -1.419   4.712  -3.451  0.00  0.00    -0.492 OA
BRANCH  28  30
ATOM     29  C   UNL     1      -2.222   6.971  -3.147  0.00  0.00    +0.048 C 
ATOM     30  C   UNL     1      -2.264   5.528  -2.638  0.00  0.00    +0.225 C 
ENDBRANCH  28  30
ENDBRANCH  22  28
ENDBRANCH  18  25
ENDBRANCH   1  19
TORSDOF 5
