REMARK  Name = ZINC49147017
REMARK  9 active torsions:
REMARK  status: ('A' for Active; 'I' for Inactive)
REMARK    1  A    between atoms: C_1  and  C_2
REMARK    2  A    between atoms: C_2  and  C_3
REMARK    3  A    between atoms: C_3  and  C_5
REMARK    4  A    between atoms: C_3  and  N_8
REMARK    5  A    between atoms: C_5  and  C_6
REMARK    6  A    between atoms: C_5  and  C_7
REMARK    7  A    between atoms: C_9  and  C_13
REMARK    8  A    between atoms: C_15  and  N_20
REMARK    9  A    between atoms: C_18  and  C_19
REMARK                            x       y       z     vdW  Elec       q    Type
REMARK                         _______ _______ _______ _____ _____    ______ ____
ROOT
ATOM      1  N   UNL     1       2.094   0.050  -1.138  0.00  0.00    -0.222 N 
ATOM      2  C   UNL     1       2.807   0.624  -2.138  0.00  0.00    +0.182 A 
ATOM      3  N   UNL     1       4.069   0.623  -1.761  0.00  0.00    -0.108 NA
ATOM      4  N   UNL     1       4.191   0.090  -0.599  0.00  0.00    -0.023 NA
ATOM      5  N   UNL     1       3.039  -0.278  -0.151  0.00  0.00    -0.043 NA
ENDROOT
BRANCH   2   6
ATOM      6  C   UNL     1       2.270   1.151  -3.413  0.00  0.00    +0.025 A 
ATOM      7  C   UNL     1       1.388   0.382  -4.170  0.00  0.00    +0.034 A 
ATOM      8  C   UNL     1       0.889   0.882  -5.363  0.00  0.00    +0.025 A 
ATOM      9  C   UNL     1       1.268   2.146  -5.800  0.00  0.00    +0.023 A 
ATOM     10  C   UNL     1       2.142   2.908  -5.048  0.00  0.00    +0.006 A 
ATOM     11  C   UNL     1       2.640   2.420  -3.856  0.00  0.00    -0.040 A 
ATOM     12  C   UNL     1       3.588   3.258  -3.037  0.00  0.00    +0.044 C 
BRANCH   8  13
ATOM     13  N   UNL     1       0.005   0.115  -6.127  0.00  0.00    -0.358 N 
ATOM     14  H   UNL     1      -0.259  -0.767  -5.822  0.00  0.00    +0.142 HD
ATOM     15  H   UNL     1      -0.344   0.465  -6.961  0.00  0.00    +0.142 HD
ENDBRANCH   8  13
ENDBRANCH   2   6
BRANCH   1  16
ATOM     16  C   UNL     1       0.646  -0.173  -1.093  0.00  0.00    +0.114 C 
BRANCH  16  17
ATOM     17  C   UNL     1       0.367  -1.646  -0.786  0.00  0.00    +0.007 C 
ATOM     18  C   UNL     1      -1.144  -1.880  -0.739  0.00  0.00    +0.009 C 
ATOM     19  C   UNL     1       0.985  -2.520  -1.879  0.00  0.00    +0.009 C 
ENDBRANCH  16  17
BRANCH  16  21
ATOM     20  C   UNL     1       0.199   2.176  -0.369  0.00  0.00    +0.006 C 
ATOM     21  C   UNL     1       0.029   0.701   0.001  0.00  0.00    +0.024 C 
ENDBRANCH  16  21
ENDBRANCH   1  16
TORSDOF 5
