REMARK  Name = ZINC14477928
REMARK  3 active torsions:
REMARK  status: ('A' for Active; 'I' for Inactive)
REMARK    1  A    between atoms: C_4  and  N_24
REMARK    2  A    between atoms: C_5  and  C_7
REMARK    3  A    between atoms: C_18  and  O_23
REMARK                            x       y       z     vdW  Elec       q    Type
REMARK                         _______ _______ _______ _____ _____    ______ ____
ROOT
ATOM      1  C   UNL     1       5.684   3.655  -1.277  0.00  0.00    +0.107 C 
ATOM      2  C   UNL     1       4.527   3.939  -2.218  0.00  0.00    +0.029 C 
ATOM      3  C   UNL     1       4.878   4.098  -3.699  0.00  0.00    +0.033 C 
ATOM      4  C   UNL     1       3.574   3.643  -4.358  0.00  0.00    -0.030 C 
ATOM      5  C   UNL     1       2.931   2.802  -3.557  0.00  0.00    -0.023 C 
ATOM      6  C   UNL     1       3.745   2.595  -2.332  0.00  0.00    +0.049 C 
ATOM      7  C   UNL     1       3.123   2.319  -1.019  0.00  0.00    -0.016 A 
ATOM      8  C   UNL     1       1.900   1.696  -0.897  0.00  0.00    +0.051 A 
ATOM      9  C   UNL     1       1.367   1.442   0.357  0.00  0.00    +0.117 A 
ATOM     10  C   UNL     1       2.067   1.818   1.494  0.00  0.00    +0.047 A 
ATOM     11  C   UNL     1       3.294   2.438   1.378  0.00  0.00    +0.027 A 
ATOM     12  C   UNL     1       3.831   2.704   0.125  0.00  0.00    +0.032 A 
ATOM     13  N   UNL     1       5.067   3.362   0.035  0.00  0.00    -0.336 N 
ATOM     14  H   UNL     1       5.525   3.629   0.847  0.00  0.00    +0.147 HD
ENDROOT
BRANCH   1  19
ATOM     15  C   UNL     1       6.908   0.111  -1.712  0.00  0.00    +0.000 A 
ATOM     16  C   UNL     1       7.909   0.278  -2.651  0.00  0.00    +0.002 A 
ATOM     17  C   UNL     1       8.190   1.538  -3.145  0.00  0.00    +0.033 A 
ATOM     18  C   UNL     1       7.466   2.630  -2.704  0.00  0.00    +0.131 A 
ATOM     19  C   UNL     1       6.469   2.464  -1.762  0.00  0.00    +0.003 A 
ATOM     20  C   UNL     1       6.188   1.204  -1.267  0.00  0.00    +0.008 A 
BRANCH  18  21
ATOM     21  N   UNL     1       7.763   3.978  -3.238  0.00  0.00    +0.057 N 
ATOM     22  O   UNL     1       8.569   4.112  -4.141  0.00  0.00    -0.126 OA
ATOM     23  O   UNL     1       7.200   4.954  -2.774  0.00  0.00    -0.126 OA
ENDBRANCH  18  21
ENDBRANCH   1  19
BRANCH   9  24
ATOM     24  O   UNL     1       0.158   0.830   0.473  0.00  0.00    -0.507 OA
ATOM     25  H   UNL     1       0.208  -0.135   0.516  0.00  0.00    +0.292 HD
ENDBRANCH   9  24
TORSDOF 3
