REMARK  Name = ZINC61622769
REMARK  6 active torsions:
REMARK  status: ('A' for Active; 'I' for Inactive)
REMARK    1  A    between atoms: C_1  and  C_2
REMARK    2  A    between atoms: C_5  and  C_9
REMARK    3  A    between atoms: C_6  and  C_8
REMARK    4  A    between atoms: C_12  and  C_14
REMARK    5  A    between atoms: C_17  and  N_23
REMARK    6  A    between atoms: C_18  and  C_21
REMARK                            x       y       z     vdW  Elec       q    Type
REMARK                         _______ _______ _______ _____ _____    ______ ____
ROOT
ATOM      1  C   UNL     1       0.059  -4.251  -0.021  0.00  0.00    +0.109 A 
ATOM      2  N   UNL     1       0.069  -5.075   1.014  0.00  0.00    -0.247 NA
ATOM      3  C   UNL     1       0.086  -6.371   0.854  0.00  0.00    +0.132 A 
ATOM      4  C   UNL     1       0.093  -6.832  -0.458  0.00  0.00    +0.098 A 
ATOM      5  S   UNL     1       0.066  -5.285  -1.349  0.00  0.00    -0.062 S 
ENDROOT
BRANCH   1  10
ATOM      6  C   UNL     1      -0.018   1.503   0.010  0.00  0.00    +0.044 C 
ATOM      7  C   UNL     1       0.002  -0.004   0.002  0.00  0.00    -0.050 A 
ATOM      8  C   UNL     1       0.006  -0.686  -1.202  0.00  0.00    +0.004 A 
ATOM      9  C   UNL     1       0.024  -2.065  -1.217  0.00  0.00    +0.011 A 
ATOM     10  C   UNL     1       0.040  -2.773  -0.013  0.00  0.00    +0.010 A 
ATOM     11  C   UNL     1       0.036  -2.079   1.198  0.00  0.00    -0.041 A 
ATOM     12  C   UNL     1       0.023  -0.699   1.198  0.00  0.00    +0.007 A 
ATOM     13  C   UNL     1       0.052  -2.834   2.501  0.00  0.00    +0.044 C 
ENDBRANCH   1  10
BRANCH   4  14
ATOM     14  C   UNL     1       0.111  -8.204  -0.967  0.00  0.00    +0.288 C 
ATOM     15  O   UNL     1       0.122  -9.140  -0.191  0.00  0.00    -0.265 OA
ATOM     16  N   UNL     1       0.114  -8.429  -2.296  0.00  0.00    -0.180 N 
ATOM     17  C   UNL     1       0.125  -9.651  -2.898  0.00  0.00    +0.141 A 
ATOM     18  C   UNL     1       0.124  -9.427  -4.271  0.00  0.00    +0.111 A 
ATOM     19  C   UNL     1       0.113  -8.024  -4.463  0.00  0.00    +0.155 A 
ATOM     20  N   UNL     1       0.102  -7.449  -3.294  0.00  0.00    -0.169 NA
BRANCH  17  21
ATOM     21  N   UNL     1       0.135 -10.877  -2.267  0.00  0.00    -0.342 N 
ATOM     22  H   UNL     1       0.134 -10.924  -1.298  0.00  0.00    +0.144 HD
ATOM     23  H   UNL     1       0.142 -11.693  -2.792  0.00  0.00    +0.144 HD
ENDBRANCH  17  21
BRANCH  18  24
ATOM     24  C   UNL     1       0.134 -10.426  -5.297  0.00  0.00    +0.104 C 
ATOM     25  N   UNL     1       0.141 -11.218  -6.111  0.00  0.00    -0.191 NA
ENDBRANCH  18  24
ENDBRANCH   4  14
TORSDOF 4
