REMARK  Name = ZINC39466196
REMARK  8 active torsions:
REMARK  status: ('A' for Active; 'I' for Inactive)
REMARK    1  A    between atoms: C_1  and  C_2
REMARK    2  A    between atoms: C_2  and  C_3
REMARK    3  A    between atoms: C_2  and  S_4
REMARK    4  A    between atoms: S_4  and  P_7
REMARK    5  A    between atoms: C_15  and  O_33
REMARK    6  A    between atoms: C_16  and  S_23
REMARK    7  A    between atoms: S_23  and  O_26
REMARK    8  A    between atoms: O_26  and  C_27
REMARK                            x       y       z     vdW  Elec       q    Type
REMARK                         _______ _______ _______ _____ _____    ______ ____
ROOT
ATOM      1  P   UNL     1      -0.704  -2.617  -0.097  0.00  0.00    +0.419 P 
ATOM      2  O   UNL     1      -0.140  -3.065   1.196  0.00  0.00    -0.246 OA
ATOM      3  N   UNL     1      -2.279  -3.100  -0.235  0.00  0.00    -0.161 NA
ATOM      4  N   UNL     1      -2.492  -4.411  -0.599  0.00  0.00    -0.224 NA
ATOM      5  C   UNL     1      -3.936  -4.674  -0.696  0.00  0.00    +0.108 C 
ATOM      6  C   UNL     1      -4.157  -6.184  -0.768  0.00  0.00    +0.052 C 
ATOM      7  C   UNL     1      -3.297  -6.771  -1.858  0.00  0.00    -0.038 A 
ATOM      8  C   UNL     1      -3.621  -8.024  -2.353  0.00  0.00    +0.051 A 
ATOM      9  C   UNL     1      -2.855  -8.599  -3.355  0.00  0.00    +0.145 A 
ATOM     10  C   UNL     1      -1.760  -7.912  -3.861  0.00  0.00    +0.170 A 
ATOM     11  C   UNL     1      -1.442  -6.665  -3.365  0.00  0.00    +0.040 A 
ATOM     12  C   UNL     1      -2.210  -6.090  -2.361  0.00  0.00    -0.021 A 
ATOM     13  C   UNL     1      -1.817  -4.726  -1.859  0.00  0.00    +0.130 C 
ATOM     14  C   UNL     1      -0.295  -4.672  -1.696  0.00  0.00    +0.195 C 
ATOM     15  O   UNL     1       0.082  -3.330  -1.329  0.00  0.00    -0.298 OA
ATOM     16  H   UNL     1      -3.016  -2.492  -0.067  0.00  0.00    +0.152 HD
ENDROOT
BRANCH   1  17
ATOM     17  S   UNL     1      -0.568  -0.508  -0.263  0.00  0.00    +0.058 S 
ATOM     18  O   UNL     1      -1.202  -0.010   0.907  0.00  0.00    -0.164 OA
ATOM     19  O   UNL     1      -1.088  -0.211  -1.552  0.00  0.00    -0.164 OA
BRANCH  17  21
ATOM     20  C   UNL     1       1.425   1.365  -0.197  0.00  0.00    +0.032 C 
ATOM     21  C   UNL     1       1.210  -0.150  -0.209  0.00  0.00    +0.136 C 
ATOM     22  C   UNL     1       1.815  -0.761   1.056  0.00  0.00    +0.032 C 
ENDBRANCH  17  21
ENDBRANCH   1  17
BRANCH  10  23
ATOM     23  S   UNL     1      -0.778  -8.633  -5.134  0.00  0.00    +0.154 S 
ATOM     24  O   UNL     1      -1.440  -8.361  -6.361  0.00  0.00    -0.131 OA
ATOM     25  O   UNL     1       0.564  -8.233  -4.887  0.00  0.00    -0.131 OA
BRANCH  23  26
ATOM     26  O   UNL     1      -0.825 -10.142  -4.939  0.00  0.00    -0.342 OA
BRANCH  26  27
ATOM     27  C   UNL     1      -0.034 -10.594  -3.931  0.00  0.00    +0.157 A 
ATOM     28  C   UNL     1       1.304 -10.875  -4.170  0.00  0.00    +0.048 A 
ATOM     29  C   UNL     1       2.106 -11.334  -3.143  0.00  0.00    +0.004 A 
ATOM     30  C   UNL     1       1.577 -11.514  -1.879  0.00  0.00    +0.000 A 
ATOM     31  C   UNL     1       0.244 -11.235  -1.638  0.00  0.00    +0.004 A 
ATOM     32  C   UNL     1      -0.560 -10.770  -2.660  0.00  0.00    +0.048 A 
ENDBRANCH  26  27
ENDBRANCH  23  26
ENDBRANCH  10  23
BRANCH   9  33
ATOM     33  O   UNL     1      -3.174  -9.828  -3.838  0.00  0.00    -0.505 OA
ATOM     34  H   UNL     1      -3.789  -9.810  -4.584  0.00  0.00    +0.292 HD
ENDBRANCH   9  33
TORSDOF 6
