REMARK  Name = ZINC16819571
REMARK  7 active torsions:
REMARK  status: ('A' for Active; 'I' for Inactive)
REMARK    1  A    between atoms: C_1  and  C_2
REMARK    2  A    between atoms: C_2  and  N_3
REMARK    3  A    between atoms: C_12  and  S_13
REMARK    4  A    between atoms: S_13  and  C_14
REMARK    5  A    between atoms: C_14  and  C_15
REMARK    6  A    between atoms: N_17  and  C_18
REMARK    7  A    between atoms: C_19  and  C_26
REMARK                            x       y       z     vdW  Elec       q    Type
REMARK                         _______ _______ _______ _____ _____    ______ ____
ROOT
ATOM      1  C   UNL     1       6.449  -0.497  -0.062  0.00  0.00    +0.173 C 
ENDROOT
BRANCH   1   2
ATOM      2  C   UNL     1       7.933  -0.757  -0.077  0.00  0.00    +0.228 C 
ATOM      3  O   UNL     1       8.349  -1.896  -0.087  0.00  0.00    -0.275 OA
ATOM      4  N   UNL     1       8.799   0.277  -0.080  0.00  0.00    -0.279 N 
ATOM      5  H   UNL     1       8.466   1.188  -0.072  0.00  0.00    +0.155 HD
BRANCH   4   6
ATOM      6  C   UNL     1      10.164   0.037  -0.094  0.00  0.00    +0.084 A 
ATOM      7  C   UNL     1      11.199   0.957  -0.105  0.00  0.00    +0.068 A 
ATOM      8  C   UNL     1      12.566   0.438  -0.115  0.00  0.00    -0.023 A 
ATOM      9  C   UNL     1      12.668  -0.903  -0.122  0.00  0.00    -0.004 A 
ATOM     10  S   UNL     1      10.990  -1.484  -0.110  0.00  0.00    -0.077 S 
ATOM     11  C   UNL     1      14.102  -1.360  -0.136  0.00  0.00    +0.043 C 
ATOM     12  C   UNL     1      14.910  -0.118   0.302  0.00  0.00    +0.010 C 
ATOM     13  C   UNL     1      13.976   1.032  -0.127  0.00  0.00    +0.037 C 
BRANCH   7  14
ATOM     14  C   UNL     1      10.933   2.399  -0.102  0.00  0.00    +0.244 C 
ATOM     15  O   UNL     1      10.834   2.997   0.954  0.00  0.00    -0.270 OA
ATOM     16  N   UNL     1      10.799   3.062  -1.267  0.00  0.00    -0.325 N 
ATOM     17  H   UNL     1      10.877   2.585  -2.108  0.00  0.00    +0.145 HD
ATOM     18  H   UNL     1      10.623   4.016  -1.265  0.00  0.00    +0.145 HD
ENDBRANCH   7  14
ENDBRANCH   4   6
ENDBRANCH   1   2
BRANCH   1  19
ATOM     19  S   UNL     1       5.560  -2.074  -0.062  0.00  0.00    -0.078 S 
BRANCH  19  29
ATOM     20  N   UNL     1       2.885  -2.398  -0.038  0.00  0.00    -0.288 N 
ATOM     21  C   UNL     1       1.578  -2.046  -0.024  0.00  0.00    +0.263 A 
ATOM     22  O   UNL     1       0.685  -2.876  -0.020  0.00  0.00    -0.267 OA
ATOM     23  C   UNL     1       1.310  -0.639  -0.014  0.00  0.00    +0.076 A 
ATOM     24  C   UNL     1       0.002  -0.004   0.002  0.00  0.00    -0.023 A 
ATOM     25  C   UNL     1      -0.016   1.348   0.009  0.00  0.00    -0.004 A 
ATOM     26  S   UNL     1       1.690   1.837  -0.004  0.00  0.00    -0.073 S 
ATOM     27  C   UNL     1       2.424   0.232  -0.020  0.00  0.00    +0.117 A 
ATOM     28  N   UNL     1       3.685  -0.179  -0.035  0.00  0.00    -0.216 NA
ATOM     29  C   UNL     1       3.898  -1.488  -0.043  0.00  0.00    +0.173 A 
ATOM     30  C   UNL     1      -1.220   2.239   0.020  0.00  0.00    +0.043 C 
ATOM     31  C   UNL     1      -2.452   1.399  -0.341  0.00  0.00    +0.005 C 
ATOM     32  C   UNL     1      -2.433   0.113   0.491  0.00  0.00    +0.005 C 
ATOM     33  C   UNL     1      -1.302  -0.797   0.011  0.00  0.00    +0.037 C 
BRANCH  20  35
ATOM     34  C   UNL     1       3.331  -4.311  -1.496  0.00  0.00    +0.027 C 
ATOM     35  C   UNL     1       3.226  -3.823  -0.049  0.00  0.00    +0.124 C 
ENDBRANCH  20  35
ENDBRANCH  19  29
ENDBRANCH   1  19
TORSDOF 6
