REMARK  Name = ZINC45233542
REMARK  8 active torsions:
REMARK  status: ('A' for Active; 'I' for Inactive)
REMARK    1  A    between atoms: C_1  and  N_2
REMARK    2  A    between atoms: C_6  and  C_7
REMARK    3  A    between atoms: C_7  and  C_9
REMARK    4  A    between atoms: C_7  and  N_16
REMARK    5  A    between atoms: N_19  and  N_20
REMARK    6  A    between atoms: N_20  and  C_21
REMARK    7  A    between atoms: C_21  and  N_23
REMARK    8  A    between atoms: N_23  and  C_24
REMARK                            x       y       z     vdW  Elec       q    Type
REMARK                         _______ _______ _______ _____ _____    ______ ____
ROOT
ATOM      1  N   UNL     1      -0.929  -1.151   3.291  0.00  0.00    -0.284 N 
ATOM      2  C   UNL     1      -2.229  -0.798   3.320  0.00  0.00    +0.317 C 
ATOM      3  O   UNL     1      -2.607   0.182   2.706  0.00  0.00    -0.251 OA
ATOM      4  N   UNL     1      -3.111  -1.530   4.028  0.00  0.00    -0.219 N 
ATOM      5  H   UNL     1      -0.627  -1.932   3.780  0.00  0.00    +0.151 HD
ATOM      6  H   UNL     1      -4.047  -1.276   4.049  0.00  0.00    +0.174 HD
ENDROOT
BRANCH   4   7
ATOM      7  N   UNL     1      -2.676  -2.659   4.735  0.00  0.00    -0.245 N 
ATOM      8  H   UNL     1      -1.740  -2.913   4.714  0.00  0.00    +0.172 HD
BRANCH   7   9
ATOM      9  C   UNL     1      -3.558  -3.392   5.443  0.00  0.00    +0.147 C 
ATOM     10  S   UNL     1      -3.026  -4.771   6.307  0.00  0.00    -0.017 S 
BRANCH   9  11
ATOM     11  N   UNL     1      -4.858  -3.039   5.472  0.00  0.00    -0.323 N 
ATOM     12  H   UNL     1      -5.159  -2.257   4.983  0.00  0.00    +0.148 HD
BRANCH  11  13
ATOM     13  C   UNL     1      -5.816  -3.835   6.242  0.00  0.00    +0.072 C 
ATOM     14  C   UNL     1      -5.872  -3.331   7.699  0.00  0.00    +0.022 C 
ATOM     15  C   UNL     1      -7.077  -2.358   7.719  0.00  0.00    +0.002 C 
ATOM     16  C   UNL     1      -8.098  -3.059   6.788  0.00  0.00    +0.002 C 
ATOM     17  C   UNL     1      -7.231  -3.662   5.663  0.00  0.00    +0.022 C 
ENDBRANCH  11  13
ENDBRANCH   9  11
ENDBRANCH   7   9
ENDBRANCH   4   7
BRANCH   1  18
ATOM     18  C   UNL     1       0.030  -0.354   2.521  0.00  0.00    +0.171 C 
BRANCH  18  19
ATOM     19  C   UNL     1       1.410  -0.533   3.098  0.00  0.00    -0.020 A 
ATOM     20  C   UNL     1       1.825  -1.782   3.524  0.00  0.00    +0.009 A 
ATOM     21  C   UNL     1       3.090  -1.947   4.053  0.00  0.00    +0.038 A 
ATOM     22  C   UNL     1       3.944  -0.861   4.157  0.00  0.00    +0.123 A 
ATOM     23  C   UNL     1       3.528   0.389   3.731  0.00  0.00    +0.038 A 
ATOM     24  C   UNL     1       2.263   0.550   3.197  0.00  0.00    +0.009 A 
ATOM     25  F   UNL     1       5.181  -1.022   4.675  0.00  0.00    -0.205 F 
ENDBRANCH  18  19
BRANCH  18  31
ATOM     26  C   UNL     1      -0.018   1.461   0.010  0.00  0.00    +0.150 C 
ATOM     27  N   UNL     1       0.002  -0.004   0.002  0.00  0.00    -0.336 N 
ATOM     28  C   UNL     1       0.009  -0.810  -1.104  0.00  0.00    +0.106 A 
ATOM     29  C   UNL     1       0.029  -2.081  -0.660  0.00  0.00    +0.130 A 
ATOM     30  N   UNL     1       0.034  -2.052   0.681  0.00  0.00    -0.238 NA
ATOM     31  C   UNL     1       0.023  -0.811   1.085  0.00  0.00    +0.134 A 
ENDBRANCH  18  31
ENDBRANCH   1  18
TORSDOF 7
