REMARK  Name = ZINC48843971
REMARK  3 active torsions:
REMARK  status: ('A' for Active; 'I' for Inactive)
REMARK    1  A    between atoms: C_4  and  N_10
REMARK    2  A    between atoms: C_6  and  N_9
REMARK    3  A    between atoms: C_16  and  C_19
REMARK                            x       y       z     vdW  Elec       q    Type
REMARK                         _______ _______ _______ _____ _____    ______ ____
ROOT
ATOM      1  N   UNL     1       2.839  -0.445  -2.471  0.00  0.00    -0.298 N 
ATOM      2  C   UNL     1       4.183  -0.551  -2.485  0.00  0.00    +0.302 C 
ATOM      3  O   UNL     1       4.832  -0.169  -1.530  0.00  0.00    -0.253 OA
ATOM      4  N   UNL     1       4.806  -1.080  -3.556  0.00  0.00    -0.286 N 
ATOM      5  C   UNL     1       6.256  -1.313  -3.538  0.00  0.00    +0.110 C 
ATOM      6  C   UNL     1       6.880  -0.631  -4.760  0.00  0.00    +0.034 C 
ATOM      7  C   UNL     1       6.180  -1.125  -6.028  0.00  0.00    +0.105 C 
ATOM      8  C   UNL     1       4.697  -0.751  -5.971  0.00  0.00    +0.034 C 
ATOM      9  C   UNL     1       4.047  -1.440  -4.762  0.00  0.00    +0.110 C 
ATOM     10  H   UNL     1       2.326  -0.681  -3.259  0.00  0.00    +0.150 HD
ENDROOT
BRANCH   1  14
ATOM     11  C   UNL     1      -0.021   1.518   0.013  0.00  0.00    -0.001 C 
ATOM     12  C   UNL     1       1.412   2.052  -0.002  0.00  0.00    +0.002 C 
ATOM     13  C   UNL     1       2.128   1.558  -1.261  0.00  0.00    +0.021 C 
ATOM     14  C   UNL     1       2.154   0.028  -1.266  0.00  0.00    +0.060 C 
ATOM     15  C   UNL     1       0.720  -0.506  -1.251  0.00  0.00    -0.054 C 
ATOM     16  C   UNL     1       0.004  -0.012   0.007  0.00  0.00    -0.014 C 
BRANCH  15  17
ATOM     17  N   UNL     1       0.745  -1.974  -1.256  0.00  0.00    +0.381 N 
ATOM     18  H   UNL     1       1.235  -2.305  -0.439  0.00  0.00    -0.090 HD
ATOM     19  H   UNL     1      -0.201  -2.327  -1.247  0.00  0.00    -0.090 HD
ATOM     20  H   UNL     1       1.217  -2.300  -2.086  0.00  0.00    -0.090 HD
ENDBRANCH  15  17
ENDBRANCH   1  14
BRANCH   7  21
ATOM     21  C   UNL     1       6.814  -0.481  -7.234  0.00  0.00    +0.359 C 
ATOM     22  O   UNL     1       6.997  -1.135  -8.248  0.00  0.00    -0.246 OA
ATOM     23  O   UNL     1       7.143   0.692  -7.197  0.00  0.00    -0.246 OA
ENDBRANCH   7  21
TORSDOF 3
