REMARK  Name = ZINC65507775
REMARK  7 active torsions:
REMARK  status: ('A' for Active; 'I' for Inactive)
REMARK    1  A    between atoms: C_4  and  O_10
REMARK    2  A    between atoms: C_5  and  N_7
REMARK    3  A    between atoms: O_10  and  C_11
REMARK    4  A    between atoms: C_11  and  C_12
REMARK    5  A    between atoms: N_14  and  N_15
REMARK    6  A    between atoms: N_18  and  C_19
REMARK    7  A    between atoms: C_21  and  C_22
REMARK                            x       y       z     vdW  Elec       q    Type
REMARK                         _______ _______ _______ _____ _____    ______ ____
ROOT
ATOM      1  N   UNL     1       8.342  -1.041  -0.088  0.00  0.00    -0.218 N 
ATOM      2  C   UNL     1       9.579  -0.507  -0.098  0.00  0.00    +0.316 C 
ATOM      3  O   UNL     1      10.554  -1.234  -0.112  0.00  0.00    -0.251 OA
ATOM      4  N   UNL     1       9.737   0.831  -0.093  0.00  0.00    -0.295 N 
ATOM      5  H   UNL     1       8.229  -2.004  -0.092  0.00  0.00    +0.174 HD
ATOM      6  H   UNL     1       8.959   1.411  -0.082  0.00  0.00    +0.151 HD
ENDROOT
BRANCH   1   9
ATOM      7  C   UNL     1       5.981  -0.737  -0.062  0.00  0.00    +0.267 C 
ATOM      8  O   UNL     1       5.839  -1.941  -0.067  0.00  0.00    -0.271 OA
ATOM      9  N   UNL     1       7.218  -0.204  -0.072  0.00  0.00    -0.230 N 
ATOM     10  H   UNL     1       7.332   0.760  -0.068  0.00  0.00    +0.173 HD
BRANCH   7  11
ATOM     11  C   UNL     1       4.772   0.164  -0.045  0.00  0.00    +0.326 C 
BRANCH  11  12
ATOM     12  O   UNL     1       3.586  -0.632  -0.037  0.00  0.00    -0.480 OA
BRANCH  12  16
ATOM     13  C   UNL     1      -0.017   1.378   0.010  0.00  0.00    +0.002 A 
ATOM     14  C   UNL     1       1.170   2.088   0.002  0.00  0.00    +0.004 A 
ATOM     15  C   UNL     1       2.377   1.417  -0.013  0.00  0.00    +0.048 A 
ATOM     16  C   UNL     1       2.399   0.030  -0.021  0.00  0.00    +0.151 A 
ATOM     17  C   UNL     1       1.207  -0.680  -0.013  0.00  0.00    +0.168 A 
ATOM     18  C   UNL     1       0.002  -0.004   0.002  0.00  0.00    +0.036 A 
BRANCH  17  19
ATOM     19  N   UNL     1       1.226  -2.160  -0.022  0.00  0.00    +0.060 N 
ATOM     20  O   UNL     1       0.188  -2.778  -0.015  0.00  0.00    -0.126 OA
ATOM     21  O   UNL     1       2.281  -2.750  -0.036  0.00  0.00    -0.126 OA
ENDBRANCH  17  19
ENDBRANCH  12  16
ENDBRANCH  11  12
ENDBRANCH   7  11
ENDBRANCH   1   9
BRANCH   4  22
ATOM     22  C   UNL     1      11.082   1.411  -0.103  0.00  0.00    +0.083 C 
ATOM     23  C   UNL     1      11.332   2.598  -1.036  0.00  0.00    +0.033 C 
ATOM     24  C   UNL     1      11.250   2.817   0.476  0.00  0.00    +0.041 C 
BRANCH  24  25
ATOM     25  C   UNL     1      10.019   3.499   1.014  0.00  0.00    -0.040 A 
ATOM     26  C   UNL     1       8.941   3.736   0.182  0.00  0.00    +0.004 A 
ATOM     27  C   UNL     1       7.811   4.362   0.674  0.00  0.00    +0.003 A 
ATOM     28  C   UNL     1       7.758   4.753   1.999  0.00  0.00    +0.038 A 
ATOM     29  C   UNL     1       8.838   4.516   2.833  0.00  0.00    +0.124 A 
ATOM     30  C   UNL     1       9.966   3.884   2.340  0.00  0.00    +0.042 A 
ATOM     31  F   UNL     1       8.787   4.899   4.128  0.00  0.00    -0.205 F 
ENDBRANCH  24  25
ENDBRANCH   4  22
TORSDOF 7
