REMARK  Name = ZINC46004867
REMARK  6 active torsions:
REMARK  status: ('A' for Active; 'I' for Inactive)
REMARK    1  A    between atoms: C_1  and  C_2
REMARK    2  A    between atoms: C_5  and  N_8
REMARK    3  A    between atoms: C_10  and  C_15
REMARK    4  A    between atoms: N_17  and  C_18
REMARK    5  A    between atoms: C_19  and  N_29
REMARK    6  A    between atoms: N_29  and  C_30
REMARK                            x       y       z     vdW  Elec       q    Type
REMARK                         _______ _______ _______ _____ _____    ______ ____
ROOT
ATOM      1  C   UNL     1      -3.809  -7.747   0.722  0.00  0.00    +0.141 A 
ATOM      2  C   UNL     1      -4.383  -8.983   0.480  0.00  0.00    +0.067 A 
ATOM      3  C   UNL     1      -5.847  -9.092   0.579  0.00  0.00    +0.040 A 
ATOM      4  C   UNL     1      -6.494 -10.308   0.348  0.00  0.00    +0.013 A 
ATOM      5  C   UNL     1      -7.866 -10.379   0.449  0.00  0.00    +0.001 A 
ATOM      6  C   UNL     1      -8.603  -9.251   0.778  0.00  0.00    +0.004 A 
ATOM      7  C   UNL     1      -7.976  -8.044   1.008  0.00  0.00    +0.047 A 
ATOM      8  C   UNL     1      -6.593  -7.951   0.912  0.00  0.00    +0.141 A 
ATOM      9  O   UNL     1      -5.967  -6.776   1.137  0.00  0.00    -0.421 OA
ATOM     10  C   UNL     1      -4.632  -6.656   1.056  0.00  0.00    +0.361 A 
ATOM     11  O   UNL     1      -4.120  -5.571   1.274  0.00  0.00    -0.243 OA
ENDROOT
BRANCH   1  14
ATOM     12  C   UNL     1      -1.889  -6.700  -0.230  0.00  0.00    +0.222 C 
ATOM     13  O   UNL     1      -2.619  -5.982  -0.880  0.00  0.00    -0.275 OA
ATOM     14  N   UNL     1      -2.415  -7.584   0.641  0.00  0.00    -0.278 N 
ATOM     15  H   UNL     1      -1.832  -8.108   1.212  0.00  0.00    +0.155 HD
BRANCH  12  18
ATOM     16  N   UNL     1       0.087  -6.247  -2.718  0.00  0.00    -0.271 N 
ATOM     17  C   UNL     1      -0.022  -5.530  -1.442  0.00  0.00    +0.127 C 
ATOM     18  C   UNL     1      -0.394  -6.605  -0.396  0.00  0.00    +0.102 C 
ATOM     19  C   UNL     1       0.174  -7.888  -1.046  0.00  0.00    +0.110 C 
ATOM     20  C   UNL     1       0.198  -7.573  -2.525  0.00  0.00    +0.221 C 
ATOM     21  O   UNL     1       0.304  -8.396  -3.409  0.00  0.00    -0.275 OA
BRANCH  16  26
ATOM     22  C   UNL     1       0.020  -3.746  -7.809  0.00  0.00    +0.044 C 
ATOM     23  C   UNL     1       0.038  -4.410  -6.457  0.00  0.00    -0.050 A 
ATOM     24  C   UNL     1       0.277  -5.769  -6.359  0.00  0.00    +0.005 A 
ATOM     25  C   UNL     1       0.294  -6.381  -5.120  0.00  0.00    +0.024 A 
ATOM     26  C   UNL     1       0.071  -5.630  -3.974  0.00  0.00    +0.036 A 
ATOM     27  C   UNL     1      -0.169  -4.266  -4.076  0.00  0.00    +0.024 A 
ATOM     28  C   UNL     1      -0.180  -3.659  -5.316  0.00  0.00    +0.005 A 
ENDBRANCH  16  26
ENDBRANCH  12  18
ENDBRANCH   1  14
BRANCH   2  29
ATOM     29  N   UNL     1      -3.606 -10.078   0.154  0.00  0.00    -0.339 N 
ATOM     30  H   UNL     1      -3.049 -10.059  -0.640  0.00  0.00    +0.146 HD
BRANCH  29  31
ATOM     31  C   UNL     1      -3.623 -11.268   1.009  0.00  0.00    +0.070 C 
ATOM     32  C   UNL     1      -2.639 -11.090   2.183  0.00  0.00    +0.022 C 
ATOM     33  C   UNL     1      -2.029 -12.500   2.384  0.00  0.00    +0.002 C 
ATOM     34  C   UNL     1      -1.883 -13.020   0.932  0.00  0.00    +0.002 C 
ATOM     35  C   UNL     1      -3.143 -12.495   0.213  0.00  0.00    +0.022 C 
ENDBRANCH  29  31
ENDBRANCH   2  29
TORSDOF 5
