REMARK  Name = ZINC01432810
REMARK  6 active torsions:
REMARK  status: ('A' for Active; 'I' for Inactive)
REMARK    1  A    between atoms: C_1  and  C_2
REMARK    2  A    between atoms: C_9  and  N_30
REMARK    3  A    between atoms: C_10  and  C_28
REMARK    4  A    between atoms: C_11  and  C_13
REMARK    5  A    between atoms: C_15  and  C_18
REMARK    6  A    between atoms: C_18  and  N_19
REMARK                            x       y       z     vdW  Elec       q    Type
REMARK                         _______ _______ _______ _____ _____    ______ ____
ROOT
ATOM      1  C   UNL     1      -0.018   1.503   0.010  0.00  0.00    +0.068 C 
ATOM      2  C   UNL     1       0.002  -0.004   0.002  0.00  0.00    +0.068 A 
ATOM      3  C   UNL     1       0.008  -0.813  -1.126  0.00  0.00    +0.050 A 
ATOM      4  C   UNL     1       0.028  -2.116  -0.713  0.00  0.00    +0.222 A 
ATOM      5  N   UNL     1       0.033  -2.116   0.629  0.00  0.00    -0.246 N 
ATOM      6  H   UNL     1       0.046  -2.900   1.201  0.00  0.00    +0.192 HD
ATOM      7  N   UNL     1       0.023  -0.780   1.060  0.00  0.00    -0.176 NA
ATOM      8  O   UNL     1       0.042  -3.159  -1.580  0.00  0.00    -0.423 OA
ATOM      9  C   UNL     1       0.311  -2.892  -2.874  0.00  0.00    +0.200 C 
ATOM     10  C   UNL     1       0.309  -1.648  -3.402  0.00  0.00    +0.099 C 
ATOM     11  C   UNL     1      -0.005  -0.421  -2.581  0.00  0.00    +0.108 C 
ENDROOT
BRANCH  11  12
ATOM     12  C   UNL     1      -1.367   0.105  -2.954  0.00  0.00    +0.003 A 
ATOM     13  C   UNL     1      -1.708   1.324  -3.439  0.00  0.00    +0.017 A 
ATOM     14  C   UNL     1      -3.036   1.589  -3.714  0.00  0.00    -0.020 A 
ATOM     15  C   UNL     1      -3.959   0.622  -3.490  0.00  0.00    +0.051 A 
ATOM     16  S   UNL     1      -2.950  -0.718  -2.879  0.00  0.00    -0.100 S 
BRANCH  14  17
ATOM     17  C   UNL     1      -3.452   2.933  -4.254  0.00  0.00    +0.159 C 
BRANCH  17  18
ATOM     18  N   UNL     1      -3.413   2.905  -5.718  0.00  0.00    -0.326 N 
ATOM     19  C   UNL     1      -2.378   3.305  -6.505  0.00  0.00    +0.200 A 
ATOM     20  N   UNL     1      -2.680   3.142  -7.760  0.00  0.00    -0.236 NA
ATOM     21  C   UNL     1      -3.932   2.625  -7.864  0.00  0.00    +0.089 A 
ATOM     22  C   UNL     1      -4.417   2.461  -6.555  0.00  0.00    +0.069 A 
ATOM     23  C   UNL     1      -5.687   1.940  -6.350  0.00  0.00    +0.028 A 
ATOM     24  C   UNL     1      -6.463   1.584  -7.433  0.00  0.00    +0.002 A 
ATOM     25  C   UNL     1      -5.982   1.744  -8.725  0.00  0.00    +0.002 A 
ATOM     26  C   UNL     1      -4.737   2.261  -8.946  0.00  0.00    +0.030 A 
ENDBRANCH  17  18
ENDBRANCH  14  17
ENDBRANCH  11  12
BRANCH   9  27
ATOM     27  N   UNL     1       0.605  -3.945  -3.704  0.00  0.00    -0.328 N 
ATOM     28  H   UNL     1       0.615  -4.850  -3.354  0.00  0.00    +0.145 HD
ATOM     29  H   UNL     1       0.803  -3.785  -4.640  0.00  0.00    +0.145 HD
ENDBRANCH   9  27
BRANCH  10  30
ATOM     30  C   UNL     1       0.616  -1.487  -4.791  0.00  0.00    +0.101 C 
ATOM     31  N   UNL     1       0.860  -1.360  -5.894  0.00  0.00    -0.191 NA
ENDBRANCH  10  30
TORSDOF 5
