REMARK  Name = ZINC45070981
REMARK  8 active torsions:
REMARK  status: ('A' for Active; 'I' for Inactive)
REMARK    1  A    between atoms: C_1  and  C_2
REMARK    2  A    between atoms: C_2  and  O_3
REMARK    3  A    between atoms: O_3  and  C_4
REMARK    4  A    between atoms: N_6  and  N_7
REMARK    5  A    between atoms: N_10  and  C_11
REMARK    6  A    between atoms: C_18  and  C_22
REMARK    7  A    between atoms: C_19  and  C_20
REMARK    8  A    between atoms: C_19  and  C_21
REMARK                            x       y       z     vdW  Elec       q    Type
REMARK                         _______ _______ _______ _____ _____    ______ ____
ROOT
ATOM      1  N   UNL     1       0.814  -2.208  -3.663  0.00  0.00    -0.216 N 
ATOM      2  C   UNL     1       1.433  -2.709  -4.750  0.00  0.00    +0.316 C 
ATOM      3  O   UNL     1       0.890  -2.657  -5.837  0.00  0.00    -0.251 OA
ATOM      4  N   UNL     1       2.654  -3.267  -4.633  0.00  0.00    -0.295 N 
ATOM      5  H   UNL     1      -0.065  -1.806  -3.748  0.00  0.00    +0.174 HD
ATOM      6  H   UNL     1       3.087  -3.308  -3.766  0.00  0.00    +0.151 HD
ENDROOT
BRANCH   4   7
ATOM      7  C   UNL     1       3.327  -3.811  -5.815  0.00  0.00    +0.081 C 
ATOM      8  C   UNL     1       4.858  -3.835  -5.600  0.00  0.00    +0.027 C 
ATOM      9  C   UNL     1       5.246  -5.342  -5.699  0.00  0.00    -0.003 C 
ATOM     10  C   UNL     1       4.675  -5.979  -4.396  0.00  0.00    +0.005 C 
ATOM     11  C   UNL     1       3.142  -5.957  -4.590  0.00  0.00    +0.009 C 
ATOM     12  C   UNL     1       2.933  -5.305  -6.025  0.00  0.00    -0.008 C 
ATOM     13  C   UNL     1       4.210  -5.839  -6.768  0.00  0.00    -0.025 C 
ATOM     14  C   UNL     1       4.411  -5.157  -8.122  0.00  0.00    +0.012 C 
ATOM     15  C   UNL     1       4.204  -7.364  -6.896  0.00  0.00    +0.012 C 
ATOM     16  C   UNL     1       1.583  -5.551  -6.702  0.00  0.00    +0.013 C 
ENDBRANCH   4   7
BRANCH   1  19
ATOM     17  C   UNL     1       0.820  -1.767  -1.324  0.00  0.00    +0.417 C 
ATOM     18  O   UNL     1       1.362  -1.819  -0.238  0.00  0.00    -0.225 OA
ATOM     19  N   UNL     1       1.439  -2.268  -2.411  0.00  0.00    -0.198 N 
ATOM     20  H   UNL     1       2.318  -2.669  -2.326  0.00  0.00    +0.176 HD
BRANCH  17  21
ATOM     21  O   UNL     1      -0.400  -1.209  -1.441  0.00  0.00    -0.450 OA
BRANCH  21  23
ATOM     22  C   UNL     1      -2.370  -0.108  -0.576  0.00  0.00    +0.048 C 
ATOM     23  C   UNL     1      -0.997  -0.699  -0.247  0.00  0.00    +0.230 C 
ENDBRANCH  21  23
ENDBRANCH  17  21
ENDBRANCH   1  19
TORSDOF 4
