REMARK  Name = ZINC12526205
REMARK  8 active torsions:
REMARK  status: ('A' for Active; 'I' for Inactive)
REMARK    1  A    between atoms: C_3  and  C_18
REMARK    2  A    between atoms: C_5  and  N_7
REMARK    3  A    between atoms: N_7  and  S_8
REMARK    4  A    between atoms: S_8  and  C_11
REMARK    5  A    between atoms: N_20  and  C_21
REMARK    6  A    between atoms: C_21  and  C_22
REMARK    7  A    between atoms: C_22  and  C_24
REMARK    8  A    between atoms: C_22  and  N_29
REMARK                            x       y       z     vdW  Elec       q    Type
REMARK                         _______ _______ _______ _____ _____    ______ ____
ROOT
ATOM      1  C   UNL     1       0.011   1.382   0.417  0.00  0.00    +0.003 A 
ATOM      2  C   UNL     1       1.188   2.091   0.286  0.00  0.00    +0.013 A 
ATOM      3  C   UNL     1       2.390   1.414   0.074  0.00  0.00    +0.039 A 
ATOM      4  C   UNL     1       2.397   0.022  -0.005  0.00  0.00    +0.039 A 
ATOM      5  C   UNL     1       1.210  -0.681   0.128  0.00  0.00    +0.075 A 
ATOM      6  C   UNL     1       0.018   0.002   0.339  0.00  0.00    +0.027 A 
ENDROOT
BRANCH   3   7
ATOM      7  C   UNL     1       3.652   2.172  -0.068  0.00  0.00    +0.244 C 
ATOM      8  O   UNL     1       4.698   1.581  -0.252  0.00  0.00    -0.270 OA
ATOM      9  N   UNL     1       3.643   3.517   0.008  0.00  0.00    -0.312 N 
ATOM     10  H   UNL     1       2.808   3.989   0.156  0.00  0.00    +0.149 HD
BRANCH   9  11
ATOM     11  C   UNL     1       4.893   4.268  -0.132  0.00  0.00    +0.097 C 
BRANCH  11  12
ATOM     12  C   UNL     1       4.590   5.767  -0.140  0.00  0.00    +0.016 C 
BRANCH  12  13
ATOM     13  N   UNL     1       5.850   6.522  -0.149  0.00  0.00    +0.387 N 
ATOM     14  C   UNL     1       6.638   6.190   1.058  0.00  0.00    -0.078 C 
ATOM     15  C   UNL     1       7.329   7.517   1.457  0.00  0.00    -0.020 C 
ATOM     16  C   UNL     1       6.227   8.557   1.124  0.00  0.00    -0.020 C 
ATOM     17  C   UNL     1       5.563   7.968  -0.139  0.00  0.00    -0.078 C 
ATOM     18  H   UNL     1       6.382   6.287  -0.974  0.00  0.00    -0.081 HD
ENDBRANCH  12  13
BRANCH  12  19
ATOM     19  C   UNL     1       3.790   6.112  -1.369  0.00  0.00    +0.093 A 
ATOM     20  C   UNL     1       2.458   6.297  -1.415  0.00  0.00    +0.043 A 
ATOM     21  C   UNL     1       2.133   6.600  -2.757  0.00  0.00    +0.041 A 
ATOM     22  C   UNL     1       3.285   6.582  -3.451  0.00  0.00    +0.195 A 
ATOM     23  O   UNL     1       4.286   6.291  -2.605  0.00  0.00    -0.469 OA
ENDBRANCH  12  19
ENDBRANCH  11  12
ENDBRANCH   9  11
ENDBRANCH   3   7
BRANCH   5  24
ATOM     24  N   UNL     1       1.211  -2.076   0.050  0.00  0.00    -0.098 NA
BRANCH  24  25
ATOM     25  S   UNL     1      -0.207  -2.916   0.209  0.00  0.00    +0.092 S 
ATOM     26  O   UNL     1      -0.649  -2.717   1.545  0.00  0.00    -0.148 OA
ATOM     27  O   UNL     1      -1.007  -2.579  -0.916  0.00  0.00    -0.148 OA
BRANCH  25  28
ATOM     28  C   UNL     1       0.181  -4.628   0.056  0.00  0.00    +0.110 A 
ATOM     29  C   UNL     1       0.167  -5.232  -1.187  0.00  0.00    +0.030 A 
ATOM     30  C   UNL     1       0.472  -6.574  -1.307  0.00  0.00    +0.017 A 
ATOM     31  C   UNL     1       0.791  -7.314  -0.183  0.00  0.00    +0.018 A 
ATOM     32  C   UNL     1       0.805  -6.710   1.061  0.00  0.00    +0.017 A 
ATOM     33  C   UNL     1       0.505  -5.366   1.180  0.00  0.00    +0.030 A 
ATOM     34 BR   UNL     1       1.208  -9.151  -0.346  0.00  0.00    -0.050 Br
ENDBRANCH  25  28
ENDBRANCH  24  25
ENDBRANCH   5  24
TORSDOF 8
