REMARK  Name = ZINC09935073
REMARK  4 active torsions:
REMARK  status: ('A' for Active; 'I' for Inactive)
REMARK    1  A    between atoms: C_7  and  C_17
REMARK    2  A    between atoms: C_7  and  O_25
REMARK    3  A    between atoms: N_10  and  C_11
REMARK    4  A    between atoms: C_11  and  N_45
REMARK                            x       y       z     vdW  Elec       q    Type
REMARK                         _______ _______ _______ _____ _____    ______ ____
ROOT
ATOM      1  C   UNL     1       3.635   2.595  -0.633  0.00  0.00    +0.000 A 
ATOM      2  C   UNL     1       3.790   3.326   0.531  0.00  0.00    +0.002 A 
ATOM      3  C   UNL     1       2.750   3.433   1.431  0.00  0.00    +0.024 A 
ATOM      4  C   UNL     1       1.533   2.805   1.172  0.00  0.00    +0.041 A 
ATOM      5  C   UNL     1       1.389   2.075  -0.000  0.00  0.00    +0.016 A 
ATOM      6  C   UNL     1       2.429   1.968  -0.896  0.00  0.00    +0.009 A 
ATOM      7  C   UNL     1      -0.019   1.526   0.010  0.00  0.00    +0.189 C 
ATOM      8  C   UNL     1      -0.605   2.041   1.308  0.00  0.00    +0.256 C 
ATOM      9  O   UNL     1      -1.726   1.838   1.722  0.00  0.00    -0.272 OA
ATOM     10  N   UNL     1       0.351   2.766   1.913  0.00  0.00    -0.285 N 
ENDROOT
BRANCH   7  11
ATOM     11  C   UNL     1       0.002  -0.004   0.002  0.00  0.00    +0.187 C 
ATOM     12  C   UNL     1      -1.409  -0.580   0.012  0.00  0.00    +0.255 C 
ATOM     13  O   UNL     1      -2.191  -0.398   0.925  0.00  0.00    -0.272 OA
ATOM     14  N   UNL     1      -1.704  -1.286  -1.047  0.00  0.00    -0.159 NA
ATOM     15  C   UNL     1      -0.873  -1.500  -2.054  0.00  0.00    +0.145 C 
ATOM     16  S   UNL     1       0.580  -0.658  -1.614  0.00  0.00    -0.077 S 
ATOM     17  N   UNL     1      -1.107  -2.222  -3.188  0.00  0.00    -0.340 N 
ATOM     18  H   UNL     1      -1.967  -2.650  -3.321  0.00  0.00    +0.144 HD
ATOM     19  H   UNL     1      -0.413  -2.308  -3.860  0.00  0.00    +0.144 HD
ENDBRANCH   7  11
BRANCH   7  20
ATOM     20  O   UNL     1      -0.757   2.021  -1.108  0.00  0.00    -0.373 OA
ATOM     21  H   UNL     1      -0.803   2.986  -1.153  0.00  0.00    +0.211 HD
ENDBRANCH   7  20
BRANCH  10  22
ATOM     22  C   UNL     1       0.173   3.438   3.203  0.00  0.00    +0.038 C 
BRANCH  22  28
ATOM     23  C   UNL     1       0.756   5.713   2.619  0.00  0.00    -0.077 C 
ATOM     24  C   UNL     1       0.175   7.082   2.255  0.00  0.00    -0.019 C 
ATOM     25  C   UNL     1      -0.605   7.635   3.450  0.00  0.00    -0.004 C 
ATOM     26  C   UNL     1      -1.703   6.640   3.837  0.00  0.00    -0.019 C 
ATOM     27  C   UNL     1      -1.068   5.285   4.156  0.00  0.00    -0.077 C 
ATOM     28  N   UNL     1      -0.353   4.796   2.958  0.00  0.00    +0.390 N 
ATOM     29  H   UNL     1      -1.009   4.762   2.169  0.00  0.00    -0.080 HD
ENDBRANCH  22  28
ENDBRANCH  10  22
TORSDOF 4
