REMARK  Name = ZINC40517082
REMARK  2 active torsions:
REMARK  status: ('A' for Active; 'I' for Inactive)
REMARK    1  A    between atoms: C_1  and  C_2
REMARK    2  A    between atoms: C_2  and  C_3
REMARK                            x       y       z     vdW  Elec       q    Type
REMARK                         _______ _______ _______ _____ _____    ______ ____
ROOT
ATOM      1  C   UNL     1       0.707  -0.490  -1.238  0.00  0.00    -0.008 A 
ATOM      2  C   UNL     1       2.013  -0.753  -1.401  0.00  0.00    +0.025 A 
ATOM      3  C   UNL     1       2.486  -1.217  -2.693  0.00  0.00    +0.052 A 
ATOM      4  C   UNL     1       3.801  -1.557  -3.111  0.00  0.00    +0.165 A 
ATOM      5  N   UNL     1       3.998  -1.960  -4.354  0.00  0.00    -0.216 NA
ATOM      6  C   UNL     1       3.012  -2.059  -5.228  0.00  0.00    +0.224 A 
ATOM      7  N   UNL     1       1.770  -1.757  -4.900  0.00  0.00    -0.228 NA
ATOM      8  C   UNL     1       1.484  -1.347  -3.682  0.00  0.00    +0.114 A 
ATOM      9  S   UNL     1       0.004  -0.859  -2.834  0.00  0.00    -0.074 S 
ATOM     10  N   UNL     1       4.868  -1.467  -2.222  0.00  0.00    -0.218 N 
ATOM     11  C   UNL     1       6.033  -2.166  -2.296  0.00  0.00    +0.133 A 
ATOM     12  C   UNL     1       6.804  -1.793  -1.250  0.00  0.00    +0.077 A 
ATOM     13  C   UNL     1       6.091  -0.833  -0.508  0.00  0.00    +0.153 A 
ATOM     14  N   UNL     1       4.935  -0.636  -1.096  0.00  0.00    -0.149 NA
ATOM     15  N   UNL     1       6.540  -0.195   0.652  0.00  0.00    -0.341 N 
ATOM     16 BR   UNL     1       8.534  -2.445  -0.854  0.00  0.00    -0.045 Br
ATOM     17  H   UNL     1       7.417  -0.403   1.012  0.00  0.00    +0.144 HD
ATOM     18  H   UNL     1       5.976   0.457   1.097  0.00  0.00    +0.144 HD
ENDROOT
BRANCH   1  20
ATOM     19  C   UNL     1      -0.019   1.526   0.010  0.00  0.00    +0.009 C 
ATOM     20  C   UNL     1       0.002  -0.004   0.002  0.00  0.00    +0.039 C 
ENDBRANCH   1  20
TORSDOF 1
