REMARK  Name = ZINC34112396
REMARK  10 active torsions:
REMARK  status: ('A' for Active; 'I' for Inactive)
REMARK    1  A    between atoms: C_1  and  N_2
REMARK    2  A    between atoms: C_6  and  C_7
REMARK    3  A    between atoms: C_10  and  O_15
REMARK    4  A    between atoms: C_11  and  O_13
REMARK    5  A    between atoms: O_13  and  C_14
REMARK    6  A    between atoms: O_15  and  C_16
REMARK    7  A    between atoms: C_16  and  C_17
REMARK    8  A    between atoms: C_22  and  C_23
REMARK    9  A    between atoms: N_27  and  C_28
REMARK   10  A    between atoms: C_31  and  C_34
REMARK                            x       y       z     vdW  Elec       q    Type
REMARK                         _______ _______ _______ _____ _____    ______ ____
ROOT
ATOM      1  C   UNL     1      -0.599   1.483  -0.137  0.00  0.00    +0.140 C 
ATOM      2  N   UNL     1      -0.571   0.018  -0.121  0.00  0.00    -0.249 N 
ATOM      3  C   UNL     1      -0.258  -0.642  -1.223  0.00  0.00    +0.259 C 
ATOM      4  O   UNL     1       0.011  -0.061  -2.258  0.00  0.00    -0.269 OA
ATOM      5  C   UNL     1      -0.247  -2.115  -1.139  0.00  0.00    +0.078 C 
ATOM      6  C   UNL     1       0.034  -3.030  -2.102  0.00  0.00    +0.028 C 
ATOM      7  S   UNL     1      -0.705  -2.369   0.569  0.00  0.00    -0.049 S 
ATOM      8  C   UNL     1      -0.866  -0.655   1.042  0.00  0.00    +0.168 C 
ATOM      9  N   UNL     1      -1.190  -0.157   2.218  0.00  0.00    -0.226 NA
ENDROOT
BRANCH   6  10
ATOM     10  C   UNL     1       0.153  -4.451  -1.751  0.00  0.00    -0.020 A 
ATOM     11  C   UNL     1       0.151  -4.846  -0.408  0.00  0.00    +0.012 A 
ATOM     12  C   UNL     1       0.263  -6.179  -0.082  0.00  0.00    +0.050 A 
ATOM     13  C   UNL     1       0.377  -7.135  -1.083  0.00  0.00    +0.162 A 
ATOM     14  C   UNL     1       0.379  -6.751  -2.423  0.00  0.00    +0.162 A 
ATOM     15  C   UNL     1       0.262  -5.417  -2.760  0.00  0.00    +0.057 A 
BRANCH  14  16
ATOM     16  O   UNL     1       0.491  -7.691  -3.400  0.00  0.00    -0.491 OA
ATOM     17  C   UNL     1       0.486  -7.226  -4.751  0.00  0.00    +0.277 C 
ENDBRANCH  14  16
BRANCH  13  18
ATOM     18  O   UNL     1       0.487  -8.449  -0.755  0.00  0.00    -0.484 OA
BRANCH  18  19
ATOM     19  C   UNL     1       0.478  -8.773   0.637  0.00  0.00    +0.266 C 
BRANCH  19  20
ATOM     20  C   UNL     1       0.609 -10.265   0.806  0.00  0.00    +0.007 A 
ATOM     21  C   UNL     1       0.719 -11.079  -0.302  0.00  0.00    +0.008 A 
ATOM     22  C   UNL     1       0.839 -12.449  -0.149  0.00  0.00    +0.000 A 
ATOM     23  C   UNL     1       0.849 -13.012   1.115  0.00  0.00    +0.001 A 
ATOM     24  C   UNL     1       0.740 -12.210   2.232  0.00  0.00    +0.019 A 
ATOM     25  C   UNL     1       0.625 -10.826   2.084  0.00  0.00    +0.058 A 
BRANCH  25  26
ATOM     26  C   UNL     1       0.517  -9.986   3.239  0.00  0.00    +0.100 C 
ATOM     27  N   UNL     1       0.432  -9.320   4.155  0.00  0.00    -0.191 NA
ENDBRANCH  25  26
ENDBRANCH  19  20
ENDBRANCH  18  19
ENDBRANCH  13  18
ENDBRANCH   6  10
BRANCH   9  28
ATOM     28  C   UNL     1      -1.450  -0.991   3.262  0.00  0.00    +0.067 A 
ATOM     29  C   UNL     1      -2.259  -2.119   3.073  0.00  0.00    +0.028 A 
ATOM     30  C   UNL     1      -2.519  -2.954   4.119  0.00  0.00    +0.017 A 
ATOM     31  C   UNL     1      -1.977  -2.684   5.383  0.00  0.00    +0.063 A 
ATOM     32  C   UNL     1      -1.168  -1.556   5.572  0.00  0.00    +0.017 A 
ATOM     33  C   UNL     1      -0.903  -0.724   4.525  0.00  0.00    +0.028 A 
BRANCH  31  34
ATOM     34  C   UNL     1      -2.258  -3.584   6.510  0.00  0.00    +0.387 C 
ATOM     35  O   UNL     1      -2.965  -4.569   6.345  0.00  0.00    -0.241 OA
ATOM     36  O   UNL     1      -1.784  -3.348   7.614  0.00  0.00    -0.241 OA
ENDBRANCH  31  34
ENDBRANCH   9  28
TORSDOF 8
