REMARK  Name = ZINC12479424
REMARK  14 active torsions:
REMARK  status: ('A' for Active; 'I' for Inactive)
REMARK    1  A    between atoms: C_1  and  C_2
REMARK    2  A    between atoms: C_5  and  C_8
REMARK    3  A    between atoms: C_8  and  C_10
REMARK    4  A    between atoms: C_8  and  N_18
REMARK    5  A    between atoms: N_12  and  C_13
REMARK    6  A    between atoms: C_13  and  C_14
REMARK    7  A    between atoms: C_14  and  C_15
REMARK    8  A    between atoms: C_15  and  C_16
REMARK    9  A    between atoms: C_15  and  C_17
REMARK   10  A    between atoms: N_18  and  C_19
REMARK   11  A    between atoms: C_19  and  C_20
REMARK   12  A    between atoms: C_26  and  C_28
REMARK   13  A    between atoms: C_29  and  N_36
REMARK   14  A    between atoms: C_30  and  C_33
REMARK                            x       y       z     vdW  Elec       q    Type
REMARK                         _______ _______ _______ _____ _____    ______ ____
ROOT
ATOM      1  N   UNL     1       4.582  -0.040  -2.086  0.00  0.00    -0.277 N 
ATOM      2  C   UNL     1       4.743  -1.025  -1.181  0.00  0.00    +0.258 C 
ATOM      3  O   UNL     1       4.675  -2.189  -1.530  0.00  0.00    -0.269 OA
ENDROOT
BRANCH   2   4
ATOM      4  C   UNL     1       4.999  -0.695   0.222  0.00  0.00    +0.115 A 
ATOM      5  C   UNL     1       6.203  -0.368   0.849  0.00  0.00    +0.076 A 
ATOM      6  C   UNL     1       6.044  -0.112   2.211  0.00  0.00    +0.155 A 
ATOM      7  N   UNL     1       4.847  -0.206   2.748  0.00  0.00    -0.203 NA
ATOM      8  S   UNL     1       3.860  -0.611   1.588  0.00  0.00    +0.019 S 
BRANCH   6   9
ATOM      9  C   UNL     1       7.206   0.256   3.041  0.00  0.00    +0.262 C 
ATOM     10  O   UNL     1       8.309   0.341   2.538  0.00  0.00    -0.269 OA
ATOM     11  N   UNL     1       7.044   0.497   4.357  0.00  0.00    -0.324 N 
ATOM     12  H   UNL     1       6.164   0.429   4.758  0.00  0.00    +0.145 HD
ATOM     13  H   UNL     1       7.809   0.739   4.903  0.00  0.00    +0.145 HD
ENDBRANCH   6   9
BRANCH   5  14
ATOM     14  N   UNL     1       7.423  -0.303   0.190  0.00  0.00    -0.355 N 
ATOM     15  H   UNL     1       7.471  -0.490  -0.761  0.00  0.00    +0.142 HD
ATOM     16  H   UNL     1       8.227  -0.070   0.679  0.00  0.00    +0.142 HD
ENDBRANCH   5  14
ENDBRANCH   2   4
BRANCH   1  17
ATOM     17  C   UNL     1       4.168  -0.362  -3.454  0.00  0.00    +0.193 C 
BRANCH  17  22
ATOM     18  C   UNL     1      -1.592  -0.771  -3.675  0.00  0.00    +0.044 C 
ATOM     19  C   UNL     1      -0.090  -0.664  -3.618  0.00  0.00    -0.050 A 
ATOM     20  C   UNL     1       0.695  -1.657  -4.174  0.00  0.00    +0.004 A 
ATOM     21  C   UNL     1       2.073  -1.559  -4.121  0.00  0.00    +0.006 A 
ATOM     22  C   UNL     1       2.666  -0.469  -3.512  0.00  0.00    -0.018 A 
ATOM     23  C   UNL     1       1.881   0.521  -2.951  0.00  0.00    +0.006 A 
ATOM     24  C   UNL     1       0.503   0.426  -3.008  0.00  0.00    +0.004 A 
ENDBRANCH  17  22
BRANCH  17  25
ATOM     25  C   UNL     1       4.631   0.726  -4.389  0.00  0.00    +0.238 C 
ATOM     26  O   UNL     1       5.121   1.741  -3.942  0.00  0.00    -0.273 OA
ATOM     27  N   UNL     1       4.500   0.570  -5.721  0.00  0.00    -0.313 N 
ATOM     28  H   UNL     1       4.108  -0.242  -6.078  0.00  0.00    +0.149 HD
BRANCH  27  29
ATOM     29  C   UNL     1       4.950   1.627  -6.630  0.00  0.00    +0.104 C 
BRANCH  29  30
ATOM     30  C   UNL     1       4.689   1.202  -8.076  0.00  0.00    +0.022 C 
BRANCH  30  31
ATOM     31  C   UNL     1       5.159   2.306  -9.025  0.00  0.00    -0.016 C 
ATOM     32  C   UNL     1       6.678   2.460  -8.916  0.00  0.00    +0.007 C 
ATOM     33  C   UNL     1       4.786   1.937 -10.462  0.00  0.00    +0.007 C 
ENDBRANCH  30  31
ENDBRANCH  29  30
ENDBRANCH  27  29
ENDBRANCH  17  25
ENDBRANCH   1  17
BRANCH   1  34
ATOM     34  C   UNL     1       4.822   1.354  -1.703  0.00  0.00    +0.144 C 
BRANCH  34  35
ATOM     35  C   UNL     1       6.298   1.571  -1.494  0.00  0.00    -0.030 A 
ATOM     36  C   UNL     1       7.203   1.127  -2.440  0.00  0.00    +0.005 A 
ATOM     37  C   UNL     1       8.557   1.325  -2.248  0.00  0.00    +0.000 A 
ATOM     38  C   UNL     1       9.007   1.968  -1.110  0.00  0.00    +0.000 A 
ATOM     39  C   UNL     1       8.102   2.413  -0.164  0.00  0.00    +0.000 A 
ATOM     40  C   UNL     1       6.748   2.214  -0.356  0.00  0.00    +0.005 A 
ENDBRANCH  34  35
ENDBRANCH   1  34
TORSDOF 11
