REMARK  Name = ZINC19965353
REMARK  8 active torsions:
REMARK  status: ('A' for Active; 'I' for Inactive)
REMARK    1  A    between atoms: C_1  and  C_2
REMARK    2  A    between atoms: C_10  and  O_13
REMARK    3  A    between atoms: O_13  and  C_14
REMARK    4  A    between atoms: C_14  and  C_15
REMARK    5  A    between atoms: N_17  and  C_18
REMARK    6  A    between atoms: C_18  and  C_19
REMARK    7  A    between atoms: C_18  and  C_20
REMARK    8  A    between atoms: C_18  and  C_21
REMARK                            x       y       z     vdW  Elec       q    Type
REMARK                         _______ _______ _______ _____ _____    ______ ____
ROOT
ATOM      1  C   UNL     1       1.162  -4.844  -0.280  0.00  0.00    +0.028 C 
ATOM      2  C   UNL     1      -0.168  -4.113  -0.467  0.00  0.00    +0.068 C 
ATOM      3  C   UNL     1      -1.258  -4.806   0.360  0.00  0.00    +0.026 C 
ATOM      4  C   UNL     1      -2.603  -4.175  -0.008  0.00  0.00    +0.039 C 
ATOM      5  C   UNL     1      -2.479  -2.672   0.009  0.00  0.00    -0.023 A 
ATOM      6  C   UNL     1      -3.646  -1.920   0.028  0.00  0.00    +0.005 A 
ATOM      7  C   UNL     1      -3.592  -0.541   0.036  0.00  0.00    +0.004 A 
ATOM      8  C   UNL     1      -2.368   0.102   0.031  0.00  0.00    +0.047 A 
ATOM      9  C   UNL     1      -1.201  -0.638   0.010  0.00  0.00    +0.142 A 
ATOM     10  C   UNL     1      -1.252  -2.037   0.003  0.00  0.00    +0.073 A 
ATOM     11  N   UNL     1      -0.038  -2.730  -0.004  0.00  0.00    -0.338 N 
ATOM     12  H   UNL     1       0.946  -2.340   0.293  0.00  0.00    +0.146 HD
ENDROOT
BRANCH   9  13
ATOM     13  O   UNL     1       0.002  -0.004   0.002  0.00  0.00    -0.481 OA
BRANCH  13  14
ATOM     14  C   UNL     1      -0.017   1.425   0.010  0.00  0.00    +0.324 C 
BRANCH  14  15
ATOM     15  C   UNL     1       1.397   1.946  -0.001  0.00  0.00    +0.251 C 
ATOM     16  O   UNL     1       2.329   1.171  -0.014  0.00  0.00    -0.272 OA
ATOM     17  N   UNL     1       1.625   3.275   0.004  0.00  0.00    -0.308 N 
ATOM     18  H   UNL     1       0.779   3.978   0.016  0.00  0.00    +0.149 HD
BRANCH  17  19
ATOM     19  C   UNL     1       2.999   3.782  -0.006  0.00  0.00    +0.026 C 
ATOM     20  C   UNL     1       3.715   3.288  -1.265  0.00  0.00    +0.031 C 
ATOM     21  C   UNL     1       2.978   5.312   0.002  0.00  0.00    +0.031 C 
ATOM     22  C   UNL     1       3.739   3.275   1.233  0.00  0.00    +0.031 C 
ENDBRANCH  17  19
ENDBRANCH  14  15
ENDBRANCH  13  14
ENDBRANCH   9  13
TORSDOF 4
