REMARK  Name = ZINC04518201
REMARK  3 active torsions:
REMARK  status: ('A' for Active; 'I' for Inactive)
REMARK    1  A    between atoms: C_6  and  N_7
REMARK    2  A    between atoms: N_7  and  C_8
REMARK    3  A    between atoms: C_8  and  C_9
REMARK                            x       y       z     vdW  Elec       q    Type
REMARK                         _______ _______ _______ _____ _____    ______ ____
ROOT
ATOM      1  C   UNL     1      -1.178  -2.185   0.002  0.00  0.00    +0.178 C 
ENDROOT
BRANCH   1   2
ATOM      2  C   UNL     1      -2.591  -2.708   0.013  0.00  0.00    +0.151 A 
ATOM      3  N   UNL     1      -3.311  -2.978   1.071  0.00  0.00    -0.133 NA
ATOM      4  N   UNL     1      -4.473  -3.397   0.709  0.00  0.00    -0.134 NA
ATOM      5  C   UNL     1      -4.546  -3.410  -0.591  0.00  0.00    +0.133 A 
ATOM      6  N   UNL     1      -3.354  -2.981  -1.068  0.00  0.00    -0.314 N 
ATOM      7  C   UNL     1      -2.973  -2.857  -2.475  0.00  0.00    +0.125 C 
ATOM      8  C   UNL     1      -4.222  -2.593  -3.320  0.00  0.00    +0.022 C 
ATOM      9  C   UNL     1      -4.835  -3.921  -3.761  0.00  0.00    +0.002 C 
ATOM     10  C   UNL     1      -5.260  -4.744  -2.549  0.00  0.00    +0.008 C 
ATOM     11  C   UNL     1      -5.729  -3.813  -1.433  0.00  0.00    +0.076 C 
ENDBRANCH   1   2
BRANCH   1  12
ATOM     12  N   UNL     1      -1.199  -0.721   0.010  0.00  0.00    -0.337 N 
ATOM     13  H   UNL     1      -2.045  -0.248   0.021  0.00  0.00    +0.147 HD
BRANCH  12  19
ATOM     14  C   UNL     1      -0.017   1.384   0.010  0.00  0.00    +0.026 A 
ATOM     15  C   UNL     1       1.171   2.091   0.002  0.00  0.00    +0.041 A 
ATOM     16  C   UNL     1       2.379   1.416  -0.013  0.00  0.00    +0.142 A 
ATOM     17  C   UNL     1       2.401   0.030  -0.022  0.00  0.00    +0.078 A 
ATOM     18  C   UNL     1       1.215  -0.680  -0.014  0.00  0.00    +0.045 A 
ATOM     19  C   UNL     1       0.002  -0.004   0.002  0.00  0.00    +0.029 A 
ATOM     20 CL   UNL     1       3.918  -0.814  -0.042  0.00  0.00    -0.081 Cl
ATOM     21  F   UNL     1       3.538   2.109  -0.021  0.00  0.00    -0.204 F 
ENDBRANCH  12  19
ENDBRANCH   1  12
TORSDOF 3
