REMARK  Name = ZINC59456822
REMARK  7 active torsions:
REMARK  status: ('A' for Active; 'I' for Inactive)
REMARK    1  A    between atoms: C_1  and  C_2
REMARK    2  A    between atoms: C_2  and  C_3
REMARK    3  A    between atoms: C_3  and  C_5
REMARK    4  A    between atoms: C_3  and  S_19
REMARK    5  A    between atoms: N_7  and  C_8
REMARK    6  A    between atoms: C_9  and  C_17
REMARK    7  A    between atoms: S_19  and  C_20
REMARK                            x       y       z     vdW  Elec       q    Type
REMARK                         _______ _______ _______ _____ _____    ______ ____
ROOT
ATOM      1  C   UNL     1      -1.425  -0.537   0.140  0.00  0.00    +0.140 C 
ENDROOT
BRANCH   1   2
ATOM      2  C   UNL     1      -1.241  -2.032   0.206  0.00  0.00    +0.231 C 
ATOM      3  O   UNL     1      -1.208  -2.592   1.281  0.00  0.00    -0.274 OA
ATOM      4  N   UNL     1      -1.112  -2.745  -0.930  0.00  0.00    -0.278 N 
ATOM      5  H   UNL     1      -1.139  -2.297  -1.790  0.00  0.00    +0.155 HD
BRANCH   4   6
ATOM      6  C   UNL     1      -0.942  -4.122  -0.870  0.00  0.00    +0.090 A 
ATOM      7  C   UNL     1      -0.789  -5.008  -1.923  0.00  0.00    +0.084 A 
ATOM      8  C   UNL     1      -0.626  -6.412  -1.592  0.00  0.00    -0.018 A 
ATOM      9  C   UNL     1      -0.646  -6.673  -0.267  0.00  0.00    -0.004 A 
ATOM     10  S   UNL     1      -0.868  -5.093   0.498  0.00  0.00    -0.077 S 
ATOM     11  C   UNL     1      -0.506  -8.012   0.388  0.00  0.00    +0.043 C 
ATOM     12  C   UNL     1      -0.713  -9.096  -0.680  0.00  0.00    +0.005 C 
ATOM     13  C   UNL     1       0.136  -8.750  -1.907  0.00  0.00    +0.005 C 
ATOM     14  C   UNL     1      -0.445  -7.524  -2.615  0.00  0.00    +0.037 C 
BRANCH   7  15
ATOM     15  C   UNL     1      -0.793  -4.557  -3.283  0.00  0.00    +0.102 C 
ATOM     16  N   UNL     1      -0.795  -4.200  -4.361  0.00  0.00    -0.191 NA
ENDBRANCH   7  15
ENDBRANCH   4   6
ENDBRANCH   1   2
BRANCH   1  18
ATOM     17  C   UNL     1      -0.272   1.637  -0.288  0.00  0.00    +0.005 C 
ATOM     18  C   UNL     1      -0.069   0.135  -0.083  0.00  0.00    +0.020 C 
ENDBRANCH   1  18
BRANCH   1  19
ATOM     19  S   UNL     1      -2.143   0.052   1.699  0.00  0.00    -0.071 S 
BRANCH  19  20
ATOM     20  C   UNL     1      -3.766  -0.634   1.707  0.00  0.00    +0.214 A 
ATOM     21  N   UNL     1      -4.326  -1.320   0.738  0.00  0.00    -0.119 NA
ATOM     22  N   UNL     1      -5.517  -1.673   1.070  0.00  0.00    -0.106 NA
ATOM     23  C   UNL     1      -5.794  -1.229   2.285  0.00  0.00    +0.275 A 
ATOM     24  N   UNL     1      -4.671  -0.556   2.724  0.00  0.00    -0.170 N 
ATOM     25  N   UNL     1      -4.648   0.032   3.993  0.00  0.00    -0.158 NA
ATOM     26  C   UNL     1      -5.709  -0.072   4.756  0.00  0.00    +0.136 A 
ATOM     27  C   UNL     1      -6.059   0.396   6.110  0.00  0.00    +0.029 A 
ATOM     28  C   UNL     1      -5.369   1.128   7.073  0.00  0.00    +0.012 A 
ATOM     29  C   UNL     1      -5.973   1.420   8.277  0.00  0.00    +0.001 A 
ATOM     30  C   UNL     1      -7.264   0.986   8.531  0.00  0.00    +0.002 A 
ATOM     31  C   UNL     1      -7.958   0.260   7.586  0.00  0.00    +0.026 A 
ATOM     32  C   UNL     1      -7.366  -0.044   6.363  0.00  0.00    +0.050 A 
ATOM     33  N   UNL     1      -7.839  -0.746   5.264  0.00  0.00    -0.338 N 
ATOM     34  H   UNL     1      -8.720  -1.147   5.205  0.00  0.00    +0.167 HD
ATOM     35  C   UNL     1      -6.891  -0.796   4.269  0.00  0.00    +0.163 A 
ATOM     36  N   UNL     1      -6.877  -1.329   3.064  0.00  0.00    -0.190 NA
ENDBRANCH  19  20
ENDBRANCH   1  19
TORSDOF 6
