REMARK  Name = ZINC05965378
REMARK  8 active torsions:
REMARK  status: ('A' for Active; 'I' for Inactive)
REMARK    1  A    between atoms: C_1  and  C_2
REMARK    2  A    between atoms: C_2  and  C_3
REMARK    3  A    between atoms: C_3  and  O_4
REMARK    4  A    between atoms: O_4  and  C_5
REMARK    5  A    between atoms: C_8  and  C_11
REMARK    6  A    between atoms: C_18  and  N_30
REMARK    7  A    between atoms: C_19  and  C_28
REMARK    8  A    between atoms: C_20  and  C_22
REMARK                            x       y       z     vdW  Elec       q    Type
REMARK                         _______ _______ _______ _____ _____    ______ ____
ROOT
ATOM      1  C   UNL     1       3.616  -4.713   5.710  0.00  0.00    +0.100 A 
ATOM      2  C   UNL     1       2.981  -5.814   6.293  0.00  0.00    +0.054 A 
ATOM      3  C   UNL     1       3.748  -6.238   7.340  0.00  0.00    +0.223 A 
ATOM      4  N   UNL     1       4.828  -5.433   7.410  0.00  0.00    -0.246 N 
ATOM      5  H   UNL     1       5.548  -5.499   8.058  0.00  0.00    +0.192 HD
ATOM      6  N   UNL     1       4.731  -4.486   6.379  0.00  0.00    -0.171 NA
ATOM      7  O   UNL     1       3.404  -7.294   8.118  0.00  0.00    -0.423 OA
ATOM      8  C   UNL     1       2.143  -7.761   8.016  0.00  0.00    +0.200 C 
ATOM      9  C   UNL     1       1.295  -7.424   7.019  0.00  0.00    +0.098 C 
ATOM     10  C   UNL     1       1.687  -6.482   5.908  0.00  0.00    +0.103 C 
ENDROOT
BRANCH   1  14
ATOM     11  C   UNL     1       2.211  -2.496   2.362  0.00  0.00    +0.121 A 
ATOM     12  C   UNL     1       1.323  -2.895   3.351  0.00  0.00    +0.046 A 
ATOM     13  C   UNL     1       1.775  -3.613   4.438  0.00  0.00    +0.013 A 
ATOM     14  C   UNL     1       3.126  -3.940   4.542  0.00  0.00    +0.003 A 
ATOM     15  C   UNL     1       4.015  -3.539   3.547  0.00  0.00    +0.013 A 
ATOM     16  C   UNL     1       3.556  -2.825   2.460  0.00  0.00    +0.046 A 
BRANCH  11  17
ATOM     17  O   UNL     1       1.762  -1.788   1.292  0.00  0.00    -0.492 OA
BRANCH  17  18
ATOM     18  C   UNL     1       0.366  -1.485   1.255  0.00  0.00    +0.229 C 
BRANCH  18  20
ATOM     19  C   UNL     1      -1.443  -0.364  -0.054  0.00  0.00    +0.007 C 
ATOM     20  C   UNL     1       0.052  -0.689  -0.013  0.00  0.00    +0.038 C 
ENDBRANCH  18  20
ENDBRANCH  17  18
ENDBRANCH  11  17
ENDBRANCH   1  14
BRANCH  10  21
ATOM     21  C   UNL     1       1.875  -7.256   4.629  0.00  0.00    -0.016 A 
ATOM     22  C   UNL     1       1.067  -7.004   3.531  0.00  0.00    +0.007 A 
ATOM     23  C   UNL     1       1.276  -7.740   2.375  0.00  0.00    +0.020 A 
ATOM     24  C   UNL     1       2.276  -8.694   2.355  0.00  0.00    +0.111 A 
ATOM     25  N   UNL     1       3.026  -8.907   3.419  0.00  0.00    -0.263 NA
ATOM     26  C   UNL     1       2.860  -8.221   4.533  0.00  0.00    +0.115 A 
ENDBRANCH  10  21
BRANCH   8  27
ATOM     27  N   UNL     1       1.695  -8.629   8.981  0.00  0.00    -0.328 N 
ATOM     28  H   UNL     1       2.281  -8.890   9.709  0.00  0.00    +0.145 HD
ATOM     29  H   UNL     1       0.793  -8.982   8.934  0.00  0.00    +0.145 HD
ENDBRANCH   8  27
BRANCH   9  30
ATOM     30  C   UNL     1      -0.024  -7.982   7.018  0.00  0.00    +0.101 C 
ATOM     31  N   UNL     1      -1.070  -8.424   7.017  0.00  0.00    -0.191 NA
ENDBRANCH   9  30
TORSDOF 7
