REMARK  Name = ZINC04937118
REMARK  13 active torsions:
REMARK  status: ('A' for Active; 'I' for Inactive)
REMARK    1  A    between atoms: C_1  and  C_2
REMARK    2  A    between atoms: C_7  and  C_24
REMARK    3  A    between atoms: C_10  and  C_11
REMARK    4  A    between atoms: N_12  and  C_13
REMARK    5  A    between atoms: C_13  and  C_14
REMARK    6  A    between atoms: C_14  and  N_15
REMARK    7  A    between atoms: N_15  and  C_16
REMARK    8  A    between atoms: C_16  and  N_18
REMARK    9  A    between atoms: N_18  and  C_19
REMARK   10  A    between atoms: C_19  and  C_20
REMARK   11  A    between atoms: C_20  and  C_21
REMARK   12  A    between atoms: C_21  and  O_22
REMARK   13  A    between atoms: O_22  and  C_23
REMARK                            x       y       z     vdW  Elec       q    Type
REMARK                         _______ _______ _______ _____ _____    ______ ____
ROOT
ATOM      1  C   UNL     1       2.306  -4.244  -0.501  0.00  0.00    +0.044 C 
ATOM      2  C   UNL     1       2.323  -2.758  -0.253  0.00  0.00    -0.046 A 
ATOM      3  C   UNL     1       3.541  -2.110  -0.056  0.00  0.00    +0.004 A 
ATOM      4  C   UNL     1       3.588  -0.768   0.170  0.00  0.00    +0.010 A 
ATOM      5  C   UNL     1       2.395  -0.026   0.205  0.00  0.00    -0.000 A 
ATOM      6  C   UNL     1       2.409   1.361   0.437  0.00  0.00    +0.032 A 
ATOM      7  C   UNL     1       1.194   2.033   0.459  0.00  0.00    +0.090 A 
ATOM      8  C   UNL     1      -0.004   1.308   0.251  0.00  0.00    +0.114 A 
ATOM      9  C   UNL     1       1.155  -0.684   0.006  0.00  0.00    +0.051 A 
ATOM     10  C   UNL     1       1.149  -2.070  -0.225  0.00  0.00    -0.024 A 
ATOM     11  C   UNL     1      -0.156  -2.793  -0.441  0.00  0.00    +0.046 C 
ATOM     12  N   UNL     1      -1.213   1.978   0.268  0.00  0.00    -0.328 N 
ATOM     13  H   UNL     1      -1.235   2.935   0.424  0.00  0.00    +0.147 HD
ATOM     14  N   UNL     1      -0.058  -0.028   0.026  0.00  0.00    -0.342 N 
ATOM     15  H   UNL     1      -0.947  -0.521  -0.121  0.00  0.00    +0.167 HD
ENDROOT
BRANCH   7  16
ATOM     16  C   UNL     1       1.153   3.445   0.689  0.00  0.00    +0.103 C 
ATOM     17  N   UNL     1       1.121   4.566   0.872  0.00  0.00    -0.191 NA
ENDBRANCH   7  16
BRANCH  12  18
ATOM     18  C   UNL     1      -2.461   1.243   0.048  0.00  0.00    +0.121 C 
BRANCH  18  19
ATOM     19  C   UNL     1      -3.643   2.212   0.117  0.00  0.00    +0.122 C 
BRANCH  19  20
ATOM     20  N   UNL     1      -4.891   1.477  -0.102  0.00  0.00    -0.325 N 
ATOM     21  H   UNL     1      -4.869   0.520  -0.259  0.00  0.00    +0.148 HD
BRANCH  20  22
ATOM     22  C   UNL     1      -6.069   2.131  -0.086  0.00  0.00    +0.130 C 
ATOM     23  S   UNL     1      -6.108   3.820   0.191  0.00  0.00    -0.019 S 
BRANCH  22  24
ATOM     24  N   UNL     1      -7.218   1.454  -0.288  0.00  0.00    -0.327 N 
ATOM     25  H   UNL     1      -7.196   0.498  -0.445  0.00  0.00    +0.148 HD
BRANCH  24  26
ATOM     26  C   UNL     1      -8.499   2.165  -0.270  0.00  0.00    +0.105 C 
BRANCH  26  27
ATOM     27  C   UNL     1      -9.636   1.173  -0.524  0.00  0.00    +0.047 C 
BRANCH  27  28
ATOM     28  C   UNL     1     -10.974   1.914  -0.505  0.00  0.00    +0.161 C 
BRANCH  28  29
ATOM     29  O   UNL     1     -12.035   0.988  -0.742  0.00  0.00    -0.383 OA
ATOM     30  C   UNL     1     -13.335   1.581  -0.745  0.00  0.00    +0.193 C 
ENDBRANCH  28  29
ENDBRANCH  27  28
ENDBRANCH  26  27
ENDBRANCH  24  26
ENDBRANCH  22  24
ENDBRANCH  20  22
ENDBRANCH  19  20
ENDBRANCH  18  19
ENDBRANCH  12  18
TORSDOF 10
