REMARK  Name = ZINC11814271
REMARK  8 active torsions:
REMARK  status: ('A' for Active; 'I' for Inactive)
REMARK    1  A    between atoms: C_1  and  C_2
REMARK    2  A    between atoms: C_2  and  O_3
REMARK    3  A    between atoms: O_3  and  C_4
REMARK    4  A    between atoms: C_7  and  C_10
REMARK    5  A    between atoms: C_10  and  N_66
REMARK    6  A    between atoms: C_16  and  C_18
REMARK    7  A    between atoms: C_18  and  C_19
REMARK    8  A    between atoms: N_24  and  C_28
REMARK                            x       y       z     vdW  Elec       q    Type
REMARK                         _______ _______ _______ _____ _____    ______ ____
ROOT
ATOM      1  C   UNL     1       3.755   5.274   8.795  0.00  0.00    -0.058 C 
ATOM      2  C   UNL     1       4.385   6.661   8.653  0.00  0.00    +0.085 C 
ATOM      3  N   UNL     1       3.744   7.392   7.563  0.00  0.00    -0.318 N 
ATOM      4  C   UNL     1       3.022   6.792   6.611  0.00  0.00    +0.200 C 
ATOM      5  O   UNL     1       2.550   7.472   5.724  0.00  0.00    -0.278 OA
ATOM      6  C   UNL     1       2.771   5.311   6.593  0.00  0.00    +0.028 C 
ATOM      7  H   UNL     1       3.846   8.356   7.529  0.00  0.00    +0.149 HD
ATOM      8  N   UNL     1       3.752   4.635   7.463  0.00  0.00    +0.391 N 
ATOM      9  H   UNL     1       4.687   4.723   7.047  0.00  0.00    -0.080 HD
ENDROOT
BRANCH   8  10
ATOM     10  C   UNL     1       3.413   3.199   7.590  0.00  0.00    -0.042 C 
BRANCH  10  14
ATOM     11  C   UNL     1       6.100   1.367  10.362  0.00  0.00    +0.121 A 
ATOM     12  C   UNL     1       4.903   1.908  10.809  0.00  0.00    +0.046 A 
ATOM     13  C   UNL     1       4.036   2.499   9.910  0.00  0.00    +0.005 A 
ATOM     14  C   UNL     1       4.361   2.553   8.567  0.00  0.00    -0.064 A 
ATOM     15  C   UNL     1       5.550   2.010   8.119  0.00  0.00    +0.005 A 
ATOM     16  C   UNL     1       6.423   1.422   9.014  0.00  0.00    +0.046 A 
BRANCH  11  17
ATOM     17  O   UNL     1       6.954   0.784  11.244  0.00  0.00    -0.492 OA
BRANCH  17  19
ATOM     18  C   UNL     1       8.995  -0.362  11.847  0.00  0.00    +0.048 C 
ATOM     19  C   UNL     1       8.168   0.248  10.713  0.00  0.00    +0.225 C 
ENDBRANCH  17  19
ENDBRANCH  11  17
ENDBRANCH  10  14
ENDBRANCH   8  10
BRANCH   6  20
ATOM     20  C   UNL     1       2.929   4.786   5.165  0.00  0.00    +0.090 C 
BRANCH  20  21
ATOM     21  C   UNL     1       4.330   5.061   4.681  0.00  0.00    +0.215 C 
ATOM     22  O   UNL     1       5.150   5.537   5.436  0.00  0.00    -0.276 OA
ATOM     23  N   UNL     1       4.670   4.777   3.408  0.00  0.00    -0.291 N 
ATOM     24  C   UNL     1       6.030   5.033   2.903  0.00  0.00    +0.127 C 
ATOM     25  C   UNL     1       6.639   3.697   2.474  0.00  0.00    +0.127 C 
ATOM     26  N   UNL     1       5.697   2.936   1.665  0.00  0.00    -0.296 N 
ATOM     27  C   UNL     1       4.375   3.117   1.671  0.00  0.00    +0.233 C 
ATOM     28  O   UNL     1       3.687   2.370   1.009  0.00  0.00    -0.274 OA
ATOM     29  C   UNL     1       3.700   4.200   2.466  0.00  0.00    +0.203 C 
BRANCH  26  30
ATOM     30  C   UNL     1       6.239   1.903   0.779  0.00  0.00    +0.076 C 
ATOM     31  C   UNL     1       5.876   2.207  -0.690  0.00  0.00    +0.022 C 
ATOM     32  C   UNL     1       5.575   0.854  -1.358  0.00  0.00    +0.002 C 
ATOM     33  C   UNL     1       5.765  -0.226  -0.273  0.00  0.00    +0.002 C 
ATOM     34  C   UNL     1       5.565   0.536   1.061  0.00  0.00    +0.022 C 
ENDBRANCH  26  30
ENDBRANCH  20  21
ENDBRANCH   6  20
TORSDOF 7
