REMARK  Name = ZINC05496226
REMARK  7 active torsions:
REMARK  status: ('A' for Active; 'I' for Inactive)
REMARK    1  A    between atoms: C_4  and  C_7
REMARK    2  A    between atoms: C_7  and  N_8
REMARK    3  A    between atoms: C_9  and  C_11
REMARK    4  A    between atoms: C_19  and  C_27
REMARK    5  A    between atoms: C_20  and  N_26
REMARK    6  A    between atoms: N_29  and  C_30
REMARK    7  A    between atoms: C_30  and  C_31
REMARK                            x       y       z     vdW  Elec       q    Type
REMARK                         _______ _______ _______ _____ _____    ______ ____
ROOT
ATOM      1  C   UNL     1       0.038   5.517   0.030  0.00  0.00    +0.066 A 
ATOM      2  C   UNL     1      -1.176   6.189   0.045  0.00  0.00    +0.015 A 
ATOM      3  C   UNL     1      -2.369   5.481   0.052  0.00  0.00    +0.004 A 
ATOM      4  C   UNL     1      -2.371   4.102   0.044  0.00  0.00    +0.048 A 
ATOM      5  C   UNL     1      -1.170   3.397   0.030  0.00  0.00    +0.155 A 
ATOM      6  C   UNL     1       0.052   4.098   0.023  0.00  0.00    +0.119 A 
ATOM      7  N   UNL     1       1.221   3.444   0.009  0.00  0.00    -0.239 NA
ATOM      8  C   UNL     1       1.246   2.126   0.002  0.00  0.00    +0.121 A 
ATOM      9  C   UNL     1       2.522   1.397  -0.014  0.00  0.00    +0.090 A 
ATOM     10  C   UNL     1       2.501   0.010  -0.022  0.00  0.00    +0.086 A 
ATOM     11  C   UNL     1       1.213  -0.705  -0.014  0.00  0.00    +0.204 A 
ATOM     12  O   UNL     1       1.202  -1.926  -0.021  0.00  0.00    -0.286 OA
ATOM     13  C   UNL     1       0.002  -0.004   0.002  0.00  0.00    +0.101 A 
ATOM     14  C   UNL     1      -0.017   1.371   0.010  0.00  0.00    +0.158 A 
ATOM     15  O   UNL     1      -1.185   2.046   0.019  0.00  0.00    -0.452 OA
ENDROOT
BRANCH   1  17
ATOM     16  N   UNL     1       1.288   7.621   0.030  0.00  0.00    -0.307 N 
ATOM     17  C   UNL     1       1.306   6.273   0.023  0.00  0.00    +0.247 C 
ATOM     18  O   UNL     1       2.367   5.680   0.011  0.00  0.00    -0.270 OA
ATOM     19  H   UNL     1       0.441   8.094   0.040  0.00  0.00    +0.149 HD
BRANCH  16  20
ATOM     20  C   UNL     1       2.546   8.371   0.023  0.00  0.00    +0.139 C 
BRANCH  20  24
ATOM     21  C   UNL     1       1.707  12.559   0.052  0.00  0.00    +0.000 A 
ATOM     22  C   UNL     1       1.853  11.876   1.244  0.00  0.00    +0.000 A 
ATOM     23  C   UNL     1       2.124  10.520   1.235  0.00  0.00    +0.005 A 
ATOM     24  C   UNL     1       2.250   9.848   0.033  0.00  0.00    -0.030 A 
ATOM     25  C   UNL     1       2.110  10.533  -1.159  0.00  0.00    +0.005 A 
ATOM     26  C   UNL     1       1.833  11.888  -1.150  0.00  0.00    +0.000 A 
ENDBRANCH  20  24
ENDBRANCH  16  20
ENDBRANCH   1  17
BRANCH   9  27
ATOM     27  C   UNL     1       3.800   2.125  -0.022  0.00  0.00    +0.248 C 
ATOM     28  O   UNL     1       4.318   2.432  -1.079  0.00  0.00    -0.270 OA
ATOM     29  N   UNL     1       4.396   2.452   1.141  0.00  0.00    -0.307 N 
ATOM     30  H   UNL     1       3.983   2.207   1.984  0.00  0.00    +0.149 HD
BRANCH  29  31
ATOM     31  C   UNL     1       5.669   3.178   1.133  0.00  0.00    +0.139 C 
BRANCH  31  32
ATOM     32  C   UNL     1       6.119   3.418   2.550  0.00  0.00    -0.030 A 
ATOM     33  C   UNL     1       5.738   4.572   3.211  0.00  0.00    +0.005 A 
ATOM     34  C   UNL     1       6.147   4.790   4.513  0.00  0.00    +0.000 A 
ATOM     35  C   UNL     1       6.946   3.860   5.152  0.00  0.00    +0.000 A 
ATOM     36  C   UNL     1       7.332   2.710   4.489  0.00  0.00    +0.000 A 
ATOM     37  C   UNL     1       6.919   2.489   3.189  0.00  0.00    +0.005 A 
ENDBRANCH  31  32
ENDBRANCH  29  31
ENDBRANCH   9  27
BRANCH  10  38
ATOM     38  N   UNL     1       3.682  -0.697  -0.037  0.00  0.00    -0.354 N 
ATOM     39  H   UNL     1       3.666  -1.667  -0.043  0.00  0.00    +0.142 HD
ATOM     40  H   UNL     1       4.529  -0.225  -0.043  0.00  0.00    +0.142 HD
ENDBRANCH  10  38
TORSDOF 7
