REMARK  Name = ZINC40571743
REMARK  3 active torsions:
REMARK  status: ('A' for Active; 'I' for Inactive)
REMARK    1  A    between atoms: C_4  and  C_7
REMARK    2  A    between atoms: C_7  and  C_8
REMARK    3  A    between atoms: C_15  and  N_21
REMARK                            x       y       z     vdW  Elec       q    Type
REMARK                         _______ _______ _______ _____ _____    ______ ____
ROOT
ATOM      1  C   UNL     1       4.234  -0.961   1.375  0.00  0.00    -0.004 C 
ATOM      2  C   UNL     1       3.233  -1.873   2.086  0.00  0.00    +0.023 C 
ATOM      3  C   UNL     1       3.689  -2.096   3.532  0.00  0.00    +0.107 C 
ATOM      4  N   UNL     1       5.067  -2.606   3.519  0.00  0.00    -0.314 N 
ATOM      5  C   UNL     1       6.093  -1.852   2.786  0.00  0.00    +0.107 C 
ATOM      6  C   UNL     1       5.609  -1.631   1.349  0.00  0.00    +0.023 C 
ATOM      7  C   UNL     1       5.393  -3.778   4.188  0.00  0.00    +0.147 A 
ATOM      8  C   UNL     1       5.865  -3.738   5.507  0.00  0.00    +0.102 A 
ATOM      9  C   UNL     1       6.177  -4.939   6.129  0.00  0.00    +0.155 A 
ATOM     10  N   UNL     1       6.018  -6.073   5.459  0.00  0.00    -0.222 NA
ATOM     11  C   UNL     1       5.572  -6.072   4.220  0.00  0.00    +0.225 A 
ATOM     12  N   UNL     1       5.258  -4.957   3.591  0.00  0.00    -0.219 NA
ATOM     13 CL   UNL     1       6.767  -4.956   7.762  0.00  0.00    -0.060 Cl
ENDROOT
BRANCH   8  14
ATOM     14  N   UNL     1       6.019  -2.518   6.179  0.00  0.00    -0.353 N 
ATOM     15  H   UNL     1       5.715  -1.694   5.766  0.00  0.00    +0.143 HD
ATOM     16  H   UNL     1       6.429  -2.496   7.058  0.00  0.00    +0.143 HD
ENDBRANCH   8  14
BRANCH   1  17
ATOM     17  C   UNL     1       3.764  -0.707  -0.059  0.00  0.00    +0.038 C 
BRANCH  17  21
ATOM     18  C   UNL     1       0.092   1.475   0.009  0.00  0.00    +0.000 A 
ATOM     19  C   UNL     1       1.298   2.151  -0.020  0.00  0.00    +0.000 A 
ATOM     20  C   UNL     1       2.486   1.445  -0.042  0.00  0.00    +0.003 A 
ATOM     21  C   UNL     1       2.469   0.062  -0.034  0.00  0.00    -0.047 A 
ATOM     22  C   UNL     1       1.263  -0.614  -0.004  0.00  0.00    +0.003 A 
ATOM     23  C   UNL     1       0.075   0.093   0.016  0.00  0.00    +0.000 A 
ENDBRANCH  17  21
ENDBRANCH   1  17
TORSDOF 3
