REMARK  Name = ZINC62791256
REMARK  4 active torsions:
REMARK  status: ('A' for Active; 'I' for Inactive)
REMARK    1  A    between atoms: C_3  and  O_10
REMARK    2  A    between atoms: C_6  and  C_7
REMARK    3  A    between atoms: O_10  and  C_11
REMARK    4  A    between atoms: C_16  and  N_17
REMARK                            x       y       z     vdW  Elec       q    Type
REMARK                         _______ _______ _______ _____ _____    ______ ____
ROOT
ATOM      1  O   UNL     1       3.545   2.116  -0.021  0.00  0.00    -0.453 OA
ENDROOT
BRANCH   1   4
ATOM      2  C   UNL     1       0.647   0.281   1.181  0.00  0.00    +0.022 A 
ATOM      3  C   UNL     1       1.829   0.989   1.178  0.00  0.00    +0.049 A 
ATOM      4  C   UNL     1       2.381   1.418  -0.023  0.00  0.00    +0.147 A 
ATOM      5  C   UNL     1       1.744   1.134  -1.226  0.00  0.00    +0.084 A 
ATOM      6  C   UNL     1       0.562   0.426  -1.232  0.00  0.00    +0.042 A 
ATOM      7  C   UNL     1       0.004  -0.007  -0.026  0.00  0.00    +0.053 A 
ATOM      8 CL   UNL     1       2.440   1.672  -2.723  0.00  0.00    -0.080 Cl
BRANCH   7   9
ATOM      9  C   UNL     1      -1.224  -0.743  -0.027  0.00  0.00    +0.099 C 
ATOM     10  N   UNL     1      -2.199  -1.327  -0.028  0.00  0.00    -0.191 NA
ENDBRANCH   7   9
ENDBRANCH   1   4
BRANCH   1  11
ATOM     11  C   UNL     1       3.477   3.471  -0.118  0.00  0.00    +0.150 A 
ATOM     12  C   UNL     1       2.247   4.108  -0.095  0.00  0.00    +0.068 A 
ATOM     13  C   UNL     1       2.180   5.486  -0.194  0.00  0.00    +0.045 A 
ATOM     14  C   UNL     1       3.339   6.232  -0.316  0.00  0.00    +0.022 A 
ATOM     15  C   UNL     1       4.570   5.603  -0.339  0.00  0.00    +0.028 A 
ATOM     16  C   UNL     1       4.645   4.222  -0.235  0.00  0.00    +0.068 A 
ATOM     17 CL   UNL     1       0.637   6.282  -0.165  0.00  0.00    -0.083 Cl
BRANCH  16  18
ATOM     18  N   UNL     1       5.891   3.584  -0.253  0.00  0.00    -0.355 N 
ATOM     19  H   UNL     1       5.942   2.618  -0.183  0.00  0.00    +0.142 HD
ATOM     20  H   UNL     1       6.703   4.108  -0.334  0.00  0.00    +0.142 HD
ENDBRANCH  16  18
ENDBRANCH   1  11
TORSDOF 4
