REMARK  Name = ZINC00659198
REMARK  7 active torsions:
REMARK  status: ('A' for Active; 'I' for Inactive)
REMARK    1  A    between atoms: C_1  and  C_2
REMARK    2  A    between atoms: C_3  and  C_8
REMARK    3  A    between atoms: N_5  and  C_7
REMARK    4  A    between atoms: C_8  and  N_9
REMARK    5  A    between atoms: C_10  and  C_12
REMARK    6  A    between atoms: C_17  and  C_32
REMARK    7  A    between atoms: C_20  and  C_23
REMARK                            x       y       z     vdW  Elec       q    Type
REMARK                         _______ _______ _______ _____ _____    ______ ____
ROOT
ATOM      1  C   UNL     1       2.940   0.924  -4.604  0.00  0.00    +0.149 A 
ATOM      2  C   UNL     1       3.320   1.428  -5.868  0.00  0.00    +0.078 A 
ATOM      3  C   UNL     1       4.644   1.675  -5.827  0.00  0.00    +0.119 A 
ATOM      4  N   UNL     1       5.100   1.345  -4.582  0.00  0.00    -0.238 N 
ATOM      5  N   UNL     1       4.016   0.883  -3.837  0.00  0.00    -0.164 NA
ATOM      6  C   UNL     1       6.498   1.484  -4.165  0.00  0.00    +0.215 C 
ATOM      7  C   UNL     1       7.203   2.462  -5.112  0.00  0.00    +0.063 C 
ATOM      8  C   UNL     1       6.934   2.065  -6.568  0.00  0.00    +0.104 C 
ATOM      9  N   UNL     1       5.485   2.176  -6.825  0.00  0.00    -0.322 N 
ATOM     10  H   UNL     1       5.137   2.574  -7.638  0.00  0.00    +0.148 HD
ENDROOT
BRANCH   8  11
ATOM     11  C   UNL     1       7.385   0.645  -6.796  0.00  0.00    -0.024 A 
ATOM     12  C   UNL     1       6.578  -0.407  -6.404  0.00  0.00    +0.009 A 
ATOM     13  C   UNL     1       6.987  -1.711  -6.612  0.00  0.00    +0.050 A 
ATOM     14  C   UNL     1       8.208  -1.967  -7.215  0.00  0.00    +0.166 A 
ATOM     15  C   UNL     1       9.021  -0.907  -7.610  0.00  0.00    +0.167 A 
ATOM     16  C   UNL     1       8.602   0.397  -7.404  0.00  0.00    +0.055 A 
ATOM     17  O   UNL     1      10.156  -1.415  -8.172  0.00  0.00    -0.453 OA
ATOM     18  C   UNL     1      10.214  -2.790  -7.748  0.00  0.00    +0.466 C 
ATOM     19  O   UNL     1       8.834  -3.138  -7.529  0.00  0.00    -0.453 OA
ENDBRANCH   8  11
BRANCH   1  21
ATOM     20  N   UNL     1       1.347   0.058  -2.960  0.00  0.00    -0.306 N 
ATOM     21  C   UNL     1       1.576   0.520  -4.206  0.00  0.00    +0.264 C 
ATOM     22  O   UNL     1       0.661   0.603  -5.001  0.00  0.00    -0.268 OA
ATOM     23  H   UNL     1       2.077  -0.009  -2.325  0.00  0.00    +0.149 HD
BRANCH  20  24
ATOM     24  C   UNL     1      -0.006  -0.343  -2.566  0.00  0.00    +0.143 C 
BRANCH  24  27
ATOM     25  C   UNL     1      -0.018   1.503   0.010  0.00  0.00    +0.068 C 
ATOM     26  C   UNL     1       0.002  -0.004   0.002  0.00  0.00    +0.065 A 
ATOM     27  C   UNL     1       0.008  -0.818  -1.135  0.00  0.00    +0.010 A 
ATOM     28  C   UNL     1       0.028  -2.107  -0.725  0.00  0.00    +0.113 A 
ATOM     29  N   UNL     1       0.034  -2.109   0.625  0.00  0.00    -0.274 N 
ATOM     30  N   UNL     1       0.023  -0.777   1.058  0.00  0.00    -0.176 NA
ATOM     31  C   UNL     1       0.055  -3.295   1.485  0.00  0.00    +0.172 C 
ENDBRANCH  24  27
ENDBRANCH  20  24
ENDBRANCH   1  21
BRANCH   6  32
ATOM     32  C   UNL     1       6.554   2.022  -2.734  0.00  0.00    +0.412 C 
ATOM     33  F   UNL     1       5.899   1.133  -1.875  0.00  0.00    -0.168 F 
ATOM     34  F   UNL     1       7.890   2.154  -2.338  0.00  0.00    -0.168 F 
ATOM     35  F   UNL     1       5.926   3.271  -2.680  0.00  0.00    -0.168 F 
ENDBRANCH   6  32
TORSDOF 5
