REMARK  Name = ZINC12766355
REMARK  7 active torsions:
REMARK  status: ('A' for Active; 'I' for Inactive)
REMARK    1  A    between atoms: C_4  and  C_7
REMARK    2  A    between atoms: C_7  and  N_8
REMARK    3  A    between atoms: C_9  and  N_34
REMARK    4  A    between atoms: C_10  and  N_17
REMARK    5  A    between atoms: N_17  and  C_18
REMARK    6  A    between atoms: C_18  and  C_19
REMARK    7  A    between atoms: C_24  and  C_26
REMARK                            x       y       z     vdW  Elec       q    Type
REMARK                         _______ _______ _______ _____ _____    ______ ____
ROOT
ATOM      1  N   UNL     1       1.131  -1.595   0.950  0.00  0.00    -0.276 N 
ATOM      2  C   UNL     1       0.903  -1.759  -0.397  0.00  0.00    +0.128 A 
ATOM      3  C   UNL     1       0.606  -3.016  -0.882  0.00  0.00    +0.140 A 
ATOM      4  C   UNL     1       0.536  -4.093   0.022  0.00  0.00    +0.277 A 
ATOM      5  O   UNL     1       0.271  -5.215  -0.378  0.00  0.00    -0.266 OA
ATOM      6  N   UNL     1       0.762  -3.877   1.333  0.00  0.00    -0.273 N 
ATOM      7  H   UNL     1       0.713  -4.642   1.976  0.00  0.00    +0.173 HD
ATOM      8  C   UNL     1       1.055  -2.646   1.786  0.00  0.00    +0.331 A 
ATOM      9  O   UNL     1       1.256  -2.479   2.974  0.00  0.00    -0.246 OA
ENDROOT
BRANCH   3  10
ATOM     10  N   UNL     1       0.373  -3.218  -2.258  0.00  0.00    -0.253 N 
ATOM     11  C   UNL     1      -0.788  -3.764  -2.671  0.00  0.00    +0.252 C 
ATOM     12  O   UNL     1      -0.951  -4.027  -3.847  0.00  0.00    -0.270 OA
BRANCH  11  13
ATOM     13  C   UNL     1      -1.863  -4.042  -1.695  0.00  0.00    +0.040 A 
ATOM     14  C   UNL     1      -1.895  -3.364  -0.476  0.00  0.00    +0.033 A 
ATOM     15  C   UNL     1      -2.904  -3.625   0.430  0.00  0.00    +0.043 A 
ATOM     16  C   UNL     1      -3.877  -4.565   0.134  0.00  0.00    +0.040 A 
ATOM     17  C   UNL     1      -3.848  -5.245  -1.072  0.00  0.00    +0.043 A 
ATOM     18  C   UNL     1      -2.847  -4.989  -1.987  0.00  0.00    +0.033 A 
ATOM     19 CL   UNL     1      -5.072  -6.421  -1.433  0.00  0.00    -0.083 Cl
ATOM     20 CL   UNL     1      -2.949  -2.779   1.945  0.00  0.00    -0.083 Cl
ENDBRANCH  11  13
BRANCH  10  21
ATOM     21  C   UNL     1       1.392  -2.834  -3.237  0.00  0.00    +0.188 C 
BRANCH  21  22
ATOM     22  C   UNL     1       2.239  -4.034  -3.577  0.00  0.00    +0.122 A 
ATOM     23  C   UNL     1       2.058  -4.853  -4.628  0.00  0.00    +0.046 A 
ATOM     24  C   UNL     1       3.072  -5.836  -4.561  0.00  0.00    +0.041 A 
ATOM     25  C   UNL     1       3.813  -5.558  -3.473  0.00  0.00    +0.195 A 
ATOM     26  O   UNL     1       3.307  -4.462  -2.884  0.00  0.00    -0.466 OA
ENDBRANCH  21  22
ENDBRANCH  10  21
ENDBRANCH   3  10
BRANCH   2  27
ATOM     27  N   UNL     1       0.975  -0.684  -1.250  0.00  0.00    -0.343 N 
ATOM     28  H   UNL     1       1.280   0.176  -0.922  0.00  0.00    +0.144 HD
ATOM     29  H   UNL     1       0.720  -0.785  -2.181  0.00  0.00    +0.144 HD
ENDBRANCH   2  27
BRANCH   1  30
ATOM     30  C   UNL     1       1.453  -0.266   1.477  0.00  0.00    +0.163 C 
BRANCH  30  34
ATOM     31  C   UNL     1       5.687   0.298   1.431  0.00  0.00    +0.000 A 
ATOM     32  C   UNL     1       4.929   0.662   0.334  0.00  0.00    +0.000 A 
ATOM     33  C   UNL     1       3.559   0.480   0.349  0.00  0.00    +0.005 A 
ATOM     34  C   UNL     1       2.947  -0.068   1.461  0.00  0.00    -0.028 A 
ATOM     35  C   UNL     1       3.704  -0.427   2.560  0.00  0.00    +0.005 A 
ATOM     36  C   UNL     1       5.075  -0.250   2.543  0.00  0.00    +0.000 A 
ENDBRANCH  30  34
ENDBRANCH   1  30
TORSDOF 7
