REMARK  Name = ZINC04469749
REMARK  11 active torsions:
REMARK  status: ('A' for Active; 'I' for Inactive)
REMARK    1  A    between atoms: C_1  and  O_2
REMARK    2  A    between atoms: O_2  and  C_3
REMARK    3  A    between atoms: C_3  and  C_5
REMARK    4  A    between atoms: C_11  and  C_12
REMARK    5  A    between atoms: C_15  and  O_18
REMARK    6  A    between atoms: C_20  and  N_35
REMARK    7  A    between atoms: C_21  and  C_31
REMARK    8  A    between atoms: C_22  and  C_24
REMARK    9  A    between atoms: C_27  and  O_30
REMARK   10  A    between atoms: C_31  and  O_33
REMARK   11  A    between atoms: O_33  and  C_34
REMARK                            x       y       z     vdW  Elec       q    Type
REMARK                         _______ _______ _______ _____ _____    ______ ____
ROOT
ATOM      1  C   UNL     1       4.479   7.313  -0.262  0.00  0.00    +0.079 C 
ATOM      2  C   UNL     1       3.950   6.077  -0.524  0.00  0.00    +0.100 A 
ATOM      3  N   UNL     1       2.598   5.815  -0.619  0.00  0.00    -0.257 N 
ATOM      4  C   UNL     1       2.224   4.548  -0.889  0.00  0.00    +0.271 A 
ATOM      5  O   UNL     1       1.047   4.255  -0.992  0.00  0.00    -0.266 OA
ATOM      6  C   UNL     1       3.267   3.531  -1.051  0.00  0.00    +0.079 A 
ATOM      7  C   UNL     1       3.145   2.205  -1.317  0.00  0.00    +0.028 C 
ATOM      8  S   UNL     1       4.742   4.507  -0.810  0.00  0.00    -0.065 S 
ATOM      9  C   UNL     1       1.688   6.861  -0.442  0.00  0.00    +0.115 C 
ATOM     10  C   UNL     1       2.050   8.138  -0.177  0.00  0.00    +0.087 C 
ATOM     11  C   UNL     1       3.523   8.473  -0.064  0.00  0.00    +0.099 C 
ENDROOT
BRANCH   7  12
ATOM     12  C   UNL     1       1.820   1.572  -1.303  0.00  0.00    -0.024 A 
ATOM     13  C   UNL     1       0.900   1.891  -0.295  0.00  0.00    +0.011 A 
ATOM     14  C   UNL     1      -0.340   1.294  -0.286  0.00  0.00    +0.046 A 
ATOM     15  C   UNL     1      -0.681   0.377  -1.274  0.00  0.00    +0.117 A 
ATOM     16  C   UNL     1       0.228   0.057  -2.276  0.00  0.00    +0.046 A 
ATOM     17  C   UNL     1       1.472   0.647  -2.295  0.00  0.00    +0.011 A 
BRANCH  15  18
ATOM     18  O   UNL     1      -1.906  -0.208  -1.260  0.00  0.00    -0.507 OA
ATOM     19  H   UNL     1      -2.580   0.278  -1.755  0.00  0.00    +0.292 HD
ENDBRANCH  15  18
ENDBRANCH   7  12
BRANCH  11  20
ATOM     20  C   UNL     1       3.770   9.058   1.303  0.00  0.00    -0.035 A 
ATOM     21  C   UNL     1       3.484   8.315   2.434  0.00  0.00    +0.008 A 
ATOM     22  C   UNL     1       3.714   8.847   3.688  0.00  0.00    +0.046 A 
ATOM     23  C   UNL     1       4.223  10.132   3.812  0.00  0.00    +0.117 A 
ATOM     24  C   UNL     1       4.503  10.877   2.677  0.00  0.00    +0.046 A 
ATOM     25  C   UNL     1       4.277  10.339   1.425  0.00  0.00    +0.008 A 
BRANCH  23  26
ATOM     26  O   UNL     1       4.445  10.659   5.045  0.00  0.00    -0.507 OA
ATOM     27  H   UNL     1       3.688  11.136   5.412  0.00  0.00    +0.292 HD
ENDBRANCH  23  26
ENDBRANCH  11  20
BRANCH   9  28
ATOM     28  N   UNL     1       0.351   6.577  -0.540  0.00  0.00    -0.344 N 
ATOM     29  H   UNL     1      -0.004   5.769  -0.138  0.00  0.00    +0.144 HD
ATOM     30  H   UNL     1      -0.240   7.183  -1.013  0.00  0.00    +0.144 HD
ENDBRANCH   9  28
BRANCH   1  31
ATOM     31  C   UNL     1       5.865   7.500  -0.180  0.00  0.00    +0.338 C 
ATOM     32  O   UNL     1       6.618   6.556  -0.344  0.00  0.00    -0.245 OA
BRANCH  31  34
ATOM     33  C   UNL     1       7.789   8.845   0.148  0.00  0.00    +0.280 C 
ATOM     34  O   UNL     1       6.367   8.727   0.080  0.00  0.00    -0.465 OA
ENDBRANCH  31  34
ENDBRANCH   1  31
BRANCH  10  35
ATOM     35  C   UNL     1       1.077   9.136  -0.012  0.00  0.00    +0.339 C 
ATOM     36  O   UNL     1      -0.103   8.836   0.017  0.00  0.00    -0.245 OA
BRANCH  35  37
ATOM     37  O   UNL     1       1.449  10.428   0.116  0.00  0.00    -0.465 OA
ATOM     38  C   UNL     1       0.405  11.390   0.281  0.00  0.00    +0.280 C 
ENDBRANCH  35  37
ENDBRANCH  10  35
TORSDOF 9
