REMARK  Name = ZINC40247718
REMARK  3 active torsions:
REMARK  status: ('A' for Active; 'I' for Inactive)
REMARK    1  A    between atoms: C_6  and  C_7
REMARK    2  A    between atoms: C_7  and  C_9
REMARK    3  A    between atoms: C_7  and  O_15
REMARK                            x       y       z     vdW  Elec       q    Type
REMARK                         _______ _______ _______ _____ _____    ______ ____
ROOT
ATOM      1  C   UNL     1      -0.017   1.380   0.010  0.00  0.00    +0.008 A 
ATOM      2  C   UNL     1       1.167   2.093   0.002  0.00  0.00    +0.028 A 
ATOM      3  C   UNL     1       2.378   1.419  -0.013  0.00  0.00    +0.067 A 
ATOM      4  C   UNL     1       2.397   0.022  -0.021  0.00  0.00    +0.067 A 
ATOM      5  C   UNL     1       1.204  -0.684  -0.014  0.00  0.00    +0.034 A 
ATOM      6  C   UNL     1       0.002  -0.004   0.002  0.00  0.00    -0.015 A 
ATOM      7  N   UNL     1       3.736  -0.362  -0.035  0.00  0.00    -0.306 N 
ATOM      8  H   UNL     1       4.064  -1.275  -0.043  0.00  0.00    +0.170 HD
ATOM      9  C   UNL     1       4.496   0.749  -0.035  0.00  0.00    +0.325 A 
ATOM     10  O   UNL     1       5.713   0.766  -0.047  0.00  0.00    -0.247 OA
ATOM     11  N   UNL     1       3.706   1.839  -0.023  0.00  0.00    -0.306 N 
ATOM     12  H   UNL     1       4.010   2.760  -0.020  0.00  0.00    +0.170 HD
ENDROOT
BRANCH   6  13
ATOM     13  C   UNL     1      -1.294  -0.772   0.011  0.00  0.00    +0.173 C 
BRANCH  13  14
ATOM     14  C   UNL     1      -1.812  -0.916  -1.422  0.00  0.00    +0.151 C 
ATOM     15  C   UNL     1      -3.138  -1.706  -1.423  0.00  0.00    +0.037 C 
ATOM     16  C   UNL     1      -2.991  -2.594  -2.689  0.00  0.00    +0.031 C 
ATOM     17  C   UNL     1      -1.467  -2.871  -2.679  0.00  0.00    +0.160 C 
ATOM     18  O   UNL     1      -0.867  -1.652  -2.208  0.00  0.00    -0.374 OA
ENDBRANCH  13  14
BRANCH  13  19
ATOM     19  O   UNL     1      -2.259  -0.069   0.797  0.00  0.00    -0.385 OA
ATOM     20  H   UNL     1      -2.457   0.820   0.474  0.00  0.00    +0.210 HD
ENDBRANCH  13  19
ENDBRANCH   6  13
TORSDOF 3
