REMARK  Name = ZINC34677958
REMARK  8 active torsions:
REMARK  status: ('A' for Active; 'I' for Inactive)
REMARK    1  A    between atoms: C_4  and  O_29
REMARK    2  A    between atoms: C_5  and  C_7
REMARK    3  A    between atoms: C_7  and  N_8
REMARK    4  A    between atoms: N_11  and  C_14
REMARK    5  A    between atoms: C_14  and  C_15
REMARK    6  A    between atoms: C_17  and  C_20
REMARK    7  A    between atoms: N_22  and  C_23
REMARK    8  A    between atoms: C_23  and  C_24
REMARK                            x       y       z     vdW  Elec       q    Type
REMARK                         _______ _______ _______ _____ _____    ______ ____
ROOT
ATOM      1  N   UNL     1       1.369  -2.675   1.372  0.00  0.00    -0.302 NA
ATOM      2  C   UNL     1       2.627  -2.211   1.973  0.00  0.00    +0.066 C 
ATOM      3  C   UNL     1       2.703  -2.691   3.424  0.00  0.00    -0.063 C 
ATOM      4  N   UNL     1       2.635  -4.157   3.459  0.00  0.00    +0.387 N 
ATOM      5  C   UNL     1       1.362  -4.604   2.879  0.00  0.00    -0.063 C 
ATOM      6  C   UNL     1       1.275  -4.141   1.423  0.00  0.00    +0.066 C 
ATOM      7  H   UNL     1       3.401  -4.542   2.927  0.00  0.00    -0.081 HD
ENDROOT
BRANCH   1   8
ATOM      8  C   UNL     1       1.232  -2.186  -0.007  0.00  0.00    +0.123 C 
BRANCH   8  13
ATOM      9  C   UNL     1       1.680   1.552  -0.296  0.00  0.00    +0.001 A 
ATOM     10  C   UNL     1       0.421   2.011   0.044  0.00  0.00    +0.004 A 
ATOM     11  C   UNL     1      -0.579   1.115   0.368  0.00  0.00    +0.046 A 
ATOM     12  C   UNL     1      -0.318  -0.248   0.353  0.00  0.00    +0.121 A 
ATOM     13  C   UNL     1       0.946  -0.707   0.011  0.00  0.00    +0.008 A 
ATOM     14  C   UNL     1       1.942   0.194  -0.312  0.00  0.00    +0.008 A 
BRANCH  12  15
ATOM     15  O   UNL     1      -1.300  -1.132   0.672  0.00  0.00    -0.506 OA
ATOM     16  H   UNL     1      -1.878  -1.362  -0.068  0.00  0.00    +0.292 HD
ENDBRANCH  12  15
ENDBRANCH   8  13
ENDBRANCH   1   8
BRANCH   4  17
ATOM     17  C   UNL     1       2.726  -4.618   4.851  0.00  0.00    +0.019 C 
BRANCH  17  18
ATOM     18  C   UNL     1       2.780  -6.124   4.880  0.00  0.00    +0.179 A 
ATOM     19  N   UNL     1       3.864  -6.839   4.842  0.00  0.00    -0.210 NA
ATOM     20  C   UNL     1       3.516  -8.153   4.887  0.00  0.00    +0.163 A 
ATOM     21  C   UNL     1       2.158  -8.205   4.954  0.00  0.00    +0.230 A 
ATOM     22  O   UNL     1       1.717  -6.937   4.954  0.00  0.00    -0.449 OA
BRANCH  20  23
ATOM     23  C   UNL     1       4.436  -9.305   4.866  0.00  0.00    +0.266 C 
ATOM     24  O   UNL     1       3.995 -10.437   4.911  0.00  0.00    -0.268 OA
ATOM     25  N   UNL     1       5.767  -9.102   4.796  0.00  0.00    -0.303 N 
ATOM     26  H   UNL     1       6.119  -8.199   4.760  0.00  0.00    +0.150 HD
BRANCH  25  27
ATOM     27  C   UNL     1       6.682 -10.246   4.775  0.00  0.00    +0.179 C 
BRANCH  27  28
ATOM     28  C   UNL     1       8.103  -9.751   4.695  0.00  0.00    +0.122 A 
ATOM     29  C   UNL     1       8.900  -9.475   5.743  0.00  0.00    +0.046 A 
ATOM     30  C   UNL     1      10.138  -9.044   5.213  0.00  0.00    +0.041 A 
ATOM     31  C   UNL     1      10.024  -9.082   3.873  0.00  0.00    +0.195 A 
ATOM     32  O   UNL     1       8.791  -9.517   3.565  0.00  0.00    -0.466 OA
ENDBRANCH  27  28
ENDBRANCH  25  27
ENDBRANCH  20  23
ENDBRANCH  17  18
ENDBRANCH   4  17
TORSDOF 8
