REMARK  Name = ZINC52829863
REMARK  6 active torsions:
REMARK  status: ('A' for Active; 'I' for Inactive)
REMARK    1  A    between atoms: C_1  and  C_2
REMARK    2  A    between atoms: C_2  and  C_4
REMARK    3  A    between atoms: C_2  and  N_13
REMARK    4  A    between atoms: N_9  and  C_10
REMARK    5  A    between atoms: C_10  and  C_11
REMARK    6  A    between atoms: C_17  and  C_20
REMARK                            x       y       z     vdW  Elec       q    Type
REMARK                         _______ _______ _______ _____ _____    ______ ____
ROOT
ATOM      1  N   UNL     1       0.736  -0.831   1.139  0.00  0.00    +0.388 N 
ATOM      2  C   UNL     1       0.205  -2.065   0.548  0.00  0.00    -0.078 C 
ATOM      3  C   UNL     1       0.534  -3.252   1.456  0.00  0.00    -0.018 C 
ATOM      4  C   UNL     1      -0.103  -3.028   2.831  0.00  0.00    +0.009 C 
ATOM      5  C   UNL     1       0.401  -1.701   3.406  0.00  0.00    +0.059 C 
ATOM      6  C   UNL     1       0.077  -0.571   2.425  0.00  0.00    -0.065 C 
ATOM      7  H   UNL     1       1.729  -0.930   1.286  0.00  0.00    -0.081 HD
ENDROOT
BRANCH   5   8
ATOM      8  C   UNL     1      -0.277  -1.434   4.724  0.00  0.00    +0.220 C 
ATOM      9  O   UNL     1      -0.951  -0.436   4.869  0.00  0.00    -0.275 OA
ATOM     10  N   UNL     1      -0.135  -2.304   5.744  0.00  0.00    -0.270 N 
ATOM     11  C   UNL     1      -0.847  -2.114   6.928  0.00  0.00    +0.125 A 
ATOM     12  C   UNL     1      -0.621  -2.956   8.010  0.00  0.00    +0.045 A 
ATOM     13  C   UNL     1      -1.334  -2.756   9.179  0.00  0.00    +0.025 A 
ATOM     14  C   UNL     1      -2.253  -1.716   9.225  0.00  0.00    +0.059 A 
ATOM     15  C   UNL     1      -2.427  -0.918   8.110  0.00  0.00    +0.132 A 
ATOM     16  N   UNL     1      -1.728  -1.130   7.011  0.00  0.00    -0.239 NA
ATOM     17 CL   UNL     1      -3.175  -1.422  10.667  0.00  0.00    -0.082 Cl
ATOM     18  H   UNL     1       0.462  -3.063   5.654  0.00  0.00    +0.156 HD
ENDBRANCH   5   8
BRANCH   1  20
ATOM     19  C   UNL     1       1.093   1.570   0.814  0.00  0.00    -0.004 C 
ATOM     20  C   UNL     1       0.486   0.294   0.228  0.00  0.00    +0.017 C 
BRANCH  20  21
ATOM     21  C   UNL     1       1.119   0.006  -1.110  0.00  0.00    +0.207 C 
ATOM     22  O   UNL     1       2.112  -0.687  -1.174  0.00  0.00    -0.277 OA
ATOM     23  N   UNL     1       0.580   0.518  -2.234  0.00  0.00    -0.242 N 
ATOM     24  C   UNL     1       1.145   0.260  -3.430  0.00  0.00    +0.306 C 
ATOM     25  O   UNL     1       2.141  -0.434  -3.495  0.00  0.00    -0.252 OA
ATOM     26  N   UNL     1       0.607   0.772  -4.554  0.00  0.00    -0.296 N 
ATOM     27  H   UNL     1      -0.215   1.072  -2.182  0.00  0.00    +0.159 HD
ATOM     28  H   UNL     1      -0.188   1.327  -4.503  0.00  0.00    +0.151 HD
BRANCH  26  29
ATOM     29  C   UNL     1       1.221   0.493  -5.854  0.00  0.00    +0.132 C 
BRANCH  29  30
ATOM     30  C   UNL     1       0.432   1.177  -6.941  0.00  0.00    -0.016 C 
ATOM     31  C   UNL     1       1.032   1.994  -7.770  0.00  0.00    +0.005 C 
ENDBRANCH  29  30
ENDBRANCH  26  29
ENDBRANCH  20  21
ENDBRANCH   1  20
TORSDOF 5
