REMARK  Name = ZINC51036339
REMARK  8 active torsions:
REMARK  status: ('A' for Active; 'I' for Inactive)
REMARK    1  A    between atoms: C_1  and  C_2
REMARK    2  A    between atoms: C_2  and  C_3
REMARK    3  A    between atoms: C_3  and  C_5
REMARK    4  A    between atoms: C_3  and  N_24
REMARK    5  A    between atoms: C_5  and  C_7
REMARK    6  A    between atoms: C_5  and  S_13
REMARK    7  A    between atoms: C_10  and  C_12
REMARK    8  A    between atoms: S_13  and  C_14
REMARK                            x       y       z     vdW  Elec       q    Type
REMARK                         _______ _______ _______ _____ _____    ______ ____
ROOT
ATOM      1  C   UNL     1      -1.403  -2.086  -0.146  0.00  0.00    +0.104 C 
ENDROOT
BRANCH   1   2
ATOM      2  C   UNL     1      -0.804  -2.484  -1.471  0.00  0.00    +0.117 A 
ATOM      3  C   UNL     1       0.309  -3.220  -1.643  0.00  0.00    +0.046 A 
ATOM      4  C   UNL     1       0.503  -3.350  -3.037  0.00  0.00    +0.044 A 
ATOM      5  C   UNL     1      -0.503  -2.686  -3.634  0.00  0.00    +0.102 A 
ATOM      6  O   UNL     1      -1.295  -2.168  -2.681  0.00  0.00    -0.464 OA
ATOM      7  C   UNL     1      -0.709  -2.551  -5.121  0.00  0.00    +0.086 C 
ENDBRANCH   1   2
BRANCH   1   8
ATOM      8  C   UNL     1      -1.452  -0.560  -0.046  0.00  0.00    -0.054 C 
BRANCH   8   9
ATOM      9  N   UNL     1      -2.133  -0.173   1.196  0.00  0.00    +0.381 N 
ATOM     10  H   UNL     1      -2.234   0.830   1.226  0.00  0.00    -0.090 HD
ATOM     11  H   UNL     1      -3.045  -0.604   1.229  0.00  0.00    -0.090 HD
ATOM     12  H   UNL     1      -1.587  -0.479   1.988  0.00  0.00    -0.090 HD
ENDBRANCH   8   9
BRANCH   8  14
ATOM     13  C   UNL     1      -0.078   1.526  -0.068  0.00  0.00    +0.002 C 
ATOM     14  C   UNL     1      -0.027  -0.003  -0.043  0.00  0.00    -0.018 C 
ENDBRANCH   8  14
ENDBRANCH   1   8
BRANCH   1  15
ATOM     15  S   UNL     1      -3.083  -2.756  -0.017  0.00  0.00    -0.094 S 
BRANCH  15  16
ATOM     16  C   UNL     1      -2.841  -4.497   0.095  0.00  0.00    +0.126 A 
ATOM     17  C   UNL     1      -3.923  -5.357   0.300  0.00  0.00    +0.117 A 
ATOM     18  C   UNL     1      -3.679  -6.737   0.382  0.00  0.00    +0.182 A 
ATOM     19  N   UNL     1      -4.871  -7.333   0.579  0.00  0.00    -0.216 NA
ATOM     20  H   UNL     1      -5.771  -4.360   0.448  0.00  0.00    +0.167 HD
ATOM     21  C   UNL     1      -5.812  -6.433   0.622  0.00  0.00    +0.199 A 
ATOM     22  N   UNL     1      -5.284  -5.199   0.456  0.00  0.00    -0.341 N 
ATOM     23  N   UNL     1      -2.421  -7.175   0.262  0.00  0.00    -0.214 NA
ATOM     24  C   UNL     1      -1.434  -6.328   0.070  0.00  0.00    +0.224 A 
ATOM     25  N   UNL     1      -1.624  -5.024  -0.018  0.00  0.00    -0.227 NA
ENDBRANCH  15  16
ENDBRANCH   1  15
TORSDOF 6
