REMARK  Name = ZINC09189879
REMARK  9 active torsions:
REMARK  status: ('A' for Active; 'I' for Inactive)
REMARK    1  A    between atoms: C_1  and  C_2
REMARK    2  A    between atoms: N_4  and  C_25
REMARK    3  A    between atoms: C_8  and  N_9
REMARK    4  A    between atoms: N_9  and  C_10
REMARK    5  A    between atoms: C_15  and  N_16
REMARK    6  A    between atoms: N_16  and  C_17
REMARK    7  A    between atoms: N_16  and  C_18
REMARK    8  A    between atoms: N_19  and  C_24
REMARK    9  A    between atoms: N_22  and  C_23
REMARK                            x       y       z     vdW  Elec       q    Type
REMARK                         _______ _______ _______ _____ _____    ______ ____
ROOT
ATOM      1  N   UNL     1      -2.463   3.832   0.047  0.00  0.00    -0.318 N 
ATOM      2  H   UNL     1      -3.296   3.335   0.052  0.00  0.00    +0.152 HD
ENDROOT
BRANCH   1   3
ATOM      3  C   UNL     1      -1.240   3.150   0.032  0.00  0.00    +0.054 A 
ATOM      4  C   UNL     1      -0.050   3.861   0.024  0.00  0.00    +0.053 A 
ATOM      5  C   UNL     1       1.159   3.183   0.008  0.00  0.00    +0.071 A 
ATOM      6  C   UNL     1       1.178   1.787   0.000  0.00  0.00    +0.071 A 
ATOM      7  C   UNL     1      -0.013   1.076   0.008  0.00  0.00    +0.053 A 
ATOM      8  C   UNL     1      -1.221   1.754   0.017  0.00  0.00    +0.053 A 
ATOM      9  N   UNL     1       2.518   1.403  -0.015  0.00  0.00    -0.295 N 
ATOM     10  C   UNL     1       3.279   2.514  -0.017  0.00  0.00    +0.330 A 
ATOM     11  O   UNL     1       4.495   2.530  -0.029  0.00  0.00    -0.246 OA
ATOM     12  N   UNL     1       2.489   3.604  -0.003  0.00  0.00    -0.295 N 
ATOM     13  C   UNL     1       2.949   4.995   0.001  0.00  0.00    +0.154 C 
ATOM     14  C   UNL     1       3.015   0.024  -0.027  0.00  0.00    +0.154 C 
BRANCH   8  15
ATOM     15  N   UNL     1      -2.425   1.037   0.019  0.00  0.00    -0.335 N 
ATOM     16  C   UNL     1      -2.532   0.186  -1.173  0.00  0.00    +0.129 C 
ATOM     17  C   UNL     1      -2.564   0.243   1.247  0.00  0.00    +0.129 C 
ENDBRANCH   8  15
ENDBRANCH   1   3
BRANCH   1  25
ATOM     18  C   UNL     1      -2.831   8.368   0.072  0.00  0.00    +0.068 C 
ATOM     19  C   UNL     1      -3.905   7.310   0.078  0.00  0.00    +0.070 C 
ATOM     20  N   UNL     1      -5.187   7.519   0.091  0.00  0.00    -0.176 NA
ATOM     21  N   UNL     1      -5.895   6.317   0.092  0.00  0.00    -0.156 N 
ATOM     22  C   UNL     1      -5.040   5.275   0.072  0.00  0.00    +0.273 C 
ATOM     23  O   UNL     1      -5.328   4.090   0.062  0.00  0.00    -0.268 OA
ATOM     24  C   UNL     1      -3.692   5.856   0.069  0.00  0.00    +0.075 C 
ATOM     25  C   UNL     1      -2.482   5.180   0.054  0.00  0.00    +0.087 C 
BRANCH  21  26
ATOM     26  C   UNL     1      -7.292   6.210   0.104  0.00  0.00    +0.061 A 
ATOM     27  C   UNL     1      -7.893   4.958   0.098  0.00  0.00    +0.028 A 
ATOM     28  C   UNL     1      -9.270   4.853   0.115  0.00  0.00    +0.040 A 
ATOM     29  C   UNL     1     -10.052   5.996   0.128  0.00  0.00    +0.124 A 
ATOM     30  C   UNL     1      -9.455   7.246   0.129  0.00  0.00    +0.040 A 
ATOM     31  C   UNL     1      -8.078   7.354   0.117  0.00  0.00    +0.028 A 
ATOM     32  F   UNL     1     -11.399   5.892   0.139  0.00  0.00    -0.205 F 
ENDBRANCH  21  26
ENDBRANCH   1  25
TORSDOF 4
