REMARK  Name = ZINC48416624
REMARK  5 active torsions:
REMARK  status: ('A' for Active; 'I' for Inactive)
REMARK    1  A    between atoms: C_1  and  C_2
REMARK    2  A    between atoms: C_7  and  C_8
REMARK    3  A    between atoms: C_7  and  C_9
REMARK    4  A    between atoms: N_12  and  N_13
REMARK    5  A    between atoms: C_14  and  C_16
REMARK                            x       y       z     vdW  Elec       q    Type
REMARK                         _______ _______ _______ _____ _____    ______ ____
ROOT
ATOM      1  C   UNL     1      -0.037   1.546   0.138  0.00  0.00    +0.018 C 
ATOM      2  C   UNL     1      -0.001   0.018   0.071  0.00  0.00    +0.013 C 
ATOM      3  C   UNL     1       0.673  -0.592  -1.195  0.00  0.00    +0.013 C 
ATOM      4  C   UNL     1       1.037  -2.037  -0.785  0.00  0.00    +0.005 C 
ATOM      5  C   UNL     1       0.538  -2.161   0.688  0.00  0.00    +0.001 C 
ATOM      6  C   UNL     1       0.806  -0.704   1.207  0.00  0.00    -0.021 C 
ATOM      7  C   UNL     1       2.293  -0.345   1.174  0.00  0.00    +0.012 C 
ATOM      8  C   UNL     1       0.194  -0.464   2.589  0.00  0.00    +0.012 C 
ATOM      9  C   UNL     1      -1.017  -2.155   0.570  0.00  0.00    +0.057 C 
ATOM     10  C   UNL     1      -1.359  -0.689   0.187  0.00  0.00    +0.044 C 
ATOM     11  N   UNL     1      -2.517  -0.183  -0.014  0.00  0.00    -0.188 NA
ENDROOT
BRANCH  11  12
ATOM     12  N   UNL     1      -2.635   1.113  -0.532  0.00  0.00    -0.202 N 
ATOM     13  C   UNL     1      -3.849   1.688  -0.640  0.00  0.00    +0.280 C 
ATOM     14  O   UNL     1      -4.844   1.081  -0.286  0.00  0.00    -0.267 OA
ATOM     15  H   UNL     1      -1.843   1.597  -0.813  0.00  0.00    +0.178 HD
BRANCH  13  16
ATOM     16  C   UNL     1      -3.973   3.045  -1.182  0.00  0.00    +0.105 A 
ATOM     17  C   UNL     1      -5.144   3.755  -1.343  0.00  0.00    +0.047 A 
ATOM     18  C   UNL     1      -4.801   4.995  -1.890  0.00  0.00    +0.036 A 
ATOM     19  C   UNL     1      -3.456   5.021  -2.050  0.00  0.00    +0.098 A 
ATOM     20  N   UNL     1      -2.940   3.844  -1.618  0.00  0.00    -0.356 N 
ATOM     21  H   UNL     1      -2.001   3.603  -1.618  0.00  0.00    +0.166 HD
ATOM     22 BR   UNL     1      -6.002   6.389  -2.329  0.00  0.00    -0.049 Br
ENDBRANCH  13  16
ENDBRANCH  11  12
TORSDOF 2
