REMARK  Name = ZINC50039415
REMARK  5 active torsions:
REMARK  status: ('A' for Active; 'I' for Inactive)
REMARK    1  A    between atoms: C_1  and  C_2
REMARK    2  A    between atoms: C_6  and  C_7
REMARK    3  A    between atoms: C_8  and  C_14
REMARK    4  A    between atoms: C_9  and  N_13
REMARK    5  A    between atoms: N_10  and  C_12
REMARK                            x       y       z     vdW  Elec       q    Type
REMARK                         _______ _______ _______ _____ _____    ______ ____
ROOT
ATOM      1  C   UNL     1       0.031  -0.386   2.500  0.00  0.00    +0.137 A 
ATOM      2  C   UNL     1       0.059  -1.238   3.635  0.00  0.00    +0.052 A 
ATOM      3  C   UNL     1       0.058  -0.428   4.755  0.00  0.00    +0.123 A 
ATOM      4  N   UNL     1       0.030   0.860   4.325  0.00  0.00    -0.253 N 
ATOM      5  N   UNL     1       0.019   0.859   2.926  0.00  0.00    -0.166 NA
ATOM      6  C   UNL     1       0.018   2.048   5.181  0.00  0.00    +0.174 C 
ENDROOT
BRANCH   2   7
ATOM      7  C   UNL     1       0.085  -2.719   3.622  0.00  0.00    -0.011 A 
ATOM      8  C   UNL     1      -1.000  -3.433   3.113  0.00  0.00    +0.010 A 
ATOM      9  C   UNL     1      -0.972  -4.813   3.103  0.00  0.00    +0.022 A 
ATOM     10  C   UNL     1       0.131  -5.489   3.597  0.00  0.00    +0.059 A 
ATOM     11  C   UNL     1       1.212  -4.785   4.103  0.00  0.00    +0.060 A 
ATOM     12  C   UNL     1       1.196  -3.404   4.112  0.00  0.00    +0.030 A 
ATOM     13 CL   UNL     1       2.591  -5.641   4.720  0.00  0.00    -0.082 Cl
ATOM     14 CL   UNL     1       0.160  -7.225   3.581  0.00  0.00    -0.082 Cl
ENDBRANCH   2   7
BRANCH   1  20
ATOM     15  C   UNL     1      -0.018   1.503   0.010  0.00  0.00    +0.048 C 
ATOM     16  C   UNL     1       0.002  -0.004   0.002  0.00  0.00    -0.003 A 
ATOM     17  C   UNL     1       0.009  -0.839  -1.134  0.00  0.00    +0.045 A 
ATOM     18  C   UNL     1       0.028  -2.110  -0.689  0.00  0.00    +0.196 A 
ATOM     19  O   UNL     1       0.033  -2.096   0.654  0.00  0.00    -0.461 OA
ATOM     20  C   UNL     1       0.024  -0.821   1.089  0.00  0.00    +0.158 A 
ENDBRANCH   1  20
BRANCH   3  21
ATOM     21  N   UNL     1       0.080  -0.853   6.077  0.00  0.00    -0.343 N 
ATOM     22  H   UNL     1       0.099  -1.801   6.281  0.00  0.00    +0.144 HD
ATOM     23  H   UNL     1       0.076  -0.202   6.795  0.00  0.00    +0.144 HD
ENDBRANCH   3  21
TORSDOF 3
