REMARK  Name = ZINC02335890
REMARK  14 active torsions:
REMARK  status: ('A' for Active; 'I' for Inactive)
REMARK    1  A    between atoms: C_1  and  C_2
REMARK    2  A    between atoms: C_3  and  C_10
REMARK    3  A    between atoms: N_11  and  N_12
REMARK    4  A    between atoms: C_13  and  C_15
REMARK    5  A    between atoms: C_15  and  C_17
REMARK    6  A    between atoms: C_15  and  N_21
REMARK    7  A    between atoms: C_17  and  C_18
REMARK    8  A    between atoms: C_18  and  C_19
REMARK    9  A    between atoms: C_18  and  C_20
REMARK   10  A    between atoms: C_22  and  O_24
REMARK   11  A    between atoms: O_24  and  C_25
REMARK   12  A    between atoms: C_25  and  C_26
REMARK   13  A    between atoms: C_25  and  C_27
REMARK   14  A    between atoms: C_25  and  C_28
REMARK                            x       y       z     vdW  Elec       q    Type
REMARK                         _______ _______ _______ _____ _____    ______ ____
ROOT
ATOM      1  N   UNL     1      -5.034   0.186  -0.840  0.00  0.00    -0.205 N 
ATOM      2  C   UNL     1      -5.984  -0.630  -0.342  0.00  0.00    +0.253 C 
ATOM      3  O   UNL     1      -5.758  -1.815  -0.208  0.00  0.00    -0.272 OA
ATOM      4  H   UNL     1      -5.231   1.124  -0.991  0.00  0.00    +0.177 HD
ENDROOT
BRANCH   1   6
ATOM      5  C   UNL     1      -2.847   0.466  -1.619  0.00  0.00    +0.145 C 
ATOM      6  N   UNL     1      -3.763  -0.321  -1.139  0.00  0.00    -0.187 NA
BRANCH   5   9
ATOM      7  C   UNL     1      -0.810   2.206  -2.685  0.00  0.00    +0.064 C 
ATOM      8  C   UNL     1      -0.533   0.745  -2.439  0.00  0.00    +0.031 A 
ATOM      9  C   UNL     1      -1.511  -0.067  -1.934  0.00  0.00    +0.078 A 
ATOM     10  C   UNL     1      -1.192  -1.486  -1.712  0.00  0.00    +0.263 A 
ATOM     11  N   UNL     1       0.048  -1.925  -2.016  0.00  0.00    -0.275 N 
ATOM     12  C   UNL     1       0.967  -1.077  -2.511  0.00  0.00    +0.327 A 
ATOM     13  N   UNL     1       0.693   0.220  -2.725  0.00  0.00    -0.311 N 
ATOM     14  O   UNL     1       2.076  -1.498  -2.776  0.00  0.00    -0.247 OA
ATOM     15  O   UNL     1      -2.028  -2.248  -1.264  0.00  0.00    -0.267 OA
ATOM     16  H   UNL     1       0.277  -2.857  -1.877  0.00  0.00    +0.173 HD
ATOM     17  H   UNL     1       1.384   0.797  -3.087  0.00  0.00    +0.170 HD
ENDBRANCH   5   9
ENDBRANCH   1   6
BRANCH   2  18
ATOM     18  C   UNL     1      -7.329  -0.071   0.048  0.00  0.00    +0.164 C 
BRANCH  18  19
ATOM     19  N   UNL     1      -8.270  -1.172   0.269  0.00  0.00    -0.270 N 
ATOM     20  C   UNL     1      -9.597  -0.950   0.195  0.00  0.00    +0.401 C 
ATOM     21  O   UNL     1     -10.012   0.141  -0.141  0.00  0.00    -0.226 OA
ATOM     22  H   UNL     1      -7.937  -2.062   0.468  0.00  0.00    +0.153 HD
BRANCH  20  23
ATOM     23  O   UNL     1     -10.463  -1.936   0.495  0.00  0.00    -0.445 OA
BRANCH  23  24
ATOM     24  C   UNL     1     -11.855  -1.630   0.396  0.00  0.00    +0.107 C 
ATOM     25  C   UNL     1     -12.185  -1.216  -1.040  0.00  0.00    +0.055 C 
ATOM     26  C   UNL     1     -12.677  -2.864   0.772  0.00  0.00    +0.055 C 
ATOM     27  C   UNL     1     -12.194  -0.482   1.349  0.00  0.00    +0.055 C 
ENDBRANCH  23  24
ENDBRANCH  20  23
ENDBRANCH  18  19
BRANCH  18  28
ATOM     28  C   UNL     1      -7.188   0.745   1.334  0.00  0.00    +0.035 C 
BRANCH  28  29
ATOM     29  C   UNL     1      -6.233   1.916   1.093  0.00  0.00    -0.015 C 
ATOM     30  C   UNL     1      -6.861   2.889   0.094  0.00  0.00    +0.007 C 
ATOM     31  C   UNL     1      -5.970   2.640   2.414  0.00  0.00    +0.007 C 
ENDBRANCH  28  29
ENDBRANCH  18  28
ENDBRANCH   2  18
TORSDOF 8
