REMARK  Name = ZINC48837184
REMARK  3 active torsions:
REMARK  status: ('A' for Active; 'I' for Inactive)
REMARK    1  A    between atoms: C_3  and  N_20
REMARK    2  A    between atoms: N_10  and  C_11
REMARK    3  A    between atoms: C_14  and  C_17
REMARK                            x       y       z     vdW  Elec       q    Type
REMARK                         _______ _______ _______ _____ _____    ______ ____
ROOT
ATOM      1  C   UNL     1      -0.017   1.532   0.004  0.00  0.00    +0.017 C 
ATOM      2  C   UNL     1       1.422   2.054  -0.004  0.00  0.00    -0.013 C 
ATOM      3  C   UNL     1       2.130   1.584  -1.276  0.00  0.00    -0.057 C 
ATOM      4  C   UNL     1       2.171   0.052  -1.296  0.00  0.00    +0.093 C 
ATOM      5  N   UNL     1       0.802  -0.460  -1.143  0.00  0.00    -0.287 N 
ATOM      6  C   UNL     1      -0.000   0.001  -0.001  0.00  0.00    +0.109 C 
ATOM      7  C   UNL     1       0.293  -1.334  -2.033  0.00  0.00    +0.302 C 
ATOM      8  O   UNL     1       0.930  -1.634  -3.024  0.00  0.00    -0.253 OA
ATOM      9  N   UNL     1      -0.923  -1.876  -1.824  0.00  0.00    -0.296 N 
ATOM     10  H   UNL     1      -1.462  -1.584  -1.072  0.00  0.00    +0.151 HD
ENDROOT
BRANCH   9  11
ATOM     11  C   UNL     1      -1.431  -2.908  -2.732  0.00  0.00    +0.074 C 
ATOM     12  C   UNL     1      -2.097  -2.242  -3.938  0.00  0.00    +0.023 C 
ATOM     13  C   UNL     1      -2.627  -3.319  -4.886  0.00  0.00    +0.016 C 
ATOM     14  C   UNL     1      -3.652  -4.186  -4.152  0.00  0.00    +0.102 C 
ATOM     15  C   UNL     1      -2.987  -4.851  -2.945  0.00  0.00    +0.016 C 
ATOM     16  C   UNL     1      -2.456  -3.774  -1.997  0.00  0.00    +0.023 C 
BRANCH  14  17
ATOM     17  C   UNL     1      -4.175  -5.247  -5.086  0.00  0.00    +0.359 C 
ATOM     18  O   UNL     1      -4.538  -6.323  -4.643  0.00  0.00    -0.246 OA
ATOM     19  O   UNL     1      -4.234  -5.029  -6.284  0.00  0.00    -0.246 OA
ENDBRANCH  14  17
ENDBRANCH   9  11
BRANCH   3  20
ATOM     20  N   UNL     1       3.501   2.112  -1.298  0.00  0.00    +0.381 N 
ATOM     21  H   UNL     1       4.003   1.777  -0.490  0.00  0.00    -0.090 HD
ATOM     22  H   UNL     1       3.967   1.801  -2.137  0.00  0.00    -0.090 HD
ATOM     23  H   UNL     1       3.473   3.120  -1.283  0.00  0.00    -0.090 HD
ENDBRANCH   3  20
TORSDOF 3
