REMARK  Name = ZINC02578358
REMARK  6 active torsions:
REMARK  status: ('A' for Active; 'I' for Inactive)
REMARK    1  A    between atoms: C_1  and  C_2
REMARK    2  A    between atoms: C_5  and  C_8
REMARK    3  A    between atoms: C_8  and  N_9
REMARK    4  A    between atoms: N_14  and  C_15
REMARK    5  A    between atoms: N_16  and  C_23
REMARK    6  A    between atoms: N_19  and  C_22
REMARK                            x       y       z     vdW  Elec       q    Type
REMARK                         _______ _______ _______ _____ _____    ______ ____
ROOT
ATOM      1  N   UNL     1       2.098   4.535   0.006  0.00  0.00    -0.302 N 
ATOM      2  C   UNL     1       1.123   3.547   0.010  0.00  0.00    +0.153 A 
ATOM      3  C   UNL     1      -0.102   4.205   0.026  0.00  0.00    +0.170 A 
ATOM      4  N   UNL     1       0.146   5.516   0.030  0.00  0.00    -0.196 NA
ATOM      5  C   UNL     1       1.446   5.728   0.019  0.00  0.00    +0.198 A 
ATOM      6  N   UNL     1       2.050   6.965   0.019  0.00  0.00    -0.318 N 
ATOM      7  C   UNL     1       1.232   8.180   0.034  0.00  0.00    +0.128 C 
ATOM      8  N   UNL     1      -1.264   3.451   0.033  0.00  0.00    -0.280 N 
ATOM      9  C   UNL     1      -1.197   2.107   0.019  0.00  0.00    +0.333 A 
ATOM     10  O   UNL     1      -2.227   1.461   0.020  0.00  0.00    -0.246 OA
ATOM     11  N   UNL     1      -0.018   1.461   0.010  0.00  0.00    -0.262 N 
ATOM     12  C   UNL     1       1.147   2.141   0.003  0.00  0.00    +0.282 A 
ATOM     13  O   UNL     1       2.209   1.543  -0.011  0.00  0.00    -0.265 OA
ATOM     14  C   UNL     1       0.002  -0.004   0.002  0.00  0.00    +0.157 C 
ATOM     15  C   UNL     1      -2.569   4.118   0.049  0.00  0.00    +0.155 C 
ATOM     16  H   UNL     1       3.018   7.032   0.010  0.00  0.00    +0.149 HD
ENDROOT
BRANCH   1  17
ATOM     17  C   UNL     1       3.549   4.332  -0.009  0.00  0.00    +0.160 C 
BRANCH  17  22
ATOM     18  C   UNL     1       5.404   4.095  -5.476  0.00  0.00    +0.044 C 
ATOM     19  C   UNL     1       4.921   4.157  -4.050  0.00  0.00    -0.050 A 
ATOM     20  C   UNL     1       4.865   5.371  -3.392  0.00  0.00    +0.004 A 
ATOM     21  C   UNL     1       4.421   5.428  -2.084  0.00  0.00    +0.005 A 
ATOM     22  C   UNL     1       4.033   4.271  -1.434  0.00  0.00    -0.028 A 
ATOM     23  C   UNL     1       4.094   3.056  -2.091  0.00  0.00    +0.005 A 
ATOM     24  C   UNL     1       4.534   2.999  -3.401  0.00  0.00    +0.004 A 
ENDBRANCH  17  22
ENDBRANCH   1  17
TORSDOF 2
