REMARK  Name = ZINC56017474
REMARK  5 active torsions:
REMARK  status: ('A' for Active; 'I' for Inactive)
REMARK    1  A    between atoms: C_1  and  C_2
REMARK    2  A    between atoms: C_6  and  C_25
REMARK    3  A    between atoms: C_10  and  C_12
REMARK    4  A    between atoms: C_12  and  O_13
REMARK    5  A    between atoms: O_13  and  C_14
REMARK                            x       y       z     vdW  Elec       q    Type
REMARK                         _______ _______ _______ _____ _____    ______ ____
ROOT
ATOM      1  C   UNL     1      -0.019   1.526   0.010  0.00  0.00    +0.028 C 
ATOM      2  C   UNL     1       0.002  -0.004   0.002  0.00  0.00    +0.073 C 
ATOM      3  C   UNL     1      -1.434  -0.537   0.020  0.00  0.00    +0.023 C 
ATOM      4  C   UNL     1      -2.101  -0.151   1.343  0.00  0.00    +0.016 C 
ATOM      5  C   UNL     1      -1.335  -0.786   2.506  0.00  0.00    +0.092 C 
ATOM      6  C   UNL     1       0.102  -0.256   2.516  0.00  0.00    +0.121 C 
ATOM      7  N   UNL     1       0.706  -0.494   1.195  0.00  0.00    -0.295 N 
ATOM      8  C   UNL     1       1.879  -1.149   1.080  0.00  0.00    +0.253 C 
ATOM      9  O   UNL     1       2.362  -1.339  -0.016  0.00  0.00    -0.272 OA
ENDROOT
BRANCH   5  10
ATOM     10  C   UNL     1      -2.011  -0.433   3.805  0.00  0.00    +0.215 C 
ATOM     11  O   UNL     1      -3.008   0.259   3.802  0.00  0.00    -0.276 OA
ATOM     12  N   UNL     1      -1.509  -0.885   4.971  0.00  0.00    -0.329 N 
ATOM     13  H   UNL     1      -0.712  -1.438   4.974  0.00  0.00    +0.145 HD
ATOM     14  H   UNL     1      -1.945  -0.658   5.808  0.00  0.00    +0.145 HD
ENDBRANCH   5  10
BRANCH   8  15
ATOM     15  C   UNL     1       2.589  -1.645   2.313  0.00  0.00    +0.324 C 
BRANCH  15  16
ATOM     16  O   UNL     1       3.800  -2.302   1.933  0.00  0.00    -0.483 OA
BRANCH  16  17
ATOM     17  C   UNL     1       4.566  -2.812   2.935  0.00  0.00    +0.122 A 
ATOM     18  C   UNL     1       4.155  -2.686   4.254  0.00  0.00    +0.047 A 
ATOM     19  C   UNL     1       4.932  -3.203   5.271  0.00  0.00    +0.027 A 
ATOM     20  C   UNL     1       6.125  -3.849   4.974  0.00  0.00    +0.037 A 
ATOM     21  C   UNL     1       6.534  -3.974   3.653  0.00  0.00    -0.022 A 
ATOM     22  C   UNL     1       5.754  -3.462   2.636  0.00  0.00    +0.051 A 
ATOM     23  C   UNL     1       7.828  -4.677   3.333  0.00  0.00    +0.046 C 
ATOM     24  C   UNL     1       8.843  -4.411   4.445  0.00  0.00    +0.101 C 
ATOM     25  C   UNL     1       8.211  -4.664   5.787  0.00  0.00    +0.218 C 
ATOM     26  O   UNL     1       8.879  -5.133   6.685  0.00  0.00    -0.275 OA
ATOM     27  N   UNL     1       6.915  -4.375   6.003  0.00  0.00    -0.285 N 
ATOM     28  H   UNL     1       6.525  -4.533   6.877  0.00  0.00    +0.155 HD
ENDBRANCH  16  17
ENDBRANCH  15  16
ENDBRANCH   8  15
TORSDOF 4
