REMARK  Name = ZINC36535146
REMARK  18 active torsions:
REMARK  status: ('A' for Active; 'I' for Inactive)
REMARK    1  A    between atoms: C_1  and  C_2
REMARK    2  A    between atoms: C_2  and  C_30
REMARK    3  A    between atoms: C_3  and  C_4
REMARK    4  A    between atoms: N_6  and  C_7
REMARK    5  A    between atoms: N_6  and  C_8
REMARK    6  A    between atoms: C_8  and  C_10
REMARK    7  A    between atoms: C_8  and  C_19
REMARK    8  A    between atoms: C_11  and  O_18
REMARK    9  A    between atoms: C_13  and  O_17
REMARK   10  A    between atoms: C_15  and  O_16
REMARK   11  A    between atoms: N_21  and  C_22
REMARK   12  A    between atoms: C_22  and  C_23
REMARK   13  A    between atoms: C_22  and  C_24
REMARK   14  A    between atoms: C_22  and  C_25
REMARK   15  A    between atoms: C_25  and  C_26
REMARK   16  A    between atoms: C_26  and  C_27
REMARK   17  A    between atoms: C_26  and  C_28
REMARK   18  A    between atoms: C_26  and  C_29
REMARK                            x       y       z     vdW  Elec       q    Type
REMARK                         _______ _______ _______ _____ _____    ______ ____
ROOT
ATOM      1  C   UNL     1       1.873   0.891   6.832  0.00  0.00    +0.199 C 
ENDROOT
BRANCH   1   2
ATOM      2  C   UNL     1       3.047   0.425   7.654  0.00  0.00    +0.065 A 
ATOM      3  C   UNL     1       2.860  -0.510   8.661  0.00  0.00    +0.129 A 
ATOM      4  C   UNL     1       3.941  -0.939   9.418  0.00  0.00    +0.091 A 
ATOM      5  C   UNL     1       5.207  -0.433   9.166  0.00  0.00    +0.124 A 
ATOM      6  C   UNL     1       5.394   0.500   8.158  0.00  0.00    +0.091 A 
ATOM      7  C   UNL     1       4.314   0.926   7.399  0.00  0.00    +0.129 A 
BRANCH   7   8
ATOM      8  O   UNL     1       4.498   1.838   6.408  0.00  0.00    -0.506 OA
ATOM      9  H   UNL     1       4.408   2.756   6.697  0.00  0.00    +0.292 HD
ENDBRANCH   7   8
BRANCH   5  10
ATOM     10  O   UNL     1       6.266  -0.853   9.908  0.00  0.00    -0.507 OA
ATOM     11  H   UNL     1       6.718  -1.627   9.545  0.00  0.00    +0.292 HD
ENDBRANCH   5  10
BRANCH   3  12
ATOM     12  O   UNL     1       1.619  -1.005   8.908  0.00  0.00    -0.506 OA
ATOM     13  H   UNL     1       1.436  -1.846   8.466  0.00  0.00    +0.292 HD
ENDBRANCH   3  12
ENDBRANCH   1   2
BRANCH   1  16
ATOM     14  C   UNL     1       2.109   1.615   4.517  0.00  0.00    +0.240 C 
ATOM     15  O   UNL     1       1.883   2.753   4.881  0.00  0.00    -0.271 OA
ATOM     16  N   UNL     1       2.126   0.611   5.416  0.00  0.00    -0.285 N 
ATOM     17  C   UNL     1       2.398  -0.760   4.978  0.00  0.00    +0.133 C 
BRANCH  14  20
ATOM     18  C   UNL     1       2.085   3.738   2.660  0.00  0.00    +0.039 C 
ATOM     19  C   UNL     1       2.395   2.332   2.216  0.00  0.00    -0.071 C 
ATOM     20  C   UNL     1       2.363   1.335   3.096  0.00  0.00    +0.066 C 
ATOM     21  C   UNL     1       2.741   2.055   0.776  0.00  0.00    +0.039 C 
ENDBRANCH  14  20
ENDBRANCH   1  16
BRANCH   1  22
ATOM     22  C   UNL     1       0.629   0.162   7.273  0.00  0.00    +0.239 C 
ATOM     23  O   UNL     1       0.262  -0.827   6.676  0.00  0.00    -0.273 OA
ATOM     24  N   UNL     1      -0.074   0.610   8.332  0.00  0.00    -0.308 N 
ATOM     25  H   UNL     1       0.172   1.445   8.759  0.00  0.00    +0.149 HD
BRANCH  24  26
ATOM     26  C   UNL     1      -1.210  -0.165   8.837  0.00  0.00    +0.030 C 
ATOM     27  C   UNL     1      -2.178  -0.459   7.689  0.00  0.00    +0.031 C 
ATOM     28  C   UNL     1      -0.706  -1.482   9.430  0.00  0.00    +0.031 C 
BRANCH  26  29
ATOM     29  C   UNL     1      -1.933   0.638   9.920  0.00  0.00    +0.031 C 
BRANCH  29  30
ATOM     30  C   UNL     1      -2.587   1.870   9.291  0.00  0.00    -0.036 C 
ATOM     31  C   UNL     1      -3.823   1.443   8.497  0.00  0.00    +0.010 C 
ATOM     32  C   UNL     1      -3.001   2.847  10.394  0.00  0.00    +0.010 C 
ATOM     33  C   UNL     1      -1.589   2.554   8.353  0.00  0.00    +0.010 C 
ENDBRANCH  29  30
ENDBRANCH  26  29
ENDBRANCH  24  26
ENDBRANCH   1  22
TORSDOF 10
