REMARK  Name = ZINC30879757
REMARK  9 active torsions:
REMARK  status: ('A' for Active; 'I' for Inactive)
REMARK    1  A    between atoms: C_1  and  C_2
REMARK    2  A    between atoms: N_5  and  C_8
REMARK    3  A    between atoms: C_10  and  C_20
REMARK    4  A    between atoms: C_13  and  C_18
REMARK    5  A    between atoms: C_15  and  O_17
REMARK    6  A    between atoms: C_18  and  O_19
REMARK    7  A    between atoms: C_20  and  N_21
REMARK    8  A    between atoms: C_22  and  C_24
REMARK    9  A    between atoms: C_27  and  C_30
REMARK                            x       y       z     vdW  Elec       q    Type
REMARK                         _______ _______ _______ _____ _____    ______ ____
ROOT
ATOM      1  C   UNL     1      -0.017   1.521   0.246  0.00  0.00    -0.006 C 
ATOM      2  C   UNL     1       1.485   1.492  -0.098  0.00  0.00    +0.125 C 
ATOM      3  O   UNL     1       2.183   2.139   0.979  0.00  0.00    -0.369 OA
ATOM      4  C   UNL     1       1.368   1.985   2.162  0.00  0.00    +0.171 C 
ATOM      5  C   UNL     1      -0.075   2.198   1.637  0.00  0.00    +0.134 C 
ENDROOT
BRANCH   1  10
ATOM      6  C   UNL     1      -3.556   3.926  -3.545  0.00  0.00    +0.007 C 
ATOM      7  C   UNL     1      -2.938   2.974  -2.518  0.00  0.00    -0.018 C 
ATOM      8  C   UNL     1      -1.596   2.457  -3.042  0.00  0.00    -0.016 C 
ATOM      9  C   UNL     1      -0.955   1.554  -1.986  0.00  0.00    -0.078 C 
ATOM     10  N   UNL     1      -0.756   2.315  -0.746  0.00  0.00    +0.385 N 
ATOM     11  C   UNL     1      -2.036   2.781  -0.198  0.00  0.00    -0.078 C 
ATOM     12  C   UNL     1      -2.710   3.721  -1.201  0.00  0.00    -0.016 C 
ATOM     13  H   UNL     1      -0.153   3.202  -0.989  0.00  0.00    -0.081 HD
ENDBRANCH   1  10
BRANCH   5  14
ATOM     14  O   UNL     1      -0.372   3.590   1.515  0.00  0.00    -0.391 OA
ATOM     15  H   UNL     1      -0.449   4.217   2.416  0.00  0.00    +0.210 HD
ENDBRANCH   5  14
BRANCH   4  16
ATOM     16  C   UNL     1       1.725   3.047   3.204  0.00  0.00    +0.190 C 
BRANCH  16  17
ATOM     17  O   UNL     1       3.054   2.820   3.679  0.00  0.00    -0.392 OA
ATOM     18  H   UNL     1       3.487   3.487   4.438  0.00  0.00    +0.210 HD
ENDBRANCH  16  17
ENDBRANCH   4  16
BRANCH   2  19
ATOM     19  C   UNL     1       1.733   2.242  -1.408  0.00  0.00    +0.134 C 
BRANCH  19  20
ATOM     20  N   UNL     1       3.175   2.404  -1.612  0.00  0.00    -0.309 N 
ATOM     21  C   UNL     1       3.633   3.040  -2.708  0.00  0.00    +0.244 C 
ATOM     22  O   UNL     1       2.850   3.479  -3.528  0.00  0.00    -0.270 OA
ATOM     23  H   UNL     1       3.883   2.006  -0.871  0.00  0.00    +0.149 HD
BRANCH  21  24
ATOM     24  C   UNL     1       5.088   3.203  -2.914  0.00  0.00    +0.037 A 
ATOM     25  C   UNL     1       5.990   2.704  -1.973  0.00  0.00    +0.013 A 
ATOM     26  C   UNL     1       7.346   2.855  -2.173  0.00  0.00    +0.013 A 
ATOM     27  C   UNL     1       7.813   3.509  -3.300  0.00  0.00    +0.055 A 
ATOM     28  C   UNL     1       6.925   4.010  -4.235  0.00  0.00    +0.013 A 
ATOM     29  C   UNL     1       5.566   3.861  -4.049  0.00  0.00    +0.013 A 
BRANCH  27  30
ATOM     30  C   UNL     1       9.296   3.675  -3.510  0.00  0.00    +0.417 C 
ATOM     31  F   UNL     1       9.718   4.874  -2.924  0.00  0.00    -0.166 F 
ATOM     32  F   UNL     1       9.974   2.604  -2.919  0.00  0.00    -0.166 F 
ATOM     33  F   UNL     1       9.573   3.703  -4.881  0.00  0.00    -0.166 F 
ENDBRANCH  27  30
ENDBRANCH  21  24
ENDBRANCH  19  20
ENDBRANCH   2  19
TORSDOF 8
