REMARK  Name = ZINC42804612
REMARK  8 active torsions:
REMARK  status: ('A' for Active; 'I' for Inactive)
REMARK    1  A    between atoms: C_1  and  C_2
REMARK    2  A    between atoms: C_2  and  C_3
REMARK    3  A    between atoms: C_3  and  N_4
REMARK    4  A    between atoms: C_5  and  N_24
REMARK    5  A    between atoms: C_6  and  N_13
REMARK    6  A    between atoms: N_13  and  C_14
REMARK    7  A    between atoms: C_14  and  C_15
REMARK    8  A    between atoms: C_21  and  C_23
REMARK                            x       y       z     vdW  Elec       q    Type
REMARK                         _______ _______ _______ _____ _____    ______ ____
ROOT
ATOM      1  N   UNL     1       0.738  -1.962  -1.265  0.00  0.00    -0.281 N 
ATOM      2  C   UNL     1       1.784  -2.636  -0.676  0.00  0.00    +0.127 A 
ATOM      3  C   UNL     1       1.793  -4.004  -0.689  0.00  0.00    +0.131 A 
ATOM      4  C   UNL     1       0.730  -4.688  -1.305  0.00  0.00    +0.277 A 
ATOM      5  O   UNL     1       0.715  -5.907  -1.328  0.00  0.00    -0.266 OA
ATOM      6  N   UNL     1      -0.274  -3.987  -1.869  0.00  0.00    -0.273 N 
ATOM      7  H   UNL     1      -1.008  -4.457  -2.293  0.00  0.00    +0.173 HD
ATOM      8  C   UNL     1      -0.269  -2.642  -1.843  0.00  0.00    +0.331 A 
ATOM      9  O   UNL     1      -1.188  -2.030  -2.354  0.00  0.00    -0.246 OA
ENDROOT
BRANCH   2  10
ATOM     10  N   UNL     1       2.812  -1.940  -0.082  0.00  0.00    -0.343 N 
ATOM     11  H   UNL     1       2.801  -0.970  -0.076  0.00  0.00    +0.144 HD
ATOM     12  H   UNL     1       3.547  -2.419   0.332  0.00  0.00    +0.144 HD
ENDBRANCH   2  10
BRANCH   3  13
ATOM     13  N   UNL     1       2.857  -4.720  -0.092  0.00  0.00    -0.337 N 
ATOM     14  H   UNL     1       3.587  -4.242   0.331  0.00  0.00    +0.146 HD
BRANCH  13  15
ATOM     15  C   UNL     1       2.855  -6.185  -0.111  0.00  0.00    +0.105 C 
BRANCH  15  16
ATOM     16  C   UNL     1       4.108  -6.706   0.596  0.00  0.00    +0.009 C 
ATOM     17  C   UNL     1       5.350  -6.292  -0.195  0.00  0.00    +0.005 C 
ATOM     18  C   UNL     1       6.603  -6.812   0.513  0.00  0.00    +0.000 C 
ATOM     19  C   UNL     1       6.540  -8.339   0.602  0.00  0.00    +0.000 C 
ATOM     20  C   UNL     1       5.298  -8.753   1.394  0.00  0.00    +0.003 C 
ATOM     21  C   UNL     1       4.046  -8.232   0.686  0.00  0.00    -0.010 C 
ATOM     22  C   UNL     1       3.973  -8.823  -0.723  0.00  0.00    +0.008 C 
ENDBRANCH  15  16
ENDBRANCH  13  15
ENDBRANCH   3  13
BRANCH   1  23
ATOM     23  C   UNL     1       0.718  -0.497  -1.257  0.00  0.00    +0.128 C 
BRANCH  23  25
ATOM     24  C   UNL     1      -0.019   1.526   0.010  0.00  0.00    +0.005 C 
ATOM     25  C   UNL     1       0.002  -0.004   0.002  0.00  0.00    +0.018 C 
ENDBRANCH  23  25
ENDBRANCH   1  23
TORSDOF 6
