REMARK  Name = ZINC45113753
REMARK  10 active torsions:
REMARK  status: ('A' for Active; 'I' for Inactive)
REMARK    1  A    between atoms: C_1  and  C_2
REMARK    2  A    between atoms: C_2  and  C_3
REMARK    3  A    between atoms: C_2  and  C_4
REMARK    4  A    between atoms: C_2  and  N_7
REMARK    5  A    between atoms: N_7  and  S_8
REMARK    6  A    between atoms: S_8  and  C_11
REMARK    7  A    between atoms: C_13  and  C_17
REMARK    8  A    between atoms: C_18  and  C_19
REMARK    9  A    between atoms: C_19  and  C_20
REMARK   10  A    between atoms: C_20  and  O_21
REMARK                            x       y       z     vdW  Elec       q    Type
REMARK                         _______ _______ _______ _____ _____    ______ ____
ROOT
ATOM      1  S   UNL     1       1.945   0.250  -1.379  0.00  0.00    +0.061 S 
ATOM      2  O   UNL     1       2.429  -0.422  -2.533  0.00  0.00    -0.153 OA
ATOM      3  O   UNL     1       1.845   1.665  -1.307  0.00  0.00    -0.153 OA
ENDROOT
BRANCH   1   4
ATOM      4  C   UNL     1       2.971  -0.252  -0.037  0.00  0.00    +0.124 A 
ATOM      5  C   UNL     1       2.945   0.443   1.160  0.00  0.00    +0.048 A 
ATOM      6  C   UNL     1       3.777   0.007   2.198  0.00  0.00    +0.045 A 
ATOM      7  C   UNL     1       4.596  -1.103   1.984  0.00  0.00    +0.127 A 
ATOM      8  N   UNL     1       4.585  -1.730   0.827  0.00  0.00    -0.260 NA
ATOM      9  C   UNL     1       3.806  -1.346  -0.167  0.00  0.00    +0.139 A 
BRANCH   6  10
ATOM     10  C   UNL     1       3.789   0.690   3.456  0.00  0.00    -0.065 C 
ATOM     11  C   UNL     1       3.799   1.249   4.488  0.00  0.00    -0.095 C 
BRANCH  11  12
ATOM     12  C   UNL     1       3.812   1.951   5.782  0.00  0.00    +0.117 C 
BRANCH  12  13
ATOM     13  C   UNL     1       4.805   1.267   6.724  0.00  0.00    +0.168 C 
BRANCH  13  14
ATOM     14  O   UNL     1       4.817   1.948   7.980  0.00  0.00    -0.394 OA
ATOM     15  H   UNL     1       5.426   1.568   8.628  0.00  0.00    +0.209 HD
ENDBRANCH  13  14
ENDBRANCH  12  13
ENDBRANCH  11  12
ENDBRANCH   6  10
ENDBRANCH   1   4
BRANCH   1  16
ATOM     16  N   UNL     1       0.428  -0.347  -1.085  0.00  0.00    -0.176 NA
ATOM     17  H   UNL     1      -0.300   0.260  -0.881  0.00  0.00    +0.149 HD
BRANCH  16  19
ATOM     18  C   UNL     1       1.215  -2.510  -0.257  0.00  0.00    +0.039 C 
ATOM     19  C   UNL     1       0.187  -1.791  -1.134  0.00  0.00    +0.110 C 
ATOM     20  C   UNL     1       0.317  -2.281  -2.578  0.00  0.00    +0.039 C 
BRANCH  19  21
ATOM     21  C   UNL     1      -1.200  -2.087  -0.627  0.00  0.00    +0.232 C 
ATOM     22  O   UNL     1      -1.845  -2.990  -1.115  0.00  0.00    -0.274 OA
ATOM     23  N   UNL     1      -1.725  -1.346   0.370  0.00  0.00    -0.328 N 
ATOM     24  H   UNL     1      -1.209  -0.624   0.761  0.00  0.00    +0.145 HD
ATOM     25  H   UNL     1      -2.618  -1.536   0.697  0.00  0.00    +0.145 HD
ENDBRANCH  19  21
ENDBRANCH  16  19
ENDBRANCH   1  16
TORSDOF 8
