REMARK  Name = ZINC02087362
REMARK  7 active torsions:
REMARK  status: ('A' for Active; 'I' for Inactive)
REMARK    1  A    between atoms: C_1  and  O_2
REMARK    2  A    between atoms: O_2  and  C_3
REMARK    3  A    between atoms: C_3  and  C_5
REMARK    4  A    between atoms: C_9  and  N_10
REMARK    5  A    between atoms: C_11  and  C_13
REMARK    6  A    between atoms: C_13  and  C_14
REMARK    7  A    between atoms: C_14  and  C_15
REMARK                            x       y       z     vdW  Elec       q    Type
REMARK                         _______ _______ _______ _____ _____    ______ ____
ROOT
ATOM      1  C   UNL     1       6.816   1.326   2.971  0.00  0.00    +0.091 A 
ATOM      2  C   UNL     1       8.124   1.951   2.735  0.00  0.00    -0.021 A 
ATOM      3  C   UNL     1       8.147   2.785   1.683  0.00  0.00    -0.004 A 
ATOM      4  S   UNL     1       6.518   2.719   0.984  0.00  0.00    -0.077 S 
ATOM      5  C   UNL     1       5.786   1.611   2.093  0.00  0.00    +0.086 A 
ATOM      6  C   UNL     1       9.271   3.661   1.204  0.00  0.00    +0.043 C 
ATOM      7  C   UNL     1       9.267   4.916   2.096  0.00  0.00    +0.005 C 
ATOM      8  C   UNL     1       9.322   4.464   3.561  0.00  0.00    +0.000 C 
ATOM      9  C   UNL     1      10.636   3.726   3.704  0.00  0.00    +0.000 C 
ATOM     10  C   UNL     1      10.584   2.275   3.257  0.00  0.00    +0.005 C 
ATOM     11  C   UNL     1       9.286   1.586   3.660  0.00  0.00    +0.037 C 
ENDROOT
BRANCH   5  12
ATOM     12  N   UNL     1       4.486   1.131   2.103  0.00  0.00    -0.279 N 
ATOM     13  C   UNL     1       3.613   1.531   1.157  0.00  0.00    +0.218 C 
ATOM     14  O   UNL     1       3.965   2.311   0.298  0.00  0.00    -0.275 OA
ATOM     15  H   UNL     1       4.204   0.507   2.791  0.00  0.00    +0.155 HD
BRANCH  13  16
ATOM     16  C   UNL     1       2.199   1.009   1.168  0.00  0.00    +0.096 C 
BRANCH  16  17
ATOM     17  C   UNL     1       1.423   1.615  -0.003  0.00  0.00    +0.013 C 
BRANCH  17  18
ATOM     18  C   UNL     1      -0.013   1.086   0.008  0.00  0.00    -0.011 C 
ATOM     19  C   UNL     1      -0.729   1.579   1.267  0.00  0.00    +0.003 C 
ATOM     20  C   UNL     1      -2.164   1.050   1.278  0.00  0.00    +0.000 C 
ATOM     21  C   UNL     1      -2.904   1.556   0.038  0.00  0.00    +0.000 C 
ATOM     22  C   UNL     1      -2.188   1.063  -1.221  0.00  0.00    +0.000 C 
ATOM     23  C   UNL     1      -0.753   1.593  -1.232  0.00  0.00    +0.003 C 
ENDBRANCH  17  18
ENDBRANCH  16  17
ENDBRANCH  13  16
ENDBRANCH   5  12
BRANCH   1  24
ATOM     24  C   UNL     1       6.608   0.423   4.105  0.00  0.00    +0.342 C 
ATOM     25  O   UNL     1       6.808  -0.770   3.976  0.00  0.00    -0.245 OA
BRANCH  24  27
ATOM     26  C   UNL     1       6.011  -0.040   6.371  0.00  0.00    +0.280 C 
ATOM     27  O   UNL     1       6.196   0.914   5.292  0.00  0.00    -0.464 OA
ENDBRANCH  24  27
ENDBRANCH   1  24
TORSDOF 6
