REMARK  Name = ZINC59883305
REMARK  8 active torsions:
REMARK  status: ('A' for Active; 'I' for Inactive)
REMARK    1  A    between atoms: C_1  and  C_2
REMARK    2  A    between atoms: C_2  and  C_4
REMARK    3  A    between atoms: C_2  and  S_14
REMARK    4  A    between atoms: N_6  and  N_7
REMARK    5  A    between atoms: C_8  and  C_10
REMARK    6  A    between atoms: S_14  and  C_15
REMARK    7  A    between atoms: C_18  and  C_21
REMARK    8  A    between atoms: N_19  and  N_20
REMARK                            x       y       z     vdW  Elec       q    Type
REMARK                         _______ _______ _______ _____ _____    ______ ____
ROOT
ATOM      1  S   UNL     1       0.879  -0.605   1.472  0.00  0.00    -0.072 S 
ENDROOT
BRANCH   1   2
ATOM      2  C   UNL     1      -0.136  -0.087   2.816  0.00  0.00    +0.209 A 
ATOM      3  N   UNL     1      -1.267   0.576   2.728  0.00  0.00    -0.121 NA
ATOM      4  N   UNL     1      -1.745   0.790   3.901  0.00  0.00    -0.127 NA
ATOM      5  C   UNL     1      -0.949   0.277   4.810  0.00  0.00    +0.182 A 
ATOM      6  N   UNL     1       0.104  -0.305   4.143  0.00  0.00    -0.224 N 
BRANCH   5   7
ATOM      7  C   UNL     1      -1.149   0.313   6.274  0.00  0.00    +0.021 A 
ATOM      8  C   UNL     1      -0.089   0.019   7.134  0.00  0.00    +0.013 A 
ATOM      9  C   UNL     1      -0.282   0.054   8.499  0.00  0.00    +0.021 A 
ATOM     10  C   UNL     1      -1.523   0.381   9.018  0.00  0.00    +0.041 A 
ATOM     11  C   UNL     1      -2.579   0.674   8.170  0.00  0.00    +0.021 A 
ATOM     12  C   UNL     1      -2.397   0.648   6.803  0.00  0.00    +0.013 A 
ATOM     13 CL   UNL     1      -1.758   0.423  10.737  0.00  0.00    -0.084 Cl
ENDBRANCH   5   7
BRANCH   6  14
ATOM     14  N   UNL     1       1.168  -0.962   4.692  0.00  0.00    -0.295 N 
ATOM     15  H   UNL     1       1.926  -0.324   4.886  0.00  0.00    +0.163 HD
ATOM     16  H   UNL     1       0.894  -1.460   5.525  0.00  0.00    +0.163 HD
ENDBRANCH   6  14
ENDBRANCH   1   2
BRANCH   1  18
ATOM     17  C   UNL     1      -0.019   1.526   0.010  0.00  0.00    +0.029 C 
ATOM     18  C   UNL     1       0.002  -0.004   0.002  0.00  0.00    +0.138 C 
BRANCH  18  19
ATOM     19  C   UNL     1       0.707  -0.490  -1.238  0.00  0.00    +0.242 C 
ATOM     20  O   UNL     1       1.864  -0.849  -1.176  0.00  0.00    -0.273 OA
ATOM     21  N   UNL     1       0.053  -0.526  -2.415  0.00  0.00    -0.233 N 
ATOM     22  H   UNL     1      -0.873  -0.239  -2.465  0.00  0.00    +0.173 HD
BRANCH  21  23
ATOM     23  N   UNL     1       0.708  -0.978  -3.568  0.00  0.00    -0.234 N 
ATOM     24  C   UNL     1       0.054  -1.014  -4.745  0.00  0.00    +0.232 C 
ATOM     25  O   UNL     1      -1.103  -0.655  -4.807  0.00  0.00    -0.274 OA
ATOM     26  H   UNL     1       1.634  -1.265  -3.519  0.00  0.00    +0.173 HD
BRANCH  24  27
ATOM     27  C   UNL     1       0.759  -1.500  -5.985  0.00  0.00    +0.076 C 
ATOM     28  C   UNL     1       1.619  -0.423  -6.667  0.00  0.00    +0.013 C 
ATOM     29  C   UNL     1       1.113  -0.979  -8.008  0.00  0.00    +0.001 C 
ATOM     30  C   UNL     1      -0.124  -1.480  -7.244  0.00  0.00    +0.013 C 
ENDBRANCH  24  27
ENDBRANCH  21  23
ENDBRANCH  18  19
ENDBRANCH   1  18
TORSDOF 7
