REMARK  Name = ZINC21150622
REMARK  9 active torsions:
REMARK  status: ('A' for Active; 'I' for Inactive)
REMARK    1  A    between atoms: C_1  and  C_2
REMARK    2  A    between atoms: C_2  and  C_31
REMARK    3  A    between atoms: C_6  and  N_23
REMARK    4  A    between atoms: C_8  and  S_12
REMARK    5  A    between atoms: C_9  and  C_10
REMARK    6  A    between atoms: S_12  and  C_13
REMARK    7  A    between atoms: C_13  and  C_14
REMARK    8  A    between atoms: N_16  and  C_17
REMARK    9  A    between atoms: C_17  and  C_18
REMARK                            x       y       z     vdW  Elec       q    Type
REMARK                         _______ _______ _______ _____ _____    ______ ____
ROOT
ATOM      1  C   UNL     1       2.864   3.931   1.706  0.00  0.00    +0.041 C 
ATOM      2  C   UNL     1       2.588   4.135   0.215  0.00  0.00    +0.068 C 
ATOM      3  C   UNL     1       1.197   3.599  -0.129  0.00  0.00    +0.071 C 
ATOM      4  C   UNL     1       1.201   2.096  -0.060  0.00  0.00    -0.016 A 
ATOM      5  C   UNL     1       2.371   1.376  -0.072  0.00  0.00    +0.023 A 
ATOM      6  C   UNL     1       2.315  -0.019  -0.017  0.00  0.00    +0.128 A 
ATOM      7  N   UNL     1       1.156  -0.655   0.047  0.00  0.00    -0.224 NA
ATOM      8  C   UNL     1       0.003  -0.003   0.064  0.00  0.00    +0.117 A 
ATOM      9  C   UNL     1      -0.017   1.402   0.011  0.00  0.00    +0.087 A 
ATOM     10  C   UNL     1       3.712   2.057  -0.138  0.00  0.00    +0.199 C 
ATOM     11  O   UNL     1       3.556   3.413  -0.556  0.00  0.00    -0.369 OA
ATOM     12  C   UNL     1       2.668   5.625  -0.123  0.00  0.00    +0.041 C 
ENDROOT
BRANCH   6  13
ATOM     13  N   UNL     1       3.493  -0.749  -0.029  0.00  0.00    -0.310 N 
ATOM     14  C   UNL     1       3.555  -1.627  -1.207  0.00  0.00    +0.134 C 
ATOM     15  C   UNL     1       4.895  -2.369  -1.213  0.00  0.00    +0.178 C 
ATOM     16  O   UNL     1       5.038  -3.094   0.011  0.00  0.00    -0.377 OA
ATOM     17  C   UNL     1       4.982  -2.269   1.178  0.00  0.00    +0.178 C 
ATOM     18  C   UNL     1       3.644  -1.526   1.209  0.00  0.00    +0.134 C 
ENDBRANCH   6  13
BRANCH   9  19
ATOM     19  C   UNL     1      -1.260   2.113   0.023  0.00  0.00    +0.102 C 
ATOM     20  N   UNL     1      -2.246   2.678   0.033  0.00  0.00    -0.191 NA
ENDBRANCH   9  19
BRANCH   8  21
ATOM     21  S   UNL     1      -1.511  -0.900   0.152  0.00  0.00    -0.095 S 
BRANCH  21  22
ATOM     22  C   UNL     1      -0.872  -2.592   0.194  0.00  0.00    +0.171 C 
BRANCH  22  23
ATOM     23  C   UNL     1      -2.023  -3.562   0.272  0.00  0.00    +0.224 C 
ATOM     24  O   UNL     1      -3.163  -3.149   0.297  0.00  0.00    -0.275 OA
ATOM     25  N   UNL     1      -1.785  -4.888   0.314  0.00  0.00    -0.308 N 
ATOM     26  H   UNL     1      -0.751  -5.263   0.291  0.00  0.00    +0.149 HD
BRANCH  25  27
ATOM     27  C   UNL     1      -2.904  -5.831   0.390  0.00  0.00    +0.178 C 
BRANCH  27  28
ATOM     28  C   UNL     1      -2.372  -7.240   0.424  0.00  0.00    +0.122 A 
ATOM     29  C   UNL     1      -2.055  -7.935   1.532  0.00  0.00    +0.046 A 
ATOM     30  C   UNL     1      -1.599  -9.203   1.104  0.00  0.00    +0.041 A 
ATOM     31  C   UNL     1      -1.665  -9.207  -0.240  0.00  0.00    +0.195 A 
ATOM     32  O   UNL     1      -2.139  -8.018  -0.645  0.00  0.00    -0.466 OA
ENDBRANCH  27  28
ENDBRANCH  25  27
ENDBRANCH  22  23
ENDBRANCH  21  22
ENDBRANCH   8  21
TORSDOF 7
