REMARK  Name = ZINC46772367
REMARK  10 active torsions:
REMARK  status: ('A' for Active; 'I' for Inactive)
REMARK    1  A    between atoms: C_1  and  C_2
REMARK    2  A    between atoms: C_5  and  N_9
REMARK    3  A    between atoms: C_7  and  C_8
REMARK    4  A    between atoms: N_9  and  C_10
REMARK    5  A    between atoms: C_10  and  N_12
REMARK    6  A    between atoms: N_12  and  N_13
REMARK    7  A    between atoms: C_14  and  C_16
REMARK    8  A    between atoms: C_17  and  C_18
REMARK    9  A    between atoms: C_21  and  S_24
REMARK   10  A    between atoms: S_24  and  N_27
REMARK                            x       y       z     vdW  Elec       q    Type
REMARK                         _______ _______ _______ _____ _____    ______ ____
ROOT
ATOM      1  N   UNL     1      -0.106  -6.886   0.025  0.00  0.00    -0.232 N 
ATOM      2  C   UNL     1      -0.190  -8.232   0.024  0.00  0.00    +0.253 C 
ATOM      3  O   UNL     1      -0.279  -8.836  -1.028  0.00  0.00    -0.269 OA
ATOM      4  H   UNL     1      -0.035  -6.405   0.864  0.00  0.00    +0.173 HD
ENDROOT
BRANCH   1   5
ATOM      5  N   UNL     1      -0.122  -6.184  -1.187  0.00  0.00    -0.245 N 
ATOM      6  H   UNL     1      -0.193  -6.665  -2.026  0.00  0.00    +0.172 HD
BRANCH   5   7
ATOM      7  C   UNL     1      -0.039  -4.838  -1.187  0.00  0.00    +0.151 C 
ATOM      8  S   UNL     1      -0.058  -3.979  -2.668  0.00  0.00    -0.017 S 
BRANCH   7   9
ATOM      9  N   UNL     1       0.059  -4.169  -0.021  0.00  0.00    -0.296 N 
ATOM     10  H   UNL     1       0.152  -4.658   0.812  0.00  0.00    +0.154 HD
BRANCH   9  15
ATOM     11  C   UNL     1      -0.065   1.502   0.015  0.00  0.00    +0.044 C 
ATOM     12  C   UNL     1      -0.032  -0.005   0.006  0.00  0.00    -0.047 A 
ATOM     13  C   UNL     1      -0.900  -0.709  -0.809  0.00  0.00    +0.005 A 
ATOM     14  C   UNL     1      -0.872  -2.089  -0.820  0.00  0.00    +0.023 A 
ATOM     15  C   UNL     1       0.029  -2.771  -0.012  0.00  0.00    +0.033 A 
ATOM     16  C   UNL     1       0.899  -2.061   0.805  0.00  0.00    +0.027 A 
ATOM     17  C   UNL     1       0.869  -0.680   0.808  0.00  0.00    -0.046 A 
ATOM     18  C   UNL     1       1.817   0.091   1.690  0.00  0.00    +0.044 C 
ENDBRANCH   9  15
ENDBRANCH   7   9
ENDBRANCH   5   7
ENDBRANCH   1   5
BRANCH   2  19
ATOM     19  C   UNL     1      -0.173  -8.966   1.291  0.00  0.00    +0.069 C 
ATOM     20  C   UNL     1      -0.256 -10.312   1.291  0.00  0.00    +0.013 C 
BRANCH  20  21
ATOM     21  C   UNL     1      -0.240 -11.051   2.564  0.00  0.00    -0.025 A 
ATOM     22  C   UNL     1      -0.143 -10.360   3.776  0.00  0.00    +0.010 A 
ATOM     23  C   UNL     1      -0.128 -11.059   4.964  0.00  0.00    +0.029 A 
ATOM     24  C   UNL     1      -0.208 -12.441   4.960  0.00  0.00    +0.106 A 
ATOM     25  C   UNL     1      -0.303 -13.132   3.764  0.00  0.00    +0.029 A 
ATOM     26  C   UNL     1      -0.326 -12.446   2.568  0.00  0.00    +0.010 A 
BRANCH  24  27
ATOM     27  S   UNL     1      -0.187 -13.325   6.484  0.00  0.00    +0.061 S 
ATOM     28  O   UNL     1       0.277 -14.635   6.186  0.00  0.00    -0.153 OA
ATOM     29  O   UNL     1       0.459 -12.486   7.431  0.00  0.00    -0.153 OA
BRANCH  27  30
ATOM     30  N   UNL     1      -1.758 -13.480   6.981  0.00  0.00    -0.177 NA
ATOM     31  C   UNL     1      -2.325 -12.447   7.819  0.00  0.00    +0.109 C 
ATOM     32  C   UNL     1      -2.066 -12.785   9.308  0.00  0.00    +0.017 C 
ATOM     33  C   UNL     1      -2.897 -13.924   9.726  0.00  0.00    +0.001 C 
ATOM     34  C   UNL     1      -2.599 -15.225   8.986  0.00  0.00    +0.001 C 
ATOM     35  C   UNL     1      -3.374 -15.254   7.692  0.00  0.00    +0.017 C 
ATOM     36  C   UNL     1      -2.525 -14.665   6.547  0.00  0.00    +0.109 C 
ENDBRANCH  27  30
ENDBRANCH  24  27
ENDBRANCH  20  21
ENDBRANCH   2  19
TORSDOF 8
