REMARK  Name = ZINC59814576
REMARK  8 active torsions:
REMARK  status: ('A' for Active; 'I' for Inactive)
REMARK    1  A    between atoms: C_1  and  C_2
REMARK    2  A    between atoms: C_2  and  C_4
REMARK    3  A    between atoms: C_2  and  S_10
REMARK    4  A    between atoms: N_6  and  C_7
REMARK    5  A    between atoms: C_7  and  C_8
REMARK    6  A    between atoms: S_10  and  C_11
REMARK    7  A    between atoms: N_16  and  N_17
REMARK    8  A    between atoms: C_18  and  C_19
REMARK                            x       y       z     vdW  Elec       q    Type
REMARK                         _______ _______ _______ _____ _____    ______ ____
ROOT
ATOM      1  C   UNL     1       2.533  -0.042   1.241  0.00  0.00    +0.211 A 
ATOM      2  N   UNL     1       3.551  -0.257   2.081  0.00  0.00    -0.186 NA
ATOM      3  C   UNL     1       4.644   0.301   1.603  0.00  0.00    +0.232 A 
ATOM      4  N   UNL     1       4.333   0.890   0.429  0.00  0.00    -0.245 N 
ATOM      5  N   UNL     1       2.966   0.651   0.214  0.00  0.00    -0.144 NA
ATOM      6  N   UNL     1       5.892   0.286   2.200  0.00  0.00    -0.205 N 
ATOM      7  H   UNL     1       6.641   0.727   1.769  0.00  0.00    +0.177 HD
ATOM      8  H   UNL     1       4.935   1.380  -0.152  0.00  0.00    +0.192 HD
ENDROOT
BRANCH   6   9
ATOM      9  N   UNL     1       6.074  -0.367   3.426  0.00  0.00    -0.188 NA
ATOM     10  C   UNL     1       7.245  -0.382   3.986  0.00  0.00    +0.138 C 
BRANCH  10  11
ATOM     11  C   UNL     1       7.437  -1.069   5.276  0.00  0.00    -0.005 A 
ATOM     12  C   UNL     1       6.362  -1.711   5.896  0.00  0.00    +0.011 A 
ATOM     13  C   UNL     1       6.549  -2.352   7.102  0.00  0.00    +0.020 A 
ATOM     14  C   UNL     1       7.798  -2.361   7.700  0.00  0.00    +0.041 A 
ATOM     15  C   UNL     1       8.868  -1.726   7.091  0.00  0.00    +0.020 A 
ATOM     16  C   UNL     1       8.696  -1.086   5.881  0.00  0.00    +0.011 A 
ATOM     17 CL   UNL     1       8.024  -3.170   9.219  0.00  0.00    -0.084 Cl
ENDBRANCH  10  11
ENDBRANCH   6   9
BRANCH   1  18
ATOM     18  S   UNL     1       0.879  -0.605   1.472  0.00  0.00    -0.072 S 
BRANCH  18  20
ATOM     19  C   UNL     1      -0.019   1.526   0.010  0.00  0.00    +0.029 C 
ATOM     20  C   UNL     1       0.002  -0.004   0.002  0.00  0.00    +0.137 C 
BRANCH  20  21
ATOM     21  C   UNL     1      -1.412  -0.526   0.013  0.00  0.00    +0.226 C 
ATOM     22  O   UNL     1      -1.939  -0.827   1.062  0.00  0.00    -0.275 OA
ATOM     23  N   UNL     1      -2.090  -0.657  -1.144  0.00  0.00    -0.311 N 
ATOM     24  H   UNL     1      -1.669  -0.416  -1.984  0.00  0.00    +0.149 HD
BRANCH  23  25
ATOM     25  C   UNL     1      -3.465  -1.164  -1.134  0.00  0.00    +0.131 C 
BRANCH  25  26
ATOM     26  C   UNL     1      -3.992  -1.214  -2.545  0.00  0.00    -0.016 C 
ATOM     27  C   UNL     1      -4.469  -2.336  -3.026  0.00  0.00    +0.005 C 
ENDBRANCH  25  26
ENDBRANCH  23  25
ENDBRANCH  20  21
ENDBRANCH  18  20
ENDBRANCH   1  18
TORSDOF 7
