REMARK  Name = ZINC03669885
REMARK  10 active torsions:
REMARK  status: ('A' for Active; 'I' for Inactive)
REMARK    1  A    between atoms: C_1  and  C_2
REMARK    2  A    between atoms: C_2  and  C_35
REMARK    3  A    between atoms: C_6  and  C_24
REMARK    4  A    between atoms: C_8  and  C_22
REMARK    5  A    between atoms: C_9  and  N_21
REMARK    6  A    between atoms: N_10  and  C_11
REMARK    7  A    between atoms: C_14  and  S_17
REMARK    8  A    between atoms: S_17  and  N_20
REMARK    9  A    between atoms: C_27  and  S_30
REMARK   10  A    between atoms: S_30  and  C_31
REMARK                            x       y       z     vdW  Elec       q    Type
REMARK                         _______ _______ _______ _____ _____    ______ ____
ROOT
ATOM      1  C   UNL     1       0.127   3.394   3.133  0.00  0.00    +0.011 C 
ATOM      2  C   UNL     1      -0.738   3.673   1.902  0.00  0.00    -0.023 C 
ATOM      3  C   UNL     1       0.112   4.334   0.815  0.00  0.00    +0.058 C 
ATOM      4  C   UNL     1       1.226   3.402   0.406  0.00  0.00    +0.025 C 
ATOM      5  C   UNL     1       1.062   2.062   0.451  0.00  0.00    +0.025 C 
ATOM      6  C   UNL     1       2.168   1.132   0.018  0.00  0.00    +0.097 C 
ATOM      7  C   UNL     1       3.491   1.838  -0.008  0.00  0.00    +0.077 C 
ATOM      8  C   UNL     1       3.563   3.195  -0.026  0.00  0.00    +0.107 C 
ATOM      9  N   UNL     1       2.410   3.947  -0.015  0.00  0.00    -0.260 N 
ATOM     10  C   UNL     1      -0.143   1.494   0.897  0.00  0.00    +0.162 C 
ATOM     11  O   UNL     1      -0.261   0.285   0.916  0.00  0.00    -0.292 OA
ATOM     12  C   UNL     1      -1.293   2.354   1.346  0.00  0.00    +0.086 C 
ATOM     13  C   UNL     1      -1.894   4.599   2.286  0.00  0.00    +0.011 C 
ENDROOT
BRANCH   9  14
ATOM     14  C   UNL     1       2.448   5.281  -0.439  0.00  0.00    +0.040 A 
ATOM     15  C   UNL     1       2.168   5.599  -1.762  0.00  0.00    +0.026 A 
ATOM     16  C   UNL     1       2.202   6.916  -2.175  0.00  0.00    +0.030 A 
ATOM     17  C   UNL     1       2.524   7.917  -1.277  0.00  0.00    +0.105 A 
ATOM     18  C   UNL     1       2.809   7.603   0.039  0.00  0.00    +0.030 A 
ATOM     19  C   UNL     1       2.772   6.288   0.461  0.00  0.00    +0.026 A 
BRANCH  17  20
ATOM     20  S   UNL     1       2.572   9.595  -1.811  0.00  0.00    +0.056 S 
ATOM     21  O   UNL     1       1.736   9.681  -2.956  0.00  0.00    -0.153 OA
ATOM     22  O   UNL     1       2.366  10.395  -0.654  0.00  0.00    -0.153 OA
BRANCH  20  23
ATOM     23  N   UNL     1       4.116   9.900  -2.328  0.00  0.00    -0.204 NA
ATOM     24  H   UNL     1       4.786   9.200  -2.294  0.00  0.00    +0.144 HD
ATOM     25  H   UNL     1       4.349  10.780  -2.664  0.00  0.00    +0.144 HD
ENDBRANCH  20  23
ENDBRANCH  17  20
ENDBRANCH   9  14
BRANCH   6  26
ATOM     26  C   UNL     1       1.861   0.608  -1.361  0.00  0.00    -0.035 A 
ATOM     27  C   UNL     1       1.718   1.488  -2.418  0.00  0.00    +0.005 A 
ATOM     28  C   UNL     1       1.442   1.011  -3.684  0.00  0.00    +0.015 A 
ATOM     29  C   UNL     1       1.297  -0.355  -3.893  0.00  0.00    +0.008 A 
ATOM     30  C   UNL     1       1.436  -1.236  -2.828  0.00  0.00    +0.015 A 
ATOM     31  C   UNL     1       1.717  -0.752  -1.566  0.00  0.00    +0.005 A 
BRANCH  29  32
ATOM     32  S   UNL     1       0.937  -0.968  -5.506  0.00  0.00    -0.129 S 
ATOM     33  C   UNL     1       0.853   0.524  -6.534  0.00  0.00    +0.090 C 
ENDBRANCH  29  32
ENDBRANCH   6  26
BRANCH   8  34
ATOM     34  N   UNL     1       4.788   3.816  -0.057  0.00  0.00    -0.345 N 
ATOM     35  H   UNL     1       4.844   4.782   0.018  0.00  0.00    +0.144 HD
ATOM     36  H   UNL     1       5.597   3.290  -0.153  0.00  0.00    +0.144 HD
ENDBRANCH   8  34
BRANCH   7  37
ATOM     37  C   UNL     1       4.699   1.069  -0.013  0.00  0.00    +0.099 C 
ATOM     38  N   UNL     1       5.658   0.460  -0.017  0.00  0.00    -0.191 NA
ENDBRANCH   7  37
TORSDOF 7
