REMARK  Name = ZINC65248219
REMARK  5 active torsions:
REMARK  status: ('A' for Active; 'I' for Inactive)
REMARK    1  A    between atoms: C_1  and  C_2
REMARK    2  A    between atoms: C_5  and  N_9
REMARK    3  A    between atoms: C_10  and  C_12
REMARK    4  A    between atoms: C_12  and  C_13
REMARK    5  A    between atoms: C_23  and  C_26
REMARK                            x       y       z     vdW  Elec       q    Type
REMARK                         _______ _______ _______ _____ _____    ______ ____
ROOT
ATOM      1  C   UNL     1      -0.236  -6.847  -2.635  0.00  0.00    +0.218 C 
ATOM      2  N   UNL     1       1.016  -6.560  -3.356  0.00  0.00    -0.174 NA
ATOM      3  N   UNL     1       1.491  -7.307  -4.213  0.00  0.00    -0.082 NA
ATOM      4  C   UNL     1       0.906  -8.462  -4.617  0.00  0.00    +0.272 C 
ATOM      5  O   UNL     1       1.455  -9.215  -5.386  0.00  0.00    -0.270 OA
ATOM      6  C   UNL     1      -0.456  -8.758  -4.060  0.00  0.00    +0.166 C 
ATOM      7  N   UNL     1      -0.420  -8.284  -2.644  0.00  0.00    -0.204 NA
ATOM      8  N   UNL     1      -1.562  -8.885  -2.009  0.00  0.00    -0.243 NA
ATOM      9  C   UNL     1      -1.781 -10.197  -2.678  0.00  0.00    +0.108 C 
ATOM     10  C   UNL     1      -0.762 -10.253  -3.870  0.00  0.00    +0.055 C 
ATOM     11  H   UNL     1      -1.403  -9.005  -1.020  0.00  0.00    +0.142 HD
ENDROOT
BRANCH   9  12
ATOM     12  C   UNL     1      -1.529 -11.323  -1.709  0.00  0.00    +0.008 A 
ATOM     13  C   UNL     1      -2.194 -12.497  -1.573  0.00  0.00    +0.013 A 
ATOM     14  C   UNL     1      -1.781 -13.392  -0.604  0.00  0.00    +0.008 A 
ATOM     15  C   UNL     1      -0.724 -13.070   0.181  0.00  0.00    +0.045 A 
ATOM     16  S   UNL     1      -0.273 -11.462  -0.449  0.00  0.00    -0.100 S 
ENDBRANCH   9  12
BRANCH   1  17
ATOM     17  C   UNL     1      -0.134  -6.344  -1.194  0.00  0.00    +0.141 C 
BRANCH  17  19
ATOM     18  N   UNL     1       0.059  -4.172  -0.025  0.00  0.00    -0.283 N 
ATOM     19  C   UNL     1      -0.040  -4.840  -1.192  0.00  0.00    +0.221 C 
ATOM     20  O   UNL     1      -0.054  -4.230  -2.240  0.00  0.00    -0.275 OA
ATOM     21  H   UNL     1       0.150  -4.662   0.807  0.00  0.00    +0.155 HD
BRANCH  18  26
ATOM     22  C   UNL     1      -0.065   1.502   0.016  0.00  0.00    +0.044 C 
ATOM     23  C   UNL     1      -0.031  -0.005   0.006  0.00  0.00    -0.048 A 
ATOM     24  C   UNL     1      -0.622  -0.701  -1.033  0.00  0.00    +0.005 A 
ATOM     25  C   UNL     1      -0.593  -2.082  -1.046  0.00  0.00    +0.026 A 
ATOM     26  C   UNL     1       0.029  -2.772  -0.015  0.00  0.00    +0.069 A 
ATOM     27  C   UNL     1       0.622  -2.070   1.029  0.00  0.00    +0.145 A 
ATOM     28  C   UNL     1       0.594  -0.688   1.033  0.00  0.00    +0.043 A 
ATOM     29  F   UNL     1       1.228  -2.738   2.035  0.00  0.00    -0.204 F 
ENDBRANCH  18  26
ENDBRANCH  17  19
ENDBRANCH   1  17
TORSDOF 4
