REMARK  Name = ZINC66136159
REMARK  8 active torsions:
REMARK  status: ('A' for Active; 'I' for Inactive)
REMARK    1  A    between atoms: C_1  and  C_2
REMARK    2  A    between atoms: C_2  and  N_3
REMARK    3  A    between atoms: C_4  and  C_6
REMARK    4  A    between atoms: C_7  and  C_24
REMARK    5  A    between atoms: C_11  and  C_12
REMARK    6  A    between atoms: C_12  and  C_14
REMARK    7  A    between atoms: C_12  and  O_15
REMARK    8  A    between atoms: O_15  and  C_16
REMARK                            x       y       z     vdW  Elec       q    Type
REMARK                         _______ _______ _______ _____ _____    ______ ____
ROOT
ATOM      1  C   UNL     1       1.667  -2.190  -2.944  0.00  0.00    +0.083 A 
ATOM      2  C   UNL     1       3.049  -2.297  -3.148  0.00  0.00    +0.056 A 
ATOM      3  N   UNL     1       3.497  -2.584  -4.356  0.00  0.00    -0.219 NA
ATOM      4  C   UNL     1       2.658  -2.770  -5.367  0.00  0.00    +0.213 A 
ATOM      5  N   UNL     1       1.343  -2.677  -5.214  0.00  0.00    -0.215 NA
ATOM      6  C   UNL     1       0.816  -2.399  -4.037  0.00  0.00    +0.099 A 
ATOM      7  N   UNL     1       3.167  -3.069  -6.614  0.00  0.00    -0.327 N 
ATOM      8  C   UNL     1       4.010  -2.087  -2.006  0.00  0.00    +0.066 C 
ATOM      9  H   UNL     1       4.126  -3.140  -6.741  0.00  0.00    +0.145 HD
ATOM     10  H   UNL     1       2.567  -3.207  -7.362  0.00  0.00    +0.145 HD
ENDROOT
BRANCH   1  12
ATOM     11  N   UNL     1       0.918  -0.586  -1.255  0.00  0.00    -0.312 N 
ATOM     12  C   UNL     1       1.121  -1.870  -1.610  0.00  0.00    +0.248 C 
ATOM     13  O   UNL     1       0.855  -2.765  -0.832  0.00  0.00    -0.270 OA
ATOM     14  H   UNL     1       1.131   0.128  -1.876  0.00  0.00    +0.149 HD
BRANCH  11  16
ATOM     15  C   UNL     1       0.245   1.249   0.215  0.00  0.00    +0.024 C 
ATOM     16  C   UNL     1       0.377  -0.269   0.069  0.00  0.00    +0.101 C 
ENDBRANCH  11  16
ENDBRANCH   1  12
BRANCH   6  17
ATOM     17  C   UNL     1      -0.679  -2.303  -3.872  0.00  0.00    +0.220 C 
ATOM     18  C   UNL     1      -1.175  -0.990  -4.481  0.00  0.00    +0.059 C 
BRANCH  17  19
ATOM     19  O   UNL     1      -1.304  -3.403  -4.537  0.00  0.00    -0.482 OA
BRANCH  19  20
ATOM     20  C   UNL     1      -2.530  -3.779  -4.088  0.00  0.00    +0.140 A 
ATOM     21  C   UNL     1      -3.169  -3.035  -3.107  0.00  0.00    +0.047 A 
ATOM     22  C   UNL     1      -4.416  -3.419  -2.653  0.00  0.00    +0.004 A 
ATOM     23  C   UNL     1      -5.028  -4.544  -3.175  0.00  0.00    +0.002 A 
ATOM     24  C   UNL     1      -4.394  -5.287  -4.153  0.00  0.00    +0.023 A 
ATOM     25  C   UNL     1      -3.148  -4.904  -4.615  0.00  0.00    +0.083 A 
ATOM     26 CL   UNL     1      -2.355  -5.834  -5.848  0.00  0.00    -0.080 Cl
ENDBRANCH  19  20
ENDBRANCH  17  19
ENDBRANCH   6  17
TORSDOF 5
