REMARK  Name = ZINC07813297
REMARK  6 active torsions:
REMARK  status: ('A' for Active; 'I' for Inactive)
REMARK    1  A    between atoms: C_1  and  C_2
REMARK    2  A    between atoms: C_2  and  C_29
REMARK    3  A    between atoms: C_3  and  C_22
REMARK    4  A    between atoms: N_6  and  O_7
REMARK    5  A    between atoms: N_13  and  N_14
REMARK    6  A    between atoms: N_14  and  C_15
REMARK                            x       y       z     vdW  Elec       q    Type
REMARK                         _______ _______ _______ _____ _____    ______ ____
ROOT
ATOM      1  C   UNL     1      -2.958  -1.444   2.193  0.00  0.00    +0.037 C 
ATOM      2  C   UNL     1      -1.985  -0.336   1.787  0.00  0.00    +0.088 C 
ATOM      3  C   UNL     1      -0.674  -0.487   2.527  0.00  0.00    +0.089 C 
ATOM      4  N   UNL     1       0.307  -0.327   1.700  0.00  0.00    -0.138 N 
ATOM      5  C   UNL     1      -0.200  -0.059   0.353  0.00  0.00    +0.197 C 
ATOM      6  N   UNL     1      -1.621  -0.465   0.353  0.00  0.00    -0.145 NA
ATOM      7  C   UNL     1       0.576  -0.869  -0.684  0.00  0.00    +0.056 C 
ATOM      8  C   UNL     1       2.011  -0.343  -0.770  0.00  0.00    +0.005 C 
ATOM      9  C   UNL     1       2.002   1.109  -1.250  0.00  0.00    +0.006 C 
ATOM     10  C   UNL     1       1.290   1.987  -0.216  0.00  0.00    +0.056 C 
ATOM     11  C   UNL     1      -0.088   1.411   0.033  0.00  0.00    +0.082 C 
ATOM     12  N   UNL     1      -1.130   2.151  -0.032  0.00  0.00    -0.188 NA
ATOM     13  O   UNL     1       1.678  -0.402   2.047  0.00  0.00    -0.167 OA
ATOM     14  C   UNL     1      -2.598   1.039   2.063  0.00  0.00    +0.037 C 
ENDROOT
BRANCH   3  15
ATOM     15  C   UNL     1      -0.536  -0.772   3.969  0.00  0.00    -0.001 A 
ATOM     16  C   UNL     1       0.617  -1.392   4.453  0.00  0.00    +0.012 A 
ATOM     17  C   UNL     1       0.743  -1.651   5.802  0.00  0.00    +0.039 A 
ATOM     18  C   UNL     1      -0.278  -1.308   6.674  0.00  0.00    +0.123 A 
ATOM     19  C   UNL     1      -1.427  -0.697   6.198  0.00  0.00    +0.039 A 
ATOM     20  C   UNL     1      -1.562  -0.428   4.852  0.00  0.00    +0.012 A 
ATOM     21  F   UNL     1      -0.152  -1.569   7.994  0.00  0.00    -0.205 F 
ENDBRANCH   3  15
BRANCH   6  22
ATOM     22  O   UNL     1      -2.423   0.435  -0.475  0.00  0.00    -0.309 OA
ATOM     23  H   UNL     1      -3.373   0.253  -0.447  0.00  0.00    +0.237 HD
ENDBRANCH   6  22
BRANCH  12  24
ATOM     24  N   UNL     1      -2.010   2.028  -1.115  0.00  0.00    -0.238 N 
ATOM     25  H   UNL     1      -1.809   1.411  -1.836  0.00  0.00    +0.174 HD
BRANCH  24  26
ATOM     26  C   UNL     1      -3.176   2.795  -1.158  0.00  0.00    +0.048 A 
ATOM     27  C   UNL     1      -3.418   3.750  -0.178  0.00  0.00    +0.025 A 
ATOM     28  C   UNL     1      -4.569   4.510  -0.226  0.00  0.00    +0.002 A 
ATOM     29  C   UNL     1      -5.487   4.314  -1.242  0.00  0.00    +0.000 A 
ATOM     30  C   UNL     1      -5.253   3.360  -2.215  0.00  0.00    +0.002 A 
ATOM     31  C   UNL     1      -4.101   2.600  -2.176  0.00  0.00    +0.025 A 
ENDBRANCH  24  26
ENDBRANCH  12  24
TORSDOF 4
