REMARK  Name = ZINC01861929
REMARK  7 active torsions:
REMARK  status: ('A' for Active; 'I' for Inactive)
REMARK    1  A    between atoms: C_1  and  C_2
REMARK    2  A    between atoms: C_2  and  C_3
REMARK    3  A    between atoms: C_2  and  C_4
REMARK    4  A    between atoms: C_4  and  N_5
REMARK    5  A    between atoms: C_13  and  C_17
REMARK    6  A    between atoms: C_13  and  N_21
REMARK    7  A    between atoms: C_22  and  C_24
REMARK                            x       y       z     vdW  Elec       q    Type
REMARK                         _______ _______ _______ _____ _____    ______ ____
ROOT
ATOM      1  N   UNL     1      -2.334  -0.291  -1.221  0.00  0.00    -0.281 N 
ATOM      2  C   UNL     1      -2.927   0.952  -1.288  0.00  0.00    +0.120 A 
ATOM      3  C   UNL     1      -3.489   1.339  -2.469  0.00  0.00    +0.096 A 
ATOM      4  C   UNL     1      -3.457   0.484  -3.578  0.00  0.00    +0.262 A 
ATOM      5  N   UNL     1      -2.865  -0.724  -3.465  0.00  0.00    -0.275 N 
ATOM      6  C   UNL     1      -2.308  -1.096  -2.298  0.00  0.00    +0.331 A 
ATOM      7  O   UNL     1      -1.774  -2.185  -2.214  0.00  0.00    -0.246 OA
ATOM      8  O   UNL     1      -3.959   0.827  -4.634  0.00  0.00    -0.267 OA
ATOM      9  C   UNL     1      -4.054   2.722  -2.246  0.00  0.00    +0.240 C 
ATOM     10  C   UNL     1      -3.716   3.013  -0.797  0.00  0.00    +0.256 C 
ATOM     11  O   UNL     1      -3.980   4.021  -0.178  0.00  0.00    -0.272 OA
ATOM     12  N   UNL     1      -3.067   1.930  -0.334  0.00  0.00    -0.269 N 
ATOM     13  H   UNL     1      -2.837  -1.323  -4.227  0.00  0.00    +0.173 HD
ATOM     14  H   UNL     1      -2.734   1.849   0.574  0.00  0.00    +0.156 HD
ENDROOT
BRANCH   9  15
ATOM     15  N   UNL     1      -3.405   3.692  -3.131  0.00  0.00    -0.291 N 
ATOM     16  C   UNL     1      -2.066   3.841  -3.102  0.00  0.00    +0.211 C 
ATOM     17  O   UNL     1      -1.389   3.111  -2.409  0.00  0.00    -0.276 OA
ATOM     18  C   UNL     1      -1.409   4.915  -3.930  0.00  0.00    +0.109 C 
ATOM     19  H   UNL     1      -3.939   4.227  -3.739  0.00  0.00    +0.150 HD
ENDBRANCH   9  15
BRANCH   9  20
ATOM     20  C   UNL     1      -5.569   2.726  -2.457  0.00  0.00    +0.424 C 
ATOM     21  F   UNL     1      -6.155   1.748  -1.647  0.00  0.00    -0.167 F 
ATOM     22  F   UNL     1      -6.083   3.982  -2.119  0.00  0.00    -0.167 F 
ATOM     23  F   UNL     1      -5.853   2.452  -3.800  0.00  0.00    -0.167 F 
ENDBRANCH   9  20
BRANCH   1  24
ATOM     24  C   UNL     1      -1.720  -0.737   0.032  0.00  0.00    +0.131 C 
BRANCH  24  26
ATOM     25  C   UNL     1      -0.168   1.220   0.090  0.00  0.00    +0.009 C 
ATOM     26  C   UNL     1      -0.252  -0.307   0.062  0.00  0.00    +0.003 C 
ATOM     27  C   UNL     1       0.420  -0.879   1.312  0.00  0.00    +0.009 C 
ENDBRANCH  24  26
ENDBRANCH   1  24
TORSDOF 4
