REMARK  Name = ZINC16022207
REMARK  9 active torsions:
REMARK  status: ('A' for Active; 'I' for Inactive)
REMARK    1  A    between atoms: C_1  and  C_2
REMARK    2  A    between atoms: C_13  and  C_16
REMARK    3  A    between atoms: C_16  and  C_17
REMARK    4  A    between atoms: C_17  and  C_18
REMARK    5  A    between atoms: N_23  and  C_26
REMARK    6  A    between atoms: C_26  and  C_27
REMARK    7  A    between atoms: C_27  and  C_28
REMARK    8  A    between atoms: C_28  and  O_29
REMARK    9  A    between atoms: O_29  and  C_30
REMARK                            x       y       z     vdW  Elec       q    Type
REMARK                         _______ _______ _______ _____ _____    ______ ____
ROOT
ATOM      1  C   UNL     1      -0.018   1.503   0.010  0.00  0.00    +0.044 C 
ATOM      2  C   UNL     1       0.002  -0.004   0.002  0.00  0.00    -0.050 A 
ATOM      3  C   UNL     1       0.006  -0.691  -1.199  0.00  0.00    +0.005 A 
ATOM      4  C   UNL     1       0.024  -2.070  -1.210  0.00  0.00    +0.024 A 
ATOM      5  C   UNL     1       0.039  -2.781  -0.013  0.00  0.00    +0.039 A 
ATOM      6  C   UNL     1       0.036  -2.081   1.191  0.00  0.00    +0.004 A 
ATOM      7  C   UNL     1       0.023  -0.704   1.195  0.00  0.00    +0.011 A 
ATOM      8  C   UNL     1       0.051  -3.123   2.270  0.00  0.00    +0.136 C 
ATOM      9  C   UNL     1       1.216  -2.982   3.228  0.00  0.00    +0.122 C 
ATOM     10  C   UNL     1       0.616  -1.808   4.095  0.00  0.00    +0.107 C 
ATOM     11  C   UNL     1      -0.758  -2.247   4.373  0.00  0.00    +0.068 C 
ATOM     12  N   UNL     1      -1.157  -3.015   3.134  0.00  0.00    -0.295 NA
ATOM     13  C   UNL     1       1.784  -1.323   4.789  0.00  0.00    +0.227 C 
ATOM     14  O   UNL     1       1.841  -0.867   5.911  0.00  0.00    -0.275 OA
ATOM     15  N   UNL     1       2.818  -1.491   3.901  0.00  0.00    -0.241 N 
ATOM     16  C   UNL     1       2.485  -2.294   2.831  0.00  0.00    +0.228 C 
ATOM     17  O   UNL     1       3.084  -2.418   1.784  0.00  0.00    -0.275 OA
ATOM     18  C   UNL     1       0.062  -4.441   1.545  0.00  0.00    +0.243 C 
ATOM     19  O   UNL     1       0.074  -5.545   2.048  0.00  0.00    -0.273 OA
ATOM     20  N   UNL     1       0.056  -4.157   0.228  0.00  0.00    -0.283 N 
ATOM     21  H   UNL     1      -1.912  -2.559   2.645  0.00  0.00    +0.123 HD
ATOM     22  H   UNL     1       0.063  -4.829  -0.471  0.00  0.00    +0.155 HD
ENDROOT
BRANCH  11  23
ATOM     23  C   UNL     1      -0.793  -3.135   5.617  0.00  0.00    +0.028 C 
BRANCH  23  24
ATOM     24  C   UNL     1      -2.245  -3.477   5.959  0.00  0.00    +0.097 C 
BRANCH  24  25
ATOM     25  C   UNL     1      -2.279  -4.353   7.185  0.00  0.00    +0.211 C 
ATOM     26  O   UNL     1      -1.245  -4.672   7.732  0.00  0.00    -0.276 OA
ATOM     27  N   UNL     1      -3.460  -4.781   7.674  0.00  0.00    -0.329 N 
ATOM     28  H   UNL     1      -4.287  -4.526   7.237  0.00  0.00    +0.145 HD
ATOM     29  H   UNL     1      -3.482  -5.345   8.463  0.00  0.00    +0.145 HD
ENDBRANCH  24  25
ENDBRANCH  23  24
ENDBRANCH  11  23
BRANCH  15  30
ATOM     30  C   UNL     1       4.143  -0.892   4.076  0.00  0.00    +0.118 C 
BRANCH  30  31
ATOM     31  C   UNL     1       5.038  -1.852   4.862  0.00  0.00    +0.047 C 
BRANCH  31  32
ATOM     32  C   UNL     1       6.422  -1.226   5.045  0.00  0.00    +0.161 C 
BRANCH  32  33
ATOM     33  O   UNL     1       7.257  -2.123   5.779  0.00  0.00    -0.383 OA
ATOM     34  C   UNL     1       8.580  -1.631   6.006  0.00  0.00    +0.193 C 
ENDBRANCH  32  33
ENDBRANCH  31  32
ENDBRANCH  30  31
ENDBRANCH  15  30
TORSDOF 7
