REMARK  Name = ZINC50698617
REMARK  5 active torsions:
REMARK  status: ('A' for Active; 'I' for Inactive)
REMARK    1  A    between atoms: C_1  and  C_2
REMARK    2  A    between atoms: C_2  and  N_3
REMARK    3  A    between atoms: N_3  and  C_4
REMARK    4  A    between atoms: C_10  and  C_12
REMARK    5  A    between atoms: C_16  and  N_18
REMARK                            x       y       z     vdW  Elec       q    Type
REMARK                         _______ _______ _______ _____ _____    ______ ____
ROOT
ATOM      1  N   UNL     1      -1.368  -0.521   0.012  0.00  0.00    -0.293 N 
ATOM      2  C   UNL     1      -1.958  -0.846   1.179  0.00  0.00    +0.267 C 
ATOM      3  O   UNL     1      -3.067  -1.343   1.181  0.00  0.00    -0.268 OA
ENDROOT
BRANCH   2   4
ATOM      4  C   UNL     1      -1.255  -0.598   2.458  0.00  0.00    +0.146 A 
ATOM      5  C   UNL     1      -1.817  -1.046   3.652  0.00  0.00    +0.072 A 
ATOM      6  C   UNL     1      -1.148  -0.808   4.846  0.00  0.00    +0.025 A 
ATOM      7  C   UNL     1       0.057  -0.132   4.806  0.00  0.00    +0.045 A 
ATOM      8  C   UNL     1       0.564   0.289   3.576  0.00  0.00    +0.117 A 
ATOM      9  N   UNL     1      -0.092   0.044   2.457  0.00  0.00    -0.226 NA
ATOM     10 CL   UNL     1      -3.333  -1.890   3.647  0.00  0.00    -0.081 Cl
BRANCH   8  11
ATOM     11  N   UNL     1       1.775   0.970   3.529  0.00  0.00    -0.343 N 
ATOM     12  H   UNL     1       2.263   1.149   4.348  0.00  0.00    +0.144 HD
ATOM     13  H   UNL     1       2.132   1.265   2.677  0.00  0.00    +0.144 HD
ENDBRANCH   8  11
ENDBRANCH   2   4
BRANCH   1  14
ATOM     14  C   UNL     1      -2.108  -0.655  -1.246  0.00  0.00    +0.076 C 
ATOM     15  C   UNL     1      -3.353   0.233  -1.201  0.00  0.00    +0.022 C 
ATOM     16  C   UNL     1      -4.126   0.093  -2.514  0.00  0.00    +0.002 C 
ATOM     17  C   UNL     1      -4.546  -1.365  -2.706  0.00  0.00    +0.000 C 
ATOM     18  C   UNL     1      -3.301  -2.253  -2.751  0.00  0.00    +0.002 C 
ATOM     19  C   UNL     1      -2.528  -2.113  -1.437  0.00  0.00    +0.022 C 
ENDBRANCH   1  14
BRANCH   1  21
ATOM     20  C   UNL     1       0.023   1.479   0.230  0.00  0.00    +0.024 C 
ATOM     21  C   UNL     1       0.014  -0.034   0.001  0.00  0.00    +0.105 C 
ENDBRANCH   1  21
TORSDOF 4
