REMARK  Name = ZINC27532695
REMARK  8 active torsions:
REMARK  status: ('A' for Active; 'I' for Inactive)
REMARK    1  A    between atoms: C_1  and  C_2
REMARK    2  A    between atoms: C_6  and  N_8
REMARK    3  A    between atoms: C_9  and  C_11
REMARK    4  A    between atoms: C_12  and  C_35
REMARK    5  A    between atoms: C_16  and  C_33
REMARK    6  A    between atoms: C_16  and  C_34
REMARK    7  A    between atoms: C_20  and  C_22
REMARK    8  A    between atoms: C_27  and  C_28
REMARK                            x       y       z     vdW  Elec       q    Type
REMARK                         _______ _______ _______ _____ _____    ______ ____
ROOT
ATOM      1  C   UNL     1      -0.044  -4.340   3.904  0.00  0.00    +0.047 C 
ATOM      2  C   UNL     1       0.046  -5.698   3.926  0.00  0.00    +0.048 C 
ATOM      3  N   UNL     1       0.270  -6.385   5.038  0.00  0.00    -0.256 NA
ATOM      4  C   UNL     1       0.430  -5.870   6.235  0.00  0.00    +0.049 C 
ATOM      5  C   UNL     1       0.676  -6.788   7.409  0.00  0.00    +0.062 C 
ATOM      6  C   UNL     1       1.516  -6.051   8.456  0.00  0.00    -0.023 C 
ATOM      7  C   UNL     1       0.782  -4.772   8.870  0.00  0.00    +0.086 C 
ATOM      8  C   UNL     1       0.534  -3.925   7.649  0.00  0.00    +0.162 C 
ATOM      9  C   UNL     1       0.373  -4.481   6.436  0.00  0.00    +0.028 C 
ATOM     10  C   UNL     1       0.129  -3.605   5.222  0.00  0.00    +0.091 C 
ATOM     11  O   UNL     1       0.470  -2.586   7.776  0.00  0.00    -0.292 OA
ATOM     12  C   UNL     1       1.711  -6.948   9.680  0.00  0.00    +0.011 C 
ATOM     13  C   UNL     1       2.878  -5.690   7.860  0.00  0.00    +0.011 C 
ATOM     14  C   UNL     1      -0.115  -6.453   2.632  0.00  0.00    +0.066 C 
ENDROOT
BRANCH  10  15
ATOM     15  C   UNL     1       1.286  -2.651   5.082  0.00  0.00    -0.024 A 
ATOM     16  C   UNL     1       2.571  -3.140   4.935  0.00  0.00    +0.005 A 
ATOM     17  C   UNL     1       3.633  -2.264   4.807  0.00  0.00    +0.000 A 
ATOM     18  C   UNL     1       3.410  -0.900   4.825  0.00  0.00    +0.001 A 
ATOM     19  C   UNL     1       2.126  -0.411   4.971  0.00  0.00    +0.012 A 
ATOM     20  C   UNL     1       1.063  -1.287   5.095  0.00  0.00    +0.059 A 
BRANCH  20  21
ATOM     21  C   UNL     1      -0.338  -0.754   5.248  0.00  0.00    +0.418 C 
ATOM     22  F   UNL     1      -0.312   0.644   5.211  0.00  0.00    -0.166 F 
ATOM     23  F   UNL     1      -1.137  -1.234   4.204  0.00  0.00    -0.166 F 
ATOM     24  F   UNL     1      -0.867  -1.179   6.472  0.00  0.00    -0.166 F 
ENDBRANCH  20  21
ENDBRANCH  10  15
BRANCH   1  26
ATOM     25  N   UNL     1       0.724  -3.442   1.827  0.00  0.00    -0.267 N 
ATOM     26  C   UNL     1      -0.282  -3.641   2.701  0.00  0.00    +0.248 C 
ATOM     27  O   UNL     1      -1.397  -3.217   2.454  0.00  0.00    -0.270 OA
ATOM     28  H   UNL     1       1.591  -3.846   1.985  0.00  0.00    +0.157 HD
BRANCH  25  34
ATOM     29  C   UNL     1       2.609  -0.726  -1.638  0.00  0.00    +0.065 C 
ATOM     30  C   UNL     1       1.400  -1.344  -0.985  0.00  0.00    +0.040 A 
ATOM     31  C   UNL     1       0.146  -1.118  -1.520  0.00  0.00    +0.023 A 
ATOM     32  C   UNL     1      -0.964  -1.690  -0.915  0.00  0.00    +0.005 A 
ATOM     33  C   UNL     1      -0.773  -2.473   0.210  0.00  0.00    +0.044 A 
ATOM     34  C   UNL     1       0.517  -2.658   0.694  0.00  0.00    +0.125 A 
ATOM     35  N   UNL     1       1.552  -2.099   0.086  0.00  0.00    -0.237 NA
ENDBRANCH  25  34
ENDBRANCH   1  26
TORSDOF 4
