REMARK  Name = ZINC41527718
REMARK  7 active torsions:
REMARK  status: ('A' for Active; 'I' for Inactive)
REMARK    1  A    between atoms: C_1  and  C_2
REMARK    2  A    between atoms: C_3  and  N_9
REMARK    3  A    between atoms: C_4  and  C_8
REMARK    4  A    between atoms: N_5  and  C_7
REMARK    5  A    between atoms: C_11  and  C_18
REMARK    6  A    between atoms: C_12  and  S_16
REMARK    7  A    between atoms: S_16  and  C_17
REMARK                            x       y       z     vdW  Elec       q    Type
REMARK                         _______ _______ _______ _____ _____    ______ ____
ROOT
ATOM      1  N   UNL     1      -0.220  -0.377  -2.465  0.00  0.00    -0.295 N 
ATOM      2  C   UNL     1       0.140   0.912  -2.801  0.00  0.00    +0.145 A 
ATOM      3  C   UNL     1      -0.086   1.404  -4.101  0.00  0.00    +0.123 A 
ATOM      4  C   UNL     1       0.304   2.728  -4.383  0.00  0.00    +0.119 A 
ATOM      5  N   UNL     1       0.866   3.450  -3.415  0.00  0.00    -0.228 NA
ATOM      6  C   UNL     1       1.057   2.945  -2.214  0.00  0.00    +0.224 A 
ATOM      7  N   UNL     1       0.703   1.714  -1.901  0.00  0.00    -0.219 NA
ATOM      8  H   UNL     1      -0.702  -0.928  -3.102  0.00  0.00    +0.154 HD
ENDROOT
BRANCH   1  11
ATOM      9  C   UNL     1      -1.918   0.049   0.112  0.00  0.00    +0.069 C 
ATOM     10  C   UNL     1      -0.629  -0.722  -0.018  0.00  0.00    +0.081 A 
ATOM     11  C   UNL     1       0.110  -0.893  -1.197  0.00  0.00    +0.076 A 
ATOM     12  C   UNL     1       1.201  -1.643  -0.899  0.00  0.00    +0.057 A 
ATOM     13  N   UNL     1       1.148  -1.935   0.427  0.00  0.00    -0.270 N 
ATOM     14  N   UNL     1      -0.006  -1.340   0.952  0.00  0.00    -0.175 NA
ATOM     15  C   UNL     1       2.127  -2.727   1.176  0.00  0.00    +0.172 C 
ATOM     16  C   UNL     1       2.275  -2.076  -1.864  0.00  0.00    +0.067 C 
ENDBRANCH   1  11
BRANCH   4  17
ATOM     17  S   UNL     1       0.055   3.416  -5.986  0.00  0.00    -0.108 S 
ATOM     18  C   UNL     1       0.707   5.103  -5.846  0.00  0.00    +0.091 C 
ENDBRANCH   4  17
BRANCH   3  19
ATOM     19  C   UNL     1      -0.694   0.584  -5.106  0.00  0.00    +0.105 C 
ATOM     20  N   UNL     1      -1.176  -0.067  -5.903  0.00  0.00    -0.191 NA
ENDBRANCH   3  19
TORSDOF 3
