REMARK  Name = ZINC25603861
REMARK  6 active torsions:
REMARK  status: ('A' for Active; 'I' for Inactive)
REMARK    1  A    between atoms: C_1  and  C_2
REMARK    2  A    between atoms: C_9  and  C_11
REMARK    3  A    between atoms: C_11  and  S_12
REMARK    4  A    between atoms: S_12  and  C_13
REMARK    5  A    between atoms: C_16  and  C_19
REMARK    6  A    between atoms: N_17  and  N_18
REMARK                            x       y       z     vdW  Elec       q    Type
REMARK                         _______ _______ _______ _____ _____    ______ ____
ROOT
ATOM      1  C   UNL     1       2.172   6.907  -0.142  0.00  0.00    +0.209 A 
ATOM      2  N   UNL     1       0.953   7.246   0.210  0.00  0.00    -0.121 NA
ATOM      3  N   UNL     1       0.212   6.201   0.307  0.00  0.00    -0.126 NA
ATOM      4  C   UNL     1       0.914   5.126   0.021  0.00  0.00    +0.188 A 
ATOM      5  N   UNL     1       2.193   5.545  -0.271  0.00  0.00    -0.223 N 
ENDROOT
BRANCH   4   6
ATOM      6  C   UNL     1       0.426   3.737   0.018  0.00  0.00    +0.058 A 
ATOM      7  C   UNL     1      -0.866   3.275   0.028  0.00  0.00    +0.019 A 
ATOM      8  C   UNL     1      -1.081   1.915   0.017  0.00  0.00    +0.008 A 
ATOM      9  C   UNL     1      -0.013   1.076   0.008  0.00  0.00    +0.046 A 
ATOM     10  S   UNL     1       1.361   2.216   0.001  0.00  0.00    -0.093 S 
ENDBRANCH   4   6
BRANCH   5  11
ATOM     11  N   UNL     1       3.259   4.765  -0.618  0.00  0.00    -0.295 N 
ATOM     12  H   UNL     1       3.142   3.673  -0.686  0.00  0.00    +0.163 HD
ATOM     13  H   UNL     1       4.234   5.228  -0.830  0.00  0.00    +0.163 HD
ENDBRANCH   5  11
BRANCH   1  14
ATOM     14  S   UNL     1       3.530   8.001  -0.397  0.00  0.00    -0.078 S 
BRANCH  14  15
ATOM     15  C   UNL     1       2.729   9.584  -0.036  0.00  0.00    +0.134 C 
BRANCH  15  24
ATOM     16  C   UNL     1       5.128  13.364  -3.367  0.00  0.00    +0.047 C 
ATOM     17  C   UNL     1       5.525  13.243  -1.918  0.00  0.00    -0.008 A 
ATOM     18  C   UNL     1       6.481  14.058  -1.397  0.00  0.00    +0.008 A 
ATOM     19  C   UNL     1       6.840  13.933  -0.045  0.00  0.00    +0.018 A 
ATOM     20  C   UNL     1       6.242  13.009   0.736  0.00  0.00    +0.093 A 
ATOM     21  N   UNL     1       5.282  12.184   0.226  0.00  0.00    -0.306 N 
ATOM     22  C   UNL     1       4.910  12.283  -1.090  0.00  0.00    +0.141 A 
ATOM     23  N   UNL     1       3.971  11.376  -1.320  0.00  0.00    -0.232 NA
ATOM     24  C   UNL     1       3.730  10.700  -0.194  0.00  0.00    +0.070 A 
ATOM     25  C   UNL     1       4.527  11.187   0.781  0.00  0.00    +0.116 A 
ENDBRANCH  15  24
ENDBRANCH  14  15
ENDBRANCH   1  14
TORSDOF 5
