REMARK  Name = ZINC19953838
REMARK  5 active torsions:
REMARK  status: ('A' for Active; 'I' for Inactive)
REMARK    1  A    between atoms: C_1  and  C_2
REMARK    2  A    between atoms: C_2  and  C_3
REMARK    3  A    between atoms: N_7  and  C_16
REMARK    4  A    between atoms: C_11  and  N_15
REMARK    5  A    between atoms: C_16  and  C_17
REMARK                            x       y       z     vdW  Elec       q    Type
REMARK                         _______ _______ _______ _____ _____    ______ ____
ROOT
ATOM      1  C   UNL     1       1.011   5.864   0.647  0.00  0.00    +0.259 C 
ATOM      2  C   UNL     1       2.314   5.218   0.250  0.00  0.00    +0.261 C 
ATOM      3  O   UNL     1       3.322   5.887   0.153  0.00  0.00    -0.271 OA
ATOM      4  N   UNL     1       2.354   3.892   0.002  0.00  0.00    -0.261 N 
ATOM      5  C   UNL     1       1.157   3.160  -0.001  0.00  0.00    +0.079 A 
ATOM      6  C   UNL     1       1.178   1.775  -0.017  0.00  0.00    +0.029 A 
ATOM      7  C   UNL     1      -0.009   1.066  -0.018  0.00  0.00    +0.025 A 
ATOM      8  C   UNL     1      -1.223   1.740  -0.008  0.00  0.00    +0.028 A 
ATOM      9  C   UNL     1      -1.248   3.129   0.009  0.00  0.00    +0.070 A 
ATOM     10  C   UNL     1      -0.060   3.840   0.004  0.00  0.00    +0.145 A 
ATOM     11  O   UNL     1      -0.073   5.200  -0.006  0.00  0.00    -0.478 OA
ENDROOT
BRANCH   8  12
ATOM     12  N   UNL     1      -2.422   1.020  -0.009  0.00  0.00    -0.358 N 
ATOM     13  H   UNL     1      -3.384   1.554  -0.002  0.00  0.00    +0.142 HD
ATOM     14  H   UNL     1      -2.403  -0.080  -0.018  0.00  0.00    +0.142 HD
ENDBRANCH   8  12
BRANCH   1  16
ATOM     15  C   UNL     1      -0.423   6.527   2.583  0.00  0.00    +0.008 C 
ATOM     16  C   UNL     1       0.833   5.761   2.163  0.00  0.00    +0.051 C 
ENDBRANCH   1  16
BRANCH   4  17
ATOM     17  C   UNL     1       3.632   3.225  -0.260  0.00  0.00    +0.150 C 
BRANCH  17  18
ATOM     18  C   UNL     1       3.854   3.132  -1.748  0.00  0.00    -0.011 A 
ATOM     19  C   UNL     1       2.966   3.736  -2.618  0.00  0.00    +0.006 A 
ATOM     20  C   UNL     1       3.172   3.654  -3.983  0.00  0.00    +0.000 A 
ATOM     21  C   UNL     1       4.261   2.961  -4.478  0.00  0.00    +0.001 A 
ATOM     22  C   UNL     1       5.147   2.353  -3.608  0.00  0.00    +0.020 A 
ATOM     23  C   UNL     1       4.944   2.438  -2.242  0.00  0.00    +0.046 A 
ATOM     24 CL   UNL     1       6.056   1.674  -1.150  0.00  0.00    -0.083 Cl
ENDBRANCH  17  18
ENDBRANCH   4  17
TORSDOF 4
