REMARK  Name = ZINC65180043
REMARK  7 active torsions:
REMARK  status: ('A' for Active; 'I' for Inactive)
REMARK    1  A    between atoms: C_1  and  C_2
REMARK    2  A    between atoms: C_2  and  C_3
REMARK    3  A    between atoms: C_2  and  C_4
REMARK    4  A    between atoms: C_4  and  N_5
REMARK    5  A    between atoms: N_8  and  N_9
REMARK    6  A    between atoms: C_10  and  C_12
REMARK    7  A    between atoms: N_16  and  C_18
REMARK                            x       y       z     vdW  Elec       q    Type
REMARK                         _______ _______ _______ _____ _____    ______ ____
ROOT
ATOM      1  N   UNL     1      -1.342  -4.712  -0.386  0.00  0.00    -0.233 N 
ATOM      2  C   UNL     1      -1.320  -6.055  -0.498  0.00  0.00    +0.234 C 
ATOM      3  O   UNL     1      -2.361  -6.678  -0.519  0.00  0.00    -0.274 OA
ATOM      4  H   UNL     1      -0.510  -4.213  -0.368  0.00  0.00    +0.173 HD
ENDROOT
BRANCH   1   8
ATOM      5  N   UNL     1      -1.431  -2.001  -0.157  0.00  0.00    -0.298 N 
ATOM      6  C   UNL     1      -2.587  -2.693  -0.181  0.00  0.00    +0.316 C 
ATOM      7  O   UNL     1      -3.649  -2.107  -0.101  0.00  0.00    -0.251 OA
ATOM      8  N   UNL     1      -2.566  -4.036  -0.293  0.00  0.00    -0.218 N 
ATOM      9  H   UNL     1      -0.584  -2.468  -0.221  0.00  0.00    +0.150 HD
ATOM     10  H   UNL     1      -3.397  -4.535  -0.311  0.00  0.00    +0.174 HD
BRANCH   5  11
ATOM     11  C   UNL     1      -1.454  -0.541  -0.035  0.00  0.00    +0.108 C 
BRANCH  11  13
ATOM     12  C   UNL     1      -0.047   1.524  -0.031  0.00  0.00    +0.009 C 
ATOM     13  C   UNL     1      -0.021  -0.006  -0.033  0.00  0.00    -0.000 C 
ATOM     14  C   UNL     1       0.708  -0.505   1.217  0.00  0.00    +0.009 C 
ENDBRANCH  11  13
ENDBRANCH   5  11
ENDBRANCH   1   8
BRANCH   2  15
ATOM     15  C   UNL     1      -0.004  -6.782  -0.597  0.00  0.00    +0.103 C 
ATOM     16  C   UNL     1       0.785  -6.680   0.729  0.00  0.00    +0.110 C 
ATOM     17  C   UNL     1       0.396  -7.928   1.489  0.00  0.00    +0.221 C 
ATOM     18  O   UNL     1       0.569  -8.101   2.677  0.00  0.00    -0.275 OA
ATOM     19  N   UNL     1      -0.170  -8.819   0.657  0.00  0.00    -0.271 N 
ATOM     20  C   UNL     1      -0.222  -8.306  -0.717  0.00  0.00    +0.127 C 
BRANCH  19  21
ATOM     21  C   UNL     1      -0.649 -10.074   1.050  0.00  0.00    +0.036 A 
ATOM     22  C   UNL     1      -0.454 -10.516   2.352  0.00  0.00    +0.024 A 
ATOM     23  C   UNL     1      -0.928 -11.755   2.737  0.00  0.00    +0.017 A 
ATOM     24  C   UNL     1      -1.596 -12.555   1.828  0.00  0.00    +0.018 A 
ATOM     25  C   UNL     1      -1.792 -12.117   0.530  0.00  0.00    +0.017 A 
ATOM     26  C   UNL     1      -1.325 -10.877   0.141  0.00  0.00    +0.024 A 
ATOM     27 BR   UNL     1      -2.243 -14.251   2.359  0.00  0.00    -0.050 Br
ENDBRANCH  19  21
ENDBRANCH   2  15
TORSDOF 5
