REMARK  Name = ZINC65356887
REMARK  5 active torsions:
REMARK  status: ('A' for Active; 'I' for Inactive)
REMARK    1  A    between atoms: C_1  and  N_2
REMARK    2  A    between atoms: C_18  and  C_23
REMARK    3  A    between atoms: C_26  and  O_30
REMARK    4  A    between atoms: C_27  and  O_29
REMARK    5  A    between atoms: O_30  and  C_31
REMARK                            x       y       z     vdW  Elec       q    Type
REMARK                         _______ _______ _______ _____ _____    ______ ____
ROOT
ATOM      1  C   UNL     1      -0.018   1.461   0.010  0.00  0.00    +0.140 C 
ATOM      2  N   UNL     1       0.002  -0.004   0.002  0.00  0.00    -0.255 N 
ATOM      3  C   UNL     1      -1.104  -0.777   0.003  0.00  0.00    +0.242 C 
ATOM      4  O   UNL     1      -2.257  -0.404  -0.018  0.00  0.00    -0.273 OA
ATOM      5  C   UNL     1      -0.605  -2.205   0.036  0.00  0.00    +0.166 C 
ATOM      6  C   UNL     1      -1.113  -2.964  -1.203  0.00  0.00    +0.065 C 
ATOM      7  C   UNL     1      -0.140  -4.094  -1.442  0.00  0.00    -0.034 C 
ATOM      8  C   UNL     1      -0.039  -4.950  -2.453  0.00  0.00    -0.001 A 
ATOM      9  C   UNL     1      -0.881  -5.164  -3.642  0.00  0.00    +0.010 A 
ATOM     10  C   UNL     1      -0.468  -6.132  -4.502  0.00  0.00    +0.001 A 
ATOM     11  C   UNL     1       0.684  -6.900  -4.301  0.00  0.00    +0.002 A 
ATOM     12  C   UNL     1       1.511  -6.776  -3.232  0.00  0.00    +0.026 A 
ATOM     13  C   UNL     1       1.177  -5.795  -2.254  0.00  0.00    +0.043 A 
ATOM     14  N   UNL     1       1.772  -5.480  -1.142  0.00  0.00    -0.375 N 
ATOM     15  C   UNL     1       0.986  -4.439  -0.475  0.00  0.00    +0.131 C 
ATOM     16  C   UNL     1       1.810  -3.160  -0.270  0.00  0.00    +0.133 C 
ATOM     17  N   UNL     1       0.862  -2.054  -0.065  0.00  0.00    -0.291 N 
ATOM     18  C   UNL     1       1.121  -0.741  -0.013  0.00  0.00    +0.143 C 
ATOM     19  S   UNL     1       2.700  -0.082   0.034  0.00  0.00    -0.018 S 
ATOM     20  H   UNL     1       2.596  -5.869  -0.809  0.00  0.00    +0.160 HD
ENDROOT
BRANCH  16  21
ATOM     21  C   UNL     1       2.676  -3.300   0.956  0.00  0.00    -0.021 A 
ATOM     22  C   UNL     1       2.131  -3.110   2.212  0.00  0.00    +0.009 A 
ATOM     23  C   UNL     1       2.921  -3.237   3.338  0.00  0.00    +0.050 A 
ATOM     24  C   UNL     1       4.264  -3.556   3.211  0.00  0.00    +0.161 A 
ATOM     25  C   UNL     1       4.813  -3.748   1.946  0.00  0.00    +0.159 A 
ATOM     26  C   UNL     1       4.013  -3.624   0.821  0.00  0.00    +0.054 A 
BRANCH  25  27
ATOM     27  O   UNL     1       6.130  -4.061   1.815  0.00  0.00    -0.503 OA
ATOM     28  H   UNL     1       6.310  -5.011   1.821  0.00  0.00    +0.292 HD
ENDBRANCH  25  27
BRANCH  24  29
ATOM     29  O   UNL     1       5.043  -3.681   4.318  0.00  0.00    -0.491 OA
ATOM     30  C   UNL     1       4.412  -3.470   5.582  0.00  0.00    +0.277 C 
ENDBRANCH  24  29
ENDBRANCH  16  21
TORSDOF 3
