REMARK  Name = ZINC06062632
REMARK  4 active torsions:
REMARK  status: ('A' for Active; 'I' for Inactive)
REMARK    1  A    between atoms: C_7  and  C_11
REMARK    2  A    between atoms: C_11  and  C_13
REMARK    3  A    between atoms: C_11  and  C_17
REMARK    4  A    between atoms: C_13  and  N_14
REMARK                            x       y       z     vdW  Elec       q    Type
REMARK                         _______ _______ _______ _____ _____    ______ ____
ROOT
ATOM      1  C   UNL     1       0.666  -3.275  -0.021  0.00  0.00    +0.088 C 
ENDROOT
BRANCH   1   2
ATOM      2  C   UNL     1       0.840  -3.987  -1.338  0.00  0.00    +0.093 A 
ATOM      3  C   UNL     1       1.369  -5.247  -1.373  0.00  0.00    +0.200 A 
ATOM      4  C   UNL     1       1.518  -5.898  -2.684  0.00  0.00    +0.065 A 
ATOM      5  C   UNL     1       2.050  -7.184  -2.794  0.00  0.00    +0.015 A 
ATOM      6  C   UNL     1       2.176  -7.765  -4.036  0.00  0.00    +0.001 A 
ATOM      7  C   UNL     1       1.777  -7.079  -5.174  0.00  0.00    +0.004 A 
ATOM      8  C   UNL     1       1.250  -5.808  -5.080  0.00  0.00    +0.047 A 
ATOM      9  C   UNL     1       1.115  -5.204  -3.836  0.00  0.00    +0.143 A 
ATOM     10  O   UNL     1       0.600  -3.960  -3.726  0.00  0.00    -0.422 OA
ATOM     11  C   UNL     1       0.455  -3.361  -2.533  0.00  0.00    +0.345 A 
ATOM     12  O   UNL     1      -0.020  -2.239  -2.488  0.00  0.00    -0.245 OA
ATOM     13  O   UNL     1       1.745  -5.877  -0.237  0.00  0.00    -0.287 OA
ENDBRANCH   1   2
BRANCH   1  20
ATOM     14  C   UNL     1       0.707   1.391   0.424  0.00  0.00    +0.001 A 
ATOM     15  C   UNL     1       1.987   1.909   0.567  0.00  0.00    +0.002 A 
ATOM     16  C   UNL     1       3.086   1.078   0.568  0.00  0.00    +0.026 A 
ATOM     17  C   UNL     1       2.914  -0.295   0.425  0.00  0.00    +0.047 A 
ATOM     18  C   UNL     1       1.615  -0.815   0.281  0.00  0.00    +0.003 A 
ATOM     19  C   UNL     1       0.515   0.045   0.282  0.00  0.00    +0.010 A 
ATOM     20  C   UNL     1       1.772  -2.266   0.155  0.00  0.00    -0.013 A 
ATOM     21  C   UNL     1       3.087  -2.526   0.225  0.00  0.00    +0.088 A 
ATOM     22  N   UNL     1       3.785  -1.360   0.387  0.00  0.00    -0.360 N 
ATOM     23  H   UNL     1       4.749  -1.295   0.463  0.00  0.00    +0.165 HD
ENDBRANCH   1  20
BRANCH   1  24
ATOM     24  C   UNL     1       0.720  -4.294   1.119  0.00  0.00    +0.224 C 
BRANCH  24  25
ATOM     25  N   UNL     1       0.364  -3.636   2.379  0.00  0.00    +0.023 N 
ATOM     26  O   UNL     1      -0.404  -4.170   3.144  0.00  0.00    -0.132 OA
ATOM     27  O   UNL     1       0.839  -2.558   2.653  0.00  0.00    -0.132 OA
ENDBRANCH  24  25
ENDBRANCH   1  24
TORSDOF 4
