REMARK  Name = ZINC63303063
REMARK  7 active torsions:
REMARK  status: ('A' for Active; 'I' for Inactive)
REMARK    1  A    between atoms: C_1  and  O_2
REMARK    2  A    between atoms: O_2  and  C_3
REMARK    3  A    between atoms: C_9  and  C_13
REMARK    4  A    between atoms: N_15  and  C_16
REMARK    5  A    between atoms: C_16  and  C_17
REMARK    6  A    between atoms: C_17  and  C_18
REMARK    7  A    between atoms: N_20  and  C_21
REMARK                            x       y       z     vdW  Elec       q    Type
REMARK                         _______ _______ _______ _____ _____    ______ ____
ROOT
ATOM      1  C   UNL     1      -0.574  -5.189   1.266  0.00  0.00    +0.239 C 
ATOM      2  O   UNL     1      -1.026  -5.178   2.391  0.00  0.00    -0.273 OA
ATOM      3  N   UNL     1      -1.163  -5.936   0.311  0.00  0.00    -0.313 N 
ATOM      4  H   UNL     1      -0.801  -5.945  -0.589  0.00  0.00    +0.149 HD
ENDROOT
BRANCH   1  11
ATOM      5  C   UNL     1       0.624  -0.617   1.039  0.00  0.00    +0.129 A 
ATOM      6  C   UNL     1       1.193   0.116   2.035  0.00  0.00    +0.046 A 
ATOM      7  C   UNL     1       1.840  -0.493   3.113  0.00  0.00    +0.006 A 
ATOM      8  C   UNL     1       1.945  -1.836   3.241  0.00  0.00    +0.026 A 
ATOM      9  C   UNL     1       1.388  -2.699   2.263  0.00  0.00    +0.047 A 
ATOM     10  N   UNL     1       1.361  -4.008   2.166  0.00  0.00    -0.370 N 
ATOM     11  C   UNL     1       0.646  -4.369   0.936  0.00  0.00    +0.190 C 
ATOM     12  C   UNL     1       0.240  -3.062   0.293  0.00  0.00    +0.020 C 
ATOM     13  C   UNL     1       0.691  -2.086   1.109  0.00  0.00    +0.038 A 
ATOM     14  H   UNL     1       1.748  -4.631   2.800  0.00  0.00    +0.161 HD
BRANCH   5  16
ATOM     15  C   UNL     1      -0.017   1.425   0.010  0.00  0.00    +0.277 C 
ATOM     16  O   UNL     1       0.002  -0.004   0.002  0.00  0.00    -0.494 OA
ENDBRANCH   5  16
ENDBRANCH   1  11
BRANCH   3  17
ATOM     17  C   UNL     1      -2.349  -6.733   0.631  0.00  0.00    +0.113 C 
BRANCH  17  18
ATOM     18  C   UNL     1      -2.816  -7.479  -0.620  0.00  0.00    +0.114 C 
BRANCH  18  19
ATOM     19  C   UNL     1      -4.036  -8.300  -0.290  0.00  0.00    +0.216 C 
ATOM     20  O   UNL     1      -4.488  -8.288   0.835  0.00  0.00    -0.276 OA
ATOM     21  N   UNL     1      -4.625  -9.046  -1.245  0.00  0.00    -0.288 N 
ATOM     22  H   UNL     1      -4.263  -9.055  -2.145  0.00  0.00    +0.151 HD
BRANCH  21  23
ATOM     23  C   UNL     1      -5.811  -9.843  -0.925  0.00  0.00    +0.224 C 
ATOM     24  N   UNL     1      -6.450 -10.355  -2.145  0.00  0.00    -0.316 N 
ATOM     25  C   UNL     1      -6.519 -11.738  -2.306  0.00  0.00    +0.043 A 
ATOM     26  C   UNL     1      -7.091 -12.407  -3.402  0.00  0.00    +0.024 A 
ATOM     27  C   UNL     1      -7.109 -13.780  -3.468  0.00  0.00    +0.002 A 
ATOM     28  C   UNL     1      -6.565 -14.551  -2.457  0.00  0.00    +0.001 A 
ATOM     29  C   UNL     1      -5.994 -13.919  -1.365  0.00  0.00    +0.016 A 
ATOM     30  C   UNL     1      -5.977 -12.544  -1.300  0.00  0.00    +0.032 A 
ATOM     31  S   UNL     1      -5.347 -11.409  -0.082  0.00  0.00    -0.082 S 
ATOM     32  H   UNL     1      -6.812  -9.752  -2.813  0.00  0.00    +0.149 HD
ENDBRANCH  21  23
ENDBRANCH  18  19
ENDBRANCH  17  18
ENDBRANCH   3  17
TORSDOF 6
