REMARK  Name = ZINC34703473
REMARK  9 active torsions:
REMARK  status: ('A' for Active; 'I' for Inactive)
REMARK    1  A    between atoms: C_1  and  C_2
REMARK    2  A    between atoms: C_2  and  O_4
REMARK    3  A    between atoms: O_4  and  C_5
REMARK    4  A    between atoms: C_9  and  C_35
REMARK    5  A    between atoms: C_14  and  C_34
REMARK    6  A    between atoms: C_15  and  C_28
REMARK    7  A    between atoms: C_19  and  O_27
REMARK    8  A    between atoms: C_24  and  O_26
REMARK    9  A    between atoms: C_35  and  O_36
REMARK                            x       y       z     vdW  Elec       q    Type
REMARK                         _______ _______ _______ _____ _____    ______ ____
ROOT
ATOM      1  C   UNL     1      -0.415  -1.627  -1.120  0.00  0.00    +0.179 C 
ATOM      2  C   UNL     1      -1.791  -2.270  -0.971  0.00  0.00    +0.045 C 
ATOM      3  C   UNL     1      -2.591  -2.165  -2.264  0.00  0.00    +0.016 C 
ATOM      4  C   UNL     1      -1.835  -2.829  -3.428  0.00  0.00    +0.026 C 
ATOM      5  C   UNL     1      -2.649  -2.659  -4.702  0.00  0.00    +0.006 C 
ATOM      6  C   UNL     1      -4.012  -3.324  -4.609  0.00  0.00    +0.005 C 
ATOM      7  C   UNL     1      -4.019  -4.760  -5.103  0.00  0.00    +0.010 C 
ATOM      8  C   UNL     1      -3.498  -4.882  -6.529  0.00  0.00    +0.004 C 
ATOM      9  C   UNL     1      -3.215  -6.382  -6.814  0.00  0.00    +0.027 C 
ATOM     10  C   UNL     1      -1.859  -6.637  -6.126  0.00  0.00    +0.011 C 
ATOM     11  C   UNL     1      -1.083  -5.306  -6.239  0.00  0.00    +0.036 C 
ATOM     12  C   UNL     1      -2.106  -4.248  -6.669  0.00  0.00    +0.075 C 
ATOM     13  C   UNL     1      -1.942  -2.912  -6.000  0.00  0.00    +0.025 C 
ATOM     14  C   UNL     1      -0.495  -2.437  -6.051  0.00  0.00    +0.009 C 
ATOM     15  C   UNL     1       0.268  -2.714  -4.762  0.00  0.00    +0.036 C 
ATOM     16  C   UNL     1      -0.493  -2.110  -3.582  0.00  0.00    +0.077 C 
ATOM     17  C   UNL     1       0.336  -2.219  -2.309  0.00  0.00    +0.080 C 
ATOM     18  C   UNL     1      -4.486  -4.303  -7.550  0.00  0.00    +0.014 C 
ENDROOT
BRANCH   9  19
ATOM     19  C   UNL     1      -4.283  -7.282  -6.250  0.00  0.00    -0.022 C 
ATOM     20  C   UNL     1      -4.189  -8.037  -5.158  0.00  0.00    +0.094 C 
ATOM     21  C   UNL     1      -5.452  -8.755  -4.963  0.00  0.00    +0.332 C 
ATOM     22  O   UNL     1      -5.685  -9.525  -4.052  0.00  0.00    -0.246 OA
ATOM     23  O   UNL     1      -6.316  -8.431  -5.942  0.00  0.00    -0.457 OA
ATOM     24  C   UNL     1      -5.670  -7.494  -6.810  0.00  0.00    +0.264 C 
ENDBRANCH   9  19
BRANCH  16  25
ATOM     25  O   UNL     1      -0.738  -0.724  -3.864  0.00  0.00    -0.388 OA
ATOM     26  H   UNL     1       0.065  -0.198  -3.977  0.00  0.00    +0.210 HD
ENDBRANCH  16  25
BRANCH  12  27
ATOM     27  O   UNL     1      -1.901  -4.024  -8.087  0.00  0.00    -0.388 OA
ATOM     28  H   UNL     1      -1.048  -3.623  -8.303  0.00  0.00    +0.210 HD
ENDBRANCH  12  27
BRANCH   1  29
ATOM     29  O   UNL     1      -0.551  -0.215  -1.275  0.00  0.00    -0.461 OA
BRANCH  29  31
ATOM     30  C   UNL     1      -0.716   2.020  -0.238  0.00  0.00    +0.136 C 
ATOM     31  C   UNL     1      -0.575   0.522  -0.153  0.00  0.00    +0.304 C 
ATOM     32  O   UNL     1      -0.482  -0.016   0.925  0.00  0.00    -0.251 OA
ENDBRANCH  29  31
ENDBRANCH   1  29
BRANCH   4  33
ATOM     33  C   UNL     1      -1.620  -4.299  -3.083  0.00  0.00    +0.165 C 
BRANCH  33  34
ATOM     34  O   UNL     1      -0.835  -4.399  -1.893  0.00  0.00    -0.394 OA
ATOM     35  H   UNL     1      -0.658  -5.308  -1.614  0.00  0.00    +0.209 HD
ENDBRANCH  33  34
ENDBRANCH   4  33
TORSDOF 7
