REMARK  Name = ZINC20990205
REMARK  4 active torsions:
REMARK  status: ('A' for Active; 'I' for Inactive)
REMARK    1  A    between atoms: C_1  and  C_2
REMARK    2  A    between atoms: C_7  and  S_8
REMARK    3  A    between atoms: S_8  and  N_11
REMARK    4  A    between atoms: C_14  and  C_17
REMARK                            x       y       z     vdW  Elec       q    Type
REMARK                         _______ _______ _______ _____ _____    ______ ____
ROOT
ATOM      1  C   UNL     1       3.536   3.423  -1.578  0.00  0.00    +0.046 C 
ATOM      2  C   UNL     1       3.116   3.513  -3.022  0.00  0.00    -0.023 A 
ATOM      3  C   UNL     1       3.806   2.805  -3.982  0.00  0.00    +0.016 A 
ATOM      4  C   UNL     1       3.418   2.887  -5.317  0.00  0.00    +0.011 A 
ATOM      5  C   UNL     1       2.323   3.694  -5.680  0.00  0.00    +0.049 A 
ATOM      6  C   UNL     1       1.638   4.396  -4.695  0.00  0.00    +0.055 A 
ATOM      7  C   UNL     1       2.037   4.307  -3.379  0.00  0.00    +0.110 A 
ATOM      8  N   UNL     1       2.159   3.592  -7.049  0.00  0.00    -0.357 N 
ATOM      9  H   UNL     1       1.353   4.151  -7.549  0.00  0.00    +0.166 HD
ATOM     10  C   UNL     1       3.075   2.771  -7.577  0.00  0.00    +0.028 A 
ATOM     11  C   UNL     1       3.898   2.295  -6.567  0.00  0.00    +0.046 A 
ATOM     12  C   UNL     1       4.973   1.406  -6.812  0.00  0.00    +0.165 C 
ATOM     13  O   UNL     1       5.655   0.979  -5.903  0.00  0.00    -0.292 OA
ATOM     14  C   UNL     1       5.240   1.008  -8.248  0.00  0.00    +0.080 C 
ATOM     15  C   UNL     1       3.931   0.979  -9.035  0.00  0.00    +0.014 C 
ATOM     16  C   UNL     1       3.262   2.359  -9.018  0.00  0.00    +0.054 C 
ENDROOT
BRANCH   7  17
ATOM     17  S   UNL     1       1.165   5.205  -2.139  0.00  0.00    +0.061 S 
ATOM     18  O   UNL     1       0.154   5.945  -2.809  0.00  0.00    -0.153 OA
ATOM     19  O   UNL     1       2.147   5.825  -1.320  0.00  0.00    -0.153 OA
BRANCH  17  20
ATOM     20  N   UNL     1       0.388   4.096  -1.187  0.00  0.00    -0.177 NA
ATOM     21  C   UNL     1       1.008   3.606   0.051  0.00  0.00    +0.110 C 
ATOM     22  C   UNL     1       1.037   2.074   0.016  0.00  0.00    +0.020 C 
ATOM     23  C   UNL     1      -0.378   1.547  -0.229  0.00  0.00    -0.012 C 
ATOM     24  C   UNL     1      -0.886   2.052  -1.581  0.00  0.00    +0.020 C 
ATOM     25  C   UNL     1      -0.936   3.583  -1.564  0.00  0.00    +0.110 C 
ATOM     26  C   UNL     1      -0.359   0.017  -0.230  0.00  0.00    +0.007 C 
ENDBRANCH  17  20
ENDBRANCH   7  17
TORSDOF 2
