REMARK  Name = ZINC39201034
REMARK  8 active torsions:
REMARK  status: ('A' for Active; 'I' for Inactive)
REMARK    1  A    between atoms: C_4  and  N_7
REMARK    2  A    between atoms: N_10  and  C_13
REMARK    3  A    between atoms: C_13  and  C_14
REMARK    4  A    between atoms: C_14  and  C_15
REMARK    5  A    between atoms: C_19  and  S_22
REMARK    6  A    between atoms: S_22  and  C_23
REMARK    7  A    between atoms: C_23  and  C_24
REMARK    8  A    between atoms: C_24  and  C_25
REMARK                            x       y       z     vdW  Elec       q    Type
REMARK                         _______ _______ _______ _____ _____    ______ ____
ROOT
ATOM      1  C   UNL     1       7.926  -4.663  -2.753  0.00  0.00    +0.201 C 
ATOM      2  N   UNL     1       8.251  -6.066  -2.405  0.00  0.00    -0.226 NA
ATOM      3  N   UNL     1       8.273  -6.797  -3.674  0.00  0.00    -0.218 NA
ATOM      4  C   UNL     1       7.960  -5.798  -4.721  0.00  0.00    +0.262 C 
ATOM      5  O   UNL     1       7.244  -4.751  -4.025  0.00  0.00    -0.332 OA
ATOM      6  H   UNL     1       9.143  -6.125  -1.938  0.00  0.00    +0.143 HD
ATOM      7  H   UNL     1       7.595  -7.544  -3.673  0.00  0.00    +0.144 HD
ENDROOT
BRANCH   1   8
ATOM      8  C   UNL     1       7.005  -4.051  -1.695  0.00  0.00    +0.030 C 
BRANCH   8   9
ATOM      9  C   UNL     1       6.750  -2.580  -2.031  0.00  0.00    -0.075 C 
BRANCH   9  13
ATOM     10  N   UNL     1       3.620  -0.649  -0.036  0.00  0.00    -0.333 N 
ATOM     11  C   UNL     1       4.892   0.081  -0.149  0.00  0.00    +0.086 C 
ATOM     12  C   UNL     1       5.719  -0.554  -1.271  0.00  0.00    -0.060 C 
ATOM     13  N   UNL     1       5.867  -1.992  -1.016  0.00  0.00    +0.382 N 
ATOM     14  C   UNL     1       4.554  -2.648  -1.073  0.00  0.00    -0.060 C 
ATOM     15  C   UNL     1       3.669  -2.116   0.065  0.00  0.00    +0.086 C 
ATOM     16  H   UNL     1       6.270  -2.130  -0.101  0.00  0.00    -0.082 HD
BRANCH  10  20
ATOM     17  C   UNL     1      -0.017   1.379   0.011  0.00  0.00    +0.000 A 
ATOM     18  C   UNL     1       0.002  -0.004  -0.011  0.00  0.00    +0.002 A 
ATOM     19  C   UNL     1       1.206  -0.680  -0.027  0.00  0.00    +0.023 A 
ATOM     20  C   UNL     1       2.400   0.031  -0.021  0.00  0.00    +0.030 A 
ATOM     21  C   UNL     1       2.377   1.420   0.002  0.00  0.00    +0.023 A 
ATOM     22  C   UNL     1       1.170   2.089   0.018  0.00  0.00    +0.002 A 
ENDBRANCH  10  20
ENDBRANCH   9  13
ENDBRANCH   8   9
ENDBRANCH   1   8
BRANCH   4  23
ATOM     23  S   UNL     1       6.916  -6.535  -6.008  0.00  0.00    -0.113 S 
BRANCH  23  24
ATOM     24  C   UNL     1       5.446  -7.103  -5.109  0.00  0.00    +0.078 C 
BRANCH  24  25
ATOM     25  C   UNL     1       4.469  -7.754  -6.089  0.00  0.00    +0.048 C 
BRANCH  25  26
ATOM     26  C   UNL     1       3.247  -8.226  -5.343  0.00  0.00    -0.022 A 
ATOM     27  C   UNL     1       2.070  -7.423  -5.004  0.00  0.00    +0.003 A 
ATOM     28  C   UNL     1       1.704  -6.095  -5.227  0.00  0.00    +0.010 A 
ATOM     29  C   UNL     1       0.499  -5.637  -4.771  0.00  0.00    +0.001 A 
ATOM     30  C   UNL     1      -0.363  -6.482  -4.087  0.00  0.00    +0.002 A 
ATOM     31  C   UNL     1      -0.022  -7.797  -3.856  0.00  0.00    +0.026 A 
ATOM     32  C   UNL     1       1.198  -8.284  -4.312  0.00  0.00    +0.047 A 
ATOM     33  N   UNL     1       1.814  -9.514  -4.242  0.00  0.00    -0.360 N 
ATOM     34  C   UNL     1       3.030  -9.462  -4.867  0.00  0.00    +0.087 A 
ATOM     35  H   UNL     1       1.439 -10.302  -3.818  0.00  0.00    +0.165 HD
ENDBRANCH  25  26
ENDBRANCH  24  25
ENDBRANCH  23  24
ENDBRANCH   4  23
TORSDOF 8
