REMARK  Name = ZINC43221567
REMARK  11 active torsions:
REMARK  status: ('A' for Active; 'I' for Inactive)
REMARK    1  A    between atoms: C_1  and  C_2
REMARK    2  A    between atoms: C_2  and  C_3
REMARK    3  A    between atoms: C_3  and  C_5
REMARK    4  A    between atoms: C_3  and  C_6
REMARK    5  A    between atoms: C_6  and  C_39
REMARK    6  A    between atoms: C_11  and  C_14
REMARK    7  A    between atoms: C_18  and  O_20
REMARK    8  A    between atoms: O_20  and  C_21
REMARK    9  A    between atoms: N_27  and  C_30
REMARK   10  A    between atoms: C_33  and  C_36
REMARK   11  A    between atoms: C_36  and  C_38
REMARK                            x       y       z     vdW  Elec       q    Type
REMARK                         _______ _______ _______ _____ _____    ______ ____
ROOT
ATOM      1  C   UNL     1       1.010  -2.339  -1.363  0.00  0.00    +0.051 C 
ATOM      2  C   UNL     1       1.406  -2.923  -2.715  0.00  0.00    +0.086 C 
ATOM      3  C   UNL     1       0.734  -4.335  -2.523  0.00  0.00    +0.077 C 
ATOM      4  C   UNL     1      -0.615  -4.009  -2.042  0.00  0.00    -0.027 C 
ATOM      5  N   UNL     1      -0.421  -2.761  -1.217  0.00  0.00    +0.396 N 
ATOM      6  C   UNL     1       1.385  -5.119  -3.545  0.00  0.00    +0.229 C 
ATOM      7  O   UNL     1       0.911  -6.028  -4.192  0.00  0.00    -0.275 OA
ATOM      8  N   UNL     1       2.657  -4.611  -3.624  0.00  0.00    -0.210 N 
ATOM      9  C   UNL     1       2.800  -3.404  -2.970  0.00  0.00    +0.229 C 
ATOM     10  O   UNL     1       3.831  -2.848  -2.660  0.00  0.00    -0.275 OA
ATOM     11  H   UNL     1      -0.625  -2.948  -0.247  0.00  0.00    -0.083 HD
ATOM     12  H   UNL     1      -1.029  -2.034  -1.563  0.00  0.00    -0.083 HD
ENDROOT
BRANCH   4  13
ATOM     13  C   UNL     1      -1.542  -3.762  -3.204  0.00  0.00    -0.057 A 
ATOM     14  C   UNL     1      -1.543  -2.534  -3.838  0.00  0.00    +0.002 A 
ATOM     15  C   UNL     1      -2.392  -2.304  -4.904  0.00  0.00    +0.004 A 
ATOM     16  C   UNL     1      -3.243  -3.303  -5.339  0.00  0.00    +0.046 A 
ATOM     17  C   UNL     1      -3.244  -4.536  -4.704  0.00  0.00    +0.130 A 
ATOM     18  C   UNL     1      -2.386  -4.766  -3.638  0.00  0.00    +0.048 A 
BRANCH  17  19
ATOM     19  O   UNL     1      -4.080  -5.519  -5.129  0.00  0.00    -0.406 OA
BRANCH  19  20
ATOM     20  C   UNL     1      -4.931  -5.214  -6.236  0.00  0.00    +0.575 C 
ATOM     21  F   UNL     1      -4.149  -4.879  -7.347  0.00  0.00    -0.133 F 
ATOM     22  F   UNL     1      -5.719  -6.330  -6.540  0.00  0.00    -0.133 F 
ATOM     23  F   UNL     1      -5.758  -4.135  -5.905  0.00  0.00    -0.133 F 
ENDBRANCH  19  20
ENDBRANCH  17  19
ENDBRANCH   4  13
BRANCH   8  24
ATOM     24  C   UNL     1       3.701  -5.242  -4.307  0.00  0.00    +0.044 A 
ATOM     25  C   UNL     1       4.964  -4.660  -4.333  0.00  0.00    +0.024 A 
ATOM     26  C   UNL     1       5.995  -5.277  -5.004  0.00  0.00    +0.013 A 
ATOM     27  C   UNL     1       5.770  -6.493  -5.661  0.00  0.00    +0.017 A 
ATOM     28  C   UNL     1       4.497  -7.075  -5.632  0.00  0.00    +0.013 A 
ATOM     29  C   UNL     1       3.474  -6.452  -4.954  0.00  0.00    +0.024 A 
BRANCH  27  30
ATOM     30  C   UNL     1       6.867  -7.156  -6.379  0.00  0.00    +0.160 C 
ATOM     31  O   UNL     1       7.942  -6.604  -6.487  0.00  0.00    -0.292 OA
ATOM     32  C   UNL     1       6.656  -8.520  -6.983  0.00  0.00    +0.091 C 
ENDBRANCH  27  30
ENDBRANCH   8  24
BRANCH   1  33
ATOM     33  C   UNL     1       1.853  -2.922  -0.259  0.00  0.00    +0.347 C 
ATOM     34  O   UNL     1       1.329  -3.574   0.628  0.00  0.00    -0.248 OA
ATOM     35  O   UNL     1       3.059  -2.744  -0.253  0.00  0.00    -0.248 OA
ENDBRANCH   1  33
BRANCH   1  36
ATOM     36  C   UNL     1       1.125  -0.813  -1.379  0.00  0.00    -0.014 C 
ATOM     37  C   UNL     1       0.709  -0.256  -0.017  0.00  0.00    +0.006 C 
BRANCH  36  39
ATOM     38  C   UNL     1       2.663   1.107  -1.813  0.00  0.00    +0.004 C 
ATOM     39  C   UNL     1       2.572  -0.413  -1.673  0.00  0.00    -0.001 C 
ENDBRANCH  36  39
ENDBRANCH   1  36
TORSDOF 8
