REMARK  Name = ZINC17441137
REMARK  4 active torsions:
REMARK  status: ('A' for Active; 'I' for Inactive)
REMARK    1  A    between atoms: C_7  and  C_17
REMARK    2  A    between atoms: C_9  and  C_11
REMARK    3  A    between atoms: N_19  and  N_20
REMARK    4  A    between atoms: C_21  and  C_23
REMARK                            x       y       z     vdW  Elec       q    Type
REMARK                         _______ _______ _______ _____ _____    ______ ____
ROOT
ATOM      1  C   UNL     1      -0.017   1.359  -0.045  0.00  0.00    +0.001 A 
ATOM      2  C   UNL     1       1.170   2.089  -0.052  0.00  0.00    +0.002 A 
ATOM      3  C   UNL     1       2.378   1.465  -0.049  0.00  0.00    +0.028 A 
ATOM      4  C   UNL     1       2.438   0.058  -0.039  0.00  0.00    +0.072 A 
ATOM      5  C   UNL     1       1.228  -0.681  -0.032  0.00  0.00    +0.013 A 
ATOM      6  C   UNL     1       0.002  -0.004  -0.035  0.00  0.00    +0.011 A 
ATOM      7  C   UNL     1       1.286  -2.099  -0.021  0.00  0.00    +0.049 A 
ATOM      8  C   UNL     1       2.537  -2.697  -0.018  0.00  0.00    +0.042 A 
ATOM      9  C   UNL     1       3.687  -1.893  -0.026  0.00  0.00    +0.072 A 
ATOM     10  N   UNL     1       3.611  -0.577  -0.035  0.00  0.00    -0.247 NA
ENDROOT
BRANCH   9  11
ATOM     11  C   UNL     1       5.022  -2.540  -0.022  0.00  0.00    +0.003 A 
ATOM     12  C   UNL     1       5.145  -3.932  -0.018  0.00  0.00    +0.030 A 
ATOM     13  C   UNL     1       6.406  -4.493  -0.016  0.00  0.00    +0.111 A 
ATOM     14  N   UNL     1       7.485  -3.733  -0.017  0.00  0.00    -0.263 NA
ATOM     15  C   UNL     1       7.413  -2.417  -0.021  0.00  0.00    +0.111 A 
ATOM     16  C   UNL     1       6.191  -1.774  -0.029  0.00  0.00    +0.030 A 
ENDBRANCH   9  11
BRANCH   7  17
ATOM     17  C   UNL     1       0.051  -2.913  -0.014  0.00  0.00    +0.261 C 
ATOM     18  O   UNL     1      -1.032  -2.372   0.091  0.00  0.00    -0.269 OA
ATOM     19  N   UNL     1       0.128  -4.254  -0.123  0.00  0.00    -0.230 N 
ATOM     20  H   UNL     1       0.993  -4.685  -0.206  0.00  0.00    +0.173 HD
BRANCH  19  21
ATOM     21  N   UNL     1      -1.042  -5.025  -0.115  0.00  0.00    -0.228 N 
ATOM     22  C   UNL     1      -0.965  -6.366  -0.225  0.00  0.00    +0.295 C 
ATOM     23  O   UNL     1       0.120  -6.907  -0.330  0.00  0.00    -0.265 OA
ATOM     24  H   UNL     1      -1.907  -4.594  -0.032  0.00  0.00    +0.173 HD
BRANCH  22  25
ATOM     25  C   UNL     1      -2.190  -7.174  -0.217  0.00  0.00    +0.190 A 
ATOM     26  C   UNL     1      -2.254  -8.534  -0.314  0.00  0.00    +0.054 A 
ATOM     27  C   UNL     1      -3.614  -8.878  -0.264  0.00  0.00    +0.042 A 
ATOM     28  C   UNL     1      -4.311  -7.727  -0.141  0.00  0.00    +0.196 A 
ATOM     29  O   UNL     1      -3.449  -6.703  -0.106  0.00  0.00    -0.458 OA
ENDBRANCH  22  25
ENDBRANCH  19  21
ENDBRANCH   7  17
TORSDOF 4
