REMARK  Name = ZINC17185850
REMARK  11 active torsions:
REMARK  status: ('A' for Active; 'I' for Inactive)
REMARK    1  A    between atoms: C_1  and  C_2
REMARK    2  A    between atoms: C_5  and  S_8
REMARK    3  A    between atoms: S_8  and  N_11
REMARK    4  A    between atoms: N_11  and  C_12
REMARK    5  A    between atoms: C_12  and  C_14
REMARK    6  A    between atoms: C_12  and  C_17
REMARK    7  A    between atoms: C_14  and  C_15
REMARK    8  A    between atoms: C_14  and  C_16
REMARK    9  A    between atoms: N_19  and  N_20
REMARK   10  A    between atoms: C_21  and  C_23
REMARK   11  A    between atoms: C_23  and  C_24
REMARK                            x       y       z     vdW  Elec       q    Type
REMARK                         _______ _______ _______ _____ _____    ______ ____
ROOT
ATOM      1  C   UNL     1      -1.323   1.984  -0.618  0.00  0.00    +0.248 C 
ATOM      2  O   UNL     1      -2.297   1.280  -0.457  0.00  0.00    -0.273 OA
ATOM      3  N   UNL     1      -0.273   1.528  -1.329  0.00  0.00    -0.233 N 
ATOM      4  H   UNL     1       0.472   2.116  -1.526  0.00  0.00    +0.173 HD
ENDROOT
BRANCH   3   5
ATOM      5  N   UNL     1      -0.260   0.204  -1.790  0.00  0.00    -0.234 N 
ATOM      6  C   UNL     1       0.787  -0.250  -2.506  0.00  0.00    +0.230 C 
ATOM      7  O   UNL     1       1.719   0.486  -2.752  0.00  0.00    -0.274 OA
ATOM      8  H   UNL     1      -1.006  -0.385  -1.593  0.00  0.00    +0.173 HD
BRANCH   6   9
ATOM      9  C   UNL     1       0.800  -1.673  -3.001  0.00  0.00    +0.104 C 
BRANCH   9  10
ATOM     10  C   UNL     1       2.092  -1.930  -3.780  0.00  0.00    -0.020 C 
ATOM     11  C   UNL     1       2.167  -0.975  -4.972  0.00  0.00    +0.011 C 
ATOM     12  C   UNL     1       3.459  -1.231  -5.751  0.00  0.00    -0.010 C 
ATOM     13  C   UNL     1       3.472  -2.676  -6.254  0.00  0.00    +0.007 C 
ATOM     14  C   UNL     1       3.397  -3.632  -5.062  0.00  0.00    -0.010 C 
ATOM     15  C   UNL     1       2.106  -3.375  -4.283  0.00  0.00    +0.011 C 
ATOM     16  C   UNL     1       4.600  -3.400  -4.145  0.00  0.00    +0.007 C 
ATOM     17  C   UNL     1       4.587  -1.955  -3.642  0.00  0.00    -0.010 C 
ATOM     18  C   UNL     1       4.662  -0.999  -4.835  0.00  0.00    +0.007 C 
ATOM     19  C   UNL     1       3.295  -1.698  -2.864  0.00  0.00    +0.011 C 
ENDBRANCH   9  10
ENDBRANCH   6   9
ENDBRANCH   3   5
BRANCH   1  20
ATOM     20  C   UNL     1      -1.286   3.368  -0.023  0.00  0.00    +0.166 C 
BRANCH  20  21
ATOM     21  C   UNL     1      -0.536   3.330   1.310  0.00  0.00    +0.010 C 
ATOM     22  C   UNL     1      -0.383   4.753   1.850  0.00  0.00    +0.009 C 
ATOM     23  C   UNL     1      -1.325   2.487   2.314  0.00  0.00    +0.009 C 
ENDBRANCH  20  21
BRANCH  20  24
ATOM     24  N   UNL     1      -2.654   3.841   0.199  0.00  0.00    -0.178 NA
ATOM     25  H   UNL     1      -3.226   3.389   0.839  0.00  0.00    +0.149 HD
BRANCH  24  26
ATOM     26  S   UNL     1      -3.226   5.147  -0.643  0.00  0.00    +0.059 S 
ATOM     27  O   UNL     1      -4.590   5.301  -0.277  0.00  0.00    -0.153 OA
ATOM     28  O   UNL     1      -2.271   6.186  -0.477  0.00  0.00    -0.153 OA
BRANCH  26  33
ATOM     29  C   UNL     1      -3.166   3.666  -6.492  0.00  0.00    +0.044 C 
ATOM     30  C   UNL     1      -3.181   4.036  -5.031  0.00  0.00    -0.050 A 
ATOM     31  C   UNL     1      -4.303   3.780  -4.264  0.00  0.00    +0.005 A 
ATOM     32  C   UNL     1      -4.316   4.119  -2.924  0.00  0.00    +0.029 A 
ATOM     33  C   UNL     1      -3.208   4.715  -2.351  0.00  0.00    +0.105 A 
ATOM     34  C   UNL     1      -2.089   4.975  -3.119  0.00  0.00    +0.029 A 
ATOM     35  C   UNL     1      -2.074   4.632  -4.457  0.00  0.00    +0.005 A 
ENDBRANCH  26  33
ENDBRANCH  24  26
ENDBRANCH  20  24
ENDBRANCH   1  20
TORSDOF 8
