REMARK  Name = ZINC58304384
REMARK  6 active torsions:
REMARK  status: ('A' for Active; 'I' for Inactive)
REMARK    1  A    between atoms: C_1  and  N_2
REMARK    2  A    between atoms: C_3  and  C_5
REMARK    3  A    between atoms: C_9  and  N_11
REMARK    4  A    between atoms: C_12  and  C_14
REMARK    5  A    between atoms: C_14  and  C_15
REMARK    6  A    between atoms: C_15  and  N_16
REMARK                            x       y       z     vdW  Elec       q    Type
REMARK                         _______ _______ _______ _____ _____    ______ ____
ROOT
ATOM      1  N   UNL     1      -3.504  -4.997  -0.003  0.00  0.00    -0.285 N 
ATOM      2  C   UNL     1      -3.481  -6.340  -0.112  0.00  0.00    +0.219 C 
ATOM      3  O   UNL     1      -2.421  -6.930  -0.121  0.00  0.00    -0.275 OA
ATOM      4  H   UNL     1      -4.351  -4.532   0.081  0.00  0.00    +0.155 HD
ENDROOT
BRANCH   1   9
ATOM      5  C   UNL     1      -0.041  -3.994  -0.770  0.00  0.00    +0.038 A 
ATOM      6  C   UNL     1       0.063  -2.825  -0.013  0.00  0.00    +0.013 A 
ATOM      7  C   UNL     1      -1.012  -2.391   0.736  0.00  0.00    +0.003 A 
ATOM      8  C   UNL     1      -2.193  -3.110   0.740  0.00  0.00    +0.023 A 
ATOM      9  C   UNL     1      -2.306  -4.274  -0.010  0.00  0.00    +0.034 A 
ATOM     10  C   UNL     1      -1.234  -4.715  -0.771  0.00  0.00    +0.036 A 
BRANCH   5  13
ATOM     11  C   UNL     1       3.401  -4.226  -2.367  0.00  0.00    +0.128 C 
ATOM     12  N   UNL     1       2.262  -3.763  -1.571  0.00  0.00    -0.314 N 
ATOM     13  C   UNL     1       1.109  -4.462  -1.573  0.00  0.00    +0.244 C 
ATOM     14  O   UNL     1       1.015  -5.477  -2.236  0.00  0.00    -0.270 OA
ATOM     15  H   UNL     1       2.337  -2.953  -1.043  0.00  0.00    +0.149 HD
ENDBRANCH   5  13
ENDBRANCH   1   9
BRANCH   2  16
ATOM     16  C   UNL     1      -4.772  -7.110  -0.224  0.00  0.00    +0.115 C 
BRANCH  16  17
ATOM     17  C   UNL     1      -4.466  -8.605  -0.335  0.00  0.00    +0.127 C 
BRANCH  17  18
ATOM     18  N   UNL     1      -5.721  -9.353  -0.443  0.00  0.00    -0.224 N 
ATOM     19  C   UNL     1      -6.415  -9.827   0.612  0.00  0.00    +0.247 C 
ATOM     20  O   UNL     1      -6.131  -9.719   1.786  0.00  0.00    -0.273 OA
ATOM     21  C   UNL     1      -7.623 -10.520   0.023  0.00  0.00    +0.113 C 
ATOM     22  C   UNL     1      -8.906  -9.851   0.503  0.00  0.00    +0.035 C 
ATOM     23  C   UNL     1     -10.114 -10.548  -0.128  0.00  0.00    +0.003 C 
ATOM     24  C   UNL     1     -10.111 -12.027   0.265  0.00  0.00    +0.000 C 
ATOM     25  C   UNL     1      -8.829 -12.689  -0.243  0.00  0.00    +0.003 C 
ATOM     26  C   UNL     1      -7.616 -12.000   0.387  0.00  0.00    +0.035 C 
ATOM     27  N   UNL     1      -7.462 -10.345  -1.426  0.00  0.00    -0.285 N 
ATOM     28  C   UNL     1      -6.324  -9.646  -1.602  0.00  0.00    +0.309 C 
ATOM     29  O   UNL     1      -5.892  -9.322  -2.690  0.00  0.00    -0.252 OA
ATOM     30  H   UNL     1      -8.060 -10.666  -2.119  0.00  0.00    +0.151 HD
ENDBRANCH  17  18
ENDBRANCH  16  17
ENDBRANCH   2  16
TORSDOF 5
