REMARK  Name = ZINC66497732
REMARK  4 active torsions:
REMARK  status: ('A' for Active; 'I' for Inactive)
REMARK    1  A    between atoms: C_7  and  C_11
REMARK    2  A    between atoms: C_11  and  N_12
REMARK    3  A    between atoms: C_17  and  C_19
REMARK    4  A    between atoms: N_21  and  C_22
REMARK                            x       y       z     vdW  Elec       q    Type
REMARK                         _______ _______ _______ _____ _____    ______ ____
ROOT
ATOM      1  N   UNL     1      -2.418  -3.501   1.069  0.00  0.00    -0.286 NA
ATOM      2  C   UNL     1      -1.616  -4.008   2.190  0.00  0.00    +0.085 C 
ATOM      3  C   UNL     1      -2.172  -3.459   3.506  0.00  0.00    +0.015 C 
ATOM      4  C   UNL     1      -3.632  -3.895   3.659  0.00  0.00    +0.003 C 
ATOM      5  C   UNL     1      -4.435  -3.396   2.455  0.00  0.00    +0.028 C 
ATOM      6  C   UNL     1      -3.813  -3.947   1.170  0.00  0.00    +0.144 C 
ENDROOT
BRANCH   6   7
ATOM      7  C   UNL     1      -4.589  -3.443  -0.020  0.00  0.00    +0.234 C 
ATOM      8  O   UNL     1      -4.258  -2.412  -0.566  0.00  0.00    -0.274 OA
ATOM      9  N   UNL     1      -5.649  -4.137  -0.477  0.00  0.00    -0.284 N 
ATOM     10  H   UNL     1      -5.957  -4.923   0.002  0.00  0.00    +0.155 HD
BRANCH   9  11
ATOM     11  C   UNL     1      -6.307  -3.725  -1.641  0.00  0.00    +0.039 A 
ATOM     12  C   UNL     1      -6.831  -4.668  -2.514  0.00  0.00    +0.061 A 
ATOM     13  C   UNL     1      -7.481  -4.258  -3.665  0.00  0.00    +0.128 A 
ATOM     14  C   UNL     1      -7.608  -2.908  -3.946  0.00  0.00    +0.076 A 
ATOM     15  C   UNL     1      -7.085  -1.966  -3.077  0.00  0.00    +0.128 A 
ATOM     16  C   UNL     1      -6.441  -2.372  -1.922  0.00  0.00    +0.061 A 
ATOM     17  F   UNL     1      -7.210  -0.650  -3.353  0.00  0.00    -0.205 F 
ATOM     18  F   UNL     1      -7.992  -5.176  -4.515  0.00  0.00    -0.205 F 
ENDBRANCH   9  11
ENDBRANCH   6   7
BRANCH   1  19
ATOM     19  C   UNL     1      -1.831  -3.896  -0.218  0.00  0.00    +0.138 C 
BRANCH  19  26
ATOM     20  C   UNL     1       0.783   0.284  -1.016  0.00  0.00    +0.068 A 
ATOM     21  C   UNL     1       2.158   0.454  -1.186  0.00  0.00    +0.137 A 
ATOM     22  N   UNL     1       2.737  -0.718  -1.105  0.00  0.00    -0.170 NA
ATOM     23  N   UNL     1       1.750  -1.685  -0.879  0.00  0.00    -0.180 N 
ATOM     24  C   UNL     1       0.546  -1.045  -0.828  0.00  0.00    +0.138 A 
ATOM     25  N   UNL     1      -0.615  -1.763  -0.614  0.00  0.00    -0.342 N 
ATOM     26  C   UNL     1      -0.563  -3.115  -0.453  0.00  0.00    +0.037 A 
ATOM     27  C   UNL     1       0.627  -3.756  -0.503  0.00  0.00    +0.094 A 
ATOM     28  C   UNL     1       1.810  -3.022  -0.723  0.00  0.00    +0.275 A 
ATOM     29  O   UNL     1       2.884  -3.595  -0.769  0.00  0.00    -0.266 OA
ATOM     30  H   UNL     1      -1.469  -1.304  -0.577  0.00  0.00    +0.167 HD
ENDBRANCH  19  26
ENDBRANCH   1  19
TORSDOF 4
