REMARK  Name = ZINC39217323
REMARK  4 active torsions:
REMARK  status: ('A' for Active; 'I' for Inactive)
REMARK    1  A    between atoms: C_1  and  O_2
REMARK    2  A    between atoms: O_2  and  C_3
REMARK    3  A    between atoms: C_6  and  C_9
REMARK    4  A    between atoms: C_13  and  C_15
REMARK                            x       y       z     vdW  Elec       q    Type
REMARK                         _______ _______ _______ _____ _____    ______ ____
ROOT
ATOM      1  C   UNL     1      -4.553  -4.553   1.255  0.00  0.00    +0.178 C 
ATOM      2  N   UNL     1      -3.127  -4.162   1.290  0.00  0.00    -0.298 N 
ATOM      3  C   UNL     1      -2.237  -4.891   0.518  0.00  0.00    +0.177 C 
ATOM      4  N   UNL     1      -2.345  -6.277   0.523  0.00  0.00    -0.284 N 
ATOM      5  C   UNL     1      -3.704  -6.825   0.367  0.00  0.00    +0.254 C 
ATOM      6  N   UNL     1      -4.574  -6.021   1.261  0.00  0.00    -0.275 N 
ATOM      7  C   UNL     1      -5.291  -6.901   2.044  0.00  0.00    +0.055 A 
ATOM      8  C   UNL     1      -6.339  -6.656   2.928  0.00  0.00    +0.025 A 
ATOM      9  C   UNL     1      -6.870  -7.745   3.604  0.00  0.00    +0.002 A 
ATOM     10  C   UNL     1      -6.386  -9.023   3.416  0.00  0.00    +0.002 A 
ATOM     11  C   UNL     1      -5.346  -9.286   2.536  0.00  0.00    +0.025 A 
ATOM     12  C   UNL     1      -4.807  -8.205   1.844  0.00  0.00    +0.051 A 
ATOM     13  N   UNL     1      -3.784  -8.200   0.868  0.00  0.00    -0.309 N 
ATOM     14  N   UNL     1      -1.323  -4.294  -0.193  0.00  0.00    -0.273 NA
ATOM     15  H   UNL     1      -2.825  -3.418   1.835  0.00  0.00    +0.150 HD
ATOM     16  H   UNL     1      -3.238  -8.950   0.583  0.00  0.00    +0.149 HD
ATOM     17  H   UNL     1      -0.706  -4.818  -0.728  0.00  0.00    +0.189 HD
ATOM     18  H   UNL     1      -1.570  -6.851   0.622  0.00  0.00    +0.152 HD
ENDROOT
BRANCH   1  23
ATOM     19  C   UNL     1      -6.645  -4.510  -0.122  0.00  0.00    +0.082 C 
ATOM     20  N   UNL     1      -6.701  -5.219  -1.217  0.00  0.00    -0.153 NA
ATOM     21  N   UNL     1      -5.473  -5.274  -1.869  0.00  0.00    -0.161 NA
ATOM     22  C   UNL     1      -4.552  -4.613  -1.247  0.00  0.00    +0.121 C 
ATOM     23  C   UNL     1      -5.214  -4.022  -0.019  0.00  0.00    +0.121 C 
BRANCH  19  27
ATOM     24  C   UNL     1      -9.819  -3.725   2.581  0.00  0.00    +0.120 A 
ATOM     25  C   UNL     1     -10.009  -4.613   1.529  0.00  0.00    +0.046 A 
ATOM     26  C   UNL     1      -8.982  -4.872   0.649  0.00  0.00    +0.013 A 
ATOM     27  C   UNL     1      -7.745  -4.238   0.815  0.00  0.00    -0.001 A 
ATOM     28  C   UNL     1      -7.559  -3.344   1.875  0.00  0.00    +0.013 A 
ATOM     29  C   UNL     1      -8.594  -3.088   2.747  0.00  0.00    +0.046 A 
BRANCH  24  31
ATOM     30  C   UNL     1     -12.066  -4.162   3.218  0.00  0.00    +0.277 C 
ATOM     31  O   UNL     1     -10.834  -3.474   3.446  0.00  0.00    -0.495 OA
ENDBRANCH  24  31
ENDBRANCH  19  27
ENDBRANCH   1  23
TORSDOF 3
