REMARK  Name = ZINC05882553
REMARK  6 active torsions:
REMARK  status: ('A' for Active; 'I' for Inactive)
REMARK    1  A    between atoms: C_1  and  C_2
REMARK    2  A    between atoms: C_2  and  O_23
REMARK    3  A    between atoms: C_4  and  O_22
REMARK    4  A    between atoms: C_13  and  O_20
REMARK    5  A    between atoms: C_15  and  O_19
REMARK    6  A    between atoms: O_20  and  C_21
REMARK                            x       y       z     vdW  Elec       q    Type
REMARK                         _______ _______ _______ _____ _____    ______ ____
ROOT
ATOM      1  C   UNL     1       0.109   1.292  -2.480  0.00  0.00    +0.042 C 
ATOM      2  C   UNL     1      -0.737   1.585  -1.239  0.00  0.00    +0.070 C 
ATOM      3  C   UNL     1      -0.941   3.098  -1.097  0.00  0.00    +0.071 C 
ATOM      4  C   UNL     1      -1.957   3.335   0.018  0.00  0.00    +0.151 C 
ATOM      5  C   UNL     1      -1.574   2.579   1.265  0.00  0.00    +0.035 C 
ATOM      6  C   UNL     1      -0.705   1.565   1.260  0.00  0.00    +0.012 C 
ATOM      7  C   UNL     1      -0.013   1.086   0.008  0.00  0.00    +0.074 C 
ATOM      8  C   UNL     1      -0.376   0.854   2.518  0.00  0.00    +0.191 C 
ATOM      9  O   UNL     1       0.414  -0.069   2.500  0.00  0.00    -0.287 OA
ATOM     10  C   UNL     1      -1.002   1.257   3.791  0.00  0.00    +0.040 A 
ATOM     11  C   UNL     1      -0.705   0.601   4.976  0.00  0.00    +0.058 A 
ATOM     12  C   UNL     1      -1.313   1.004   6.166  0.00  0.00    +0.124 A 
ATOM     13  C   UNL     1      -2.211   2.058   6.173  0.00  0.00    +0.091 A 
ATOM     14  C   UNL     1      -2.518   2.726   4.992  0.00  0.00    +0.132 A 
ATOM     15  C   UNL     1      -1.915   2.330   3.793  0.00  0.00    +0.074 A 
ATOM     16  C   UNL     1      -2.216   3.011   2.531  0.00  0.00    +0.196 C 
ATOM     17  O   UNL     1      -3.001   3.939   2.522  0.00  0.00    -0.287 OA
ENDROOT
BRANCH  14  18
ATOM     18  O   UNL     1      -3.399   3.757   5.002  0.00  0.00    -0.506 OA
ATOM     19  H   UNL     1      -2.991   4.621   5.152  0.00  0.00    +0.292 HD
ENDBRANCH  14  18
BRANCH  12  20
ATOM     20  O   UNL     1      -1.021   0.360   7.324  0.00  0.00    -0.495 OA
ATOM     21  C   UNL     1      -1.677   0.823   8.507  0.00  0.00    +0.277 C 
ENDBRANCH  12  20
BRANCH   4  22
ATOM     22  O   UNL     1      -3.245   2.898  -0.420  0.00  0.00    -0.387 OA
ATOM     23  H   UNL     1      -3.945   3.017   0.237  0.00  0.00    +0.210 HD
ENDBRANCH   4  22
BRANCH   2  24
ATOM     24  O   UNL     1      -2.004   0.934  -1.354  0.00  0.00    -0.388 OA
ATOM     25  H   UNL     1      -1.947  -0.029  -1.426  0.00  0.00    +0.210 HD
ENDBRANCH   2  24
TORSDOF 4
