REMARK  Name = ZINC05918732
REMARK  6 active torsions:
REMARK  status: ('A' for Active; 'I' for Inactive)
REMARK    1  A    between atoms: C_1  and  O_2
REMARK    2  A    between atoms: O_2  and  C_3
REMARK    3  A    between atoms: C_7  and  C_10
REMARK    4  A    between atoms: C_8  and  O_9
REMARK    5  A    between atoms: N_11  and  N_12
REMARK    6  A    between atoms: N_12  and  C_13
REMARK                            x       y       z     vdW  Elec       q    Type
REMARK                         _______ _______ _______ _____ _____    ______ ____
ROOT
ATOM      1  C   UNL     1       1.402  -4.103   2.234  0.00  0.00    +0.142 C 
ATOM      2  N   UNL     1       0.866  -4.821   1.294  0.00  0.00    -0.190 NA
ENDROOT
BRANCH   1   7
ATOM      3  C   UNL     1       0.626  -0.619   1.042  0.00  0.00    +0.162 A 
ATOM      4  C   UNL     1       1.202   0.139   2.051  0.00  0.00    +0.049 A 
ATOM      5  C   UNL     1       1.839  -0.480   3.113  0.00  0.00    +0.004 A 
ATOM      6  C   UNL     1       1.907  -1.856   3.178  0.00  0.00    +0.013 A 
ATOM      7  C   UNL     1       1.331  -2.632   2.168  0.00  0.00    +0.040 A 
ATOM      8  C   UNL     1       0.682  -2.006   1.097  0.00  0.00    +0.167 A 
BRANCH   3  10
ATOM      9  C   UNL     1      -0.017   1.425   0.010  0.00  0.00    +0.277 C 
ATOM     10  O   UNL     1       0.002  -0.004   0.002  0.00  0.00    -0.491 OA
ENDBRANCH   3  10
BRANCH   8  11
ATOM     11  O   UNL     1       0.114  -2.752   0.113  0.00  0.00    -0.503 OA
ATOM     12  H   UNL     1       0.710  -2.954  -0.621  0.00  0.00    +0.292 HD
ENDBRANCH   8  11
ENDBRANCH   1   7
BRANCH   2  13
ATOM     13  N   UNL     1       0.933  -6.219   1.356  0.00  0.00    -0.236 N 
ATOM     14  H   UNL     1       1.380  -6.650   2.101  0.00  0.00    +0.174 HD
BRANCH  13  15
ATOM     15  C   UNL     1       0.359  -6.989   0.349  0.00  0.00    +0.074 A 
ATOM     16  C   UNL     1      -0.274  -6.381  -0.716  0.00  0.00    +0.027 A 
ATOM     17  C   UNL     1      -0.852  -7.139  -1.728  0.00  0.00    +0.003 A 
ATOM     18  C   UNL     1      -0.810  -8.501  -1.696  0.00  0.00    +0.010 A 
ATOM     19  C   UNL     1      -0.175  -9.157  -0.630  0.00  0.00    +0.002 A 
ATOM     20  C   UNL     1       0.423  -8.399   0.406  0.00  0.00    +0.093 A 
ATOM     21  N   UNL     1       1.032  -9.020   1.419  0.00  0.00    -0.253 NA
ATOM     22  C   UNL     1       1.096 -10.329   1.478  0.00  0.00    +0.111 A 
ATOM     23  C   UNL     1       0.533 -11.134   0.490  0.00  0.00    +0.020 A 
ATOM     24  C   UNL     1      -0.116 -10.563  -0.568  0.00  0.00    +0.011 A 
ENDBRANCH  13  15
ENDBRANCH   2  13
TORSDOF 5
