REMARK  Name = ZINC39608306
REMARK  9 active torsions:
REMARK  status: ('A' for Active; 'I' for Inactive)
REMARK    1  A    between atoms: C_1  and  C_2
REMARK    2  A    between atoms: C_3  and  C_13
REMARK    3  A    between atoms: C_4  and  C_7
REMARK    4  A    between atoms: C_17  and  C_26
REMARK    5  A    between atoms: N_28  and  C_29
REMARK    6  A    between atoms: C_29  and  C_31
REMARK    7  A    between atoms: C_29  and  C_32
REMARK    8  A    between atoms: C_32  and  C_33
REMARK    9  A    between atoms: C_32  and  C_34
REMARK                            x       y       z     vdW  Elec       q    Type
REMARK                         _______ _______ _______ _____ _____    ______ ____
ROOT
ATOM      1  C   UNL     1      -2.739   0.076  -0.279  0.00  0.00    +0.252 C 
ATOM      2  O   UNL     1      -3.501   0.265  -1.208  0.00  0.00    -0.270 OA
ATOM      3  N   UNL     1      -3.174   0.216   0.989  0.00  0.00    -0.296 N 
ATOM      4  C   UNL     1      -2.380   0.125   2.237  0.00  0.00    +0.121 C 
ATOM      5  C   UNL     1      -2.949   1.238   3.144  0.00  0.00    +0.100 C 
ATOM      6  C   UNL     1      -4.376   1.477   2.624  0.00  0.00    -0.004 C 
ATOM      7  C   UNL     1      -4.553   0.504   1.450  0.00  0.00    +0.115 C 
ATOM      8  C   UNL     1      -4.527   2.915   2.136  0.00  0.00    -0.010 C 
ATOM      9  C   UNL     1      -5.970   3.145   1.677  0.00  0.00    -0.082 C 
ATOM     10  N   UNL     1      -6.888   2.886   2.793  0.00  0.00    +0.379 N 
ATOM     11  C   UNL     1      -6.803   1.477   3.195  0.00  0.00    -0.082 C 
ATOM     12  C   UNL     1      -5.396   1.177   3.719  0.00  0.00    -0.010 C 
ATOM     13  H   UNL     1      -6.638   3.473   3.575  0.00  0.00    -0.086 HD
ATOM     14  H   UNL     1      -7.832   3.096   2.507  0.00  0.00    -0.086 HD
ENDROOT
BRANCH   1  17
ATOM     15  C   UNL     1      -0.374   2.041  -0.837  0.00  0.00    +0.090 C 
ATOM     16  C   UNL     1      -0.298   0.537  -0.784  0.00  0.00    +0.147 A 
ATOM     17  C   UNL     1      -1.341  -0.307  -0.540  0.00  0.00    +0.106 A 
ATOM     18  C   UNL     1      -0.800  -1.674  -0.586  0.00  0.00    +0.126 A 
ATOM     19  N   UNL     1       0.479  -1.569  -0.845  0.00  0.00    -0.077 NA
ATOM     20  O   UNL     1       0.800  -0.198  -0.976  0.00  0.00    -0.359 OA
BRANCH  18  21
ATOM     21  C   UNL     1      -1.558  -2.932  -0.380  0.00  0.00    +0.004 A 
ATOM     22  C   UNL     1      -2.612  -2.972   0.532  0.00  0.00    +0.010 A 
ATOM     23  C   UNL     1      -3.314  -4.145   0.720  0.00  0.00    +0.001 A 
ATOM     24  C   UNL     1      -2.974  -5.280   0.006  0.00  0.00    +0.000 A 
ATOM     25  C   UNL     1      -1.930  -5.246  -0.900  0.00  0.00    +0.001 A 
ATOM     26  C   UNL     1      -1.224  -4.077  -1.101  0.00  0.00    +0.010 A 
ENDBRANCH  18  21
ENDBRANCH   1  17
BRANCH   5  27
ATOM     27  C   UNL     1      -2.124   2.493   3.015  0.00  0.00    +0.218 C 
ATOM     28  O   UNL     1      -1.522   2.720   1.986  0.00  0.00    -0.275 OA
ATOM     29  N   UNL     1      -2.055   3.363   4.042  0.00  0.00    -0.312 N 
ATOM     30  H   UNL     1      -2.476   3.148   4.889  0.00  0.00    +0.149 HD
BRANCH  29  31
ATOM     31  C   UNL     1      -1.344   4.634   3.879  0.00  0.00    +0.072 C 
ATOM     32  C   UNL     1       0.138   4.433   4.200  0.00  0.00    +0.028 C 
BRANCH  31  33
ATOM     33  C   UNL     1      -1.936   5.675   4.831  0.00  0.00    +0.003 C 
ATOM     34  C   UNL     1      -1.194   7.002   4.661  0.00  0.00    +0.009 C 
ATOM     35  C   UNL     1      -3.419   5.875   4.510  0.00  0.00    +0.009 C 
ENDBRANCH  31  33
ENDBRANCH  29  31
ENDBRANCH   5  27
TORSDOF 5
