REMARK  Name = ZINC52094447
REMARK  5 active torsions:
REMARK  status: ('A' for Active; 'I' for Inactive)
REMARK    1  A    between atoms: C_1  and  C_2
REMARK    2  A    between atoms: C_3  and  C_7
REMARK    3  A    between atoms: C_7  and  C_9
REMARK    4  A    between atoms: C_7  and  N_22
REMARK    5  A    between atoms: N_22  and  C_23
REMARK                            x       y       z     vdW  Elec       q    Type
REMARK                         _______ _______ _______ _____ _____    ______ ____
ROOT
ATOM      1  C   UNL     1      -2.847  -0.077  -1.643  0.00  0.00    -0.041 A 
ATOM      2  C   UNL     1      -3.719  -0.941  -2.278  0.00  0.00    +0.031 A 
ATOM      3  C   UNL     1      -4.046  -0.735  -3.609  0.00  0.00    +0.067 A 
ATOM      4  C   UNL     1      -3.494   0.344  -4.303  0.00  0.00    +0.068 A 
ATOM      5  C   UNL     1      -2.620   1.206  -3.658  0.00  0.00    +0.043 A 
ATOM      6  C   UNL     1      -2.304   0.996  -2.328  0.00  0.00    +0.022 A 
ATOM      7 BR   UNL     1      -1.120   2.176  -1.445  0.00  0.00    -0.050 Br
ATOM      8  N   UNL     1      -4.000   0.291  -5.599  0.00  0.00    -0.306 N 
ATOM      9  H   UNL     1      -3.795   0.913  -6.315  0.00  0.00    +0.170 HD
ATOM     10  C   UNL     1      -4.823  -0.771  -5.690  0.00  0.00    +0.325 A 
ATOM     11  O   UNL     1      -5.430  -1.104  -6.691  0.00  0.00    -0.247 OA
ATOM     12  N   UNL     1      -4.871  -1.410  -4.506  0.00  0.00    -0.306 N 
ATOM     13  H   UNL     1      -5.391  -2.205  -4.311  0.00  0.00    +0.170 HD
ENDROOT
BRANCH   1  14
ATOM     14  C   UNL     1      -2.492  -0.300  -0.195  0.00  0.00    -0.006 C 
BRANCH  14  17
ATOM     15  C   UNL     1      -1.986  -3.314  -0.848  0.00  0.00    +0.086 C 
ATOM     16  C   UNL     1      -0.950  -2.321  -0.388  0.00  0.00    +0.104 A 
ATOM     17  C   UNL     1      -1.173  -1.024  -0.108  0.00  0.00    -0.017 A 
ATOM     18  C   UNL     1       0.068  -0.470   0.283  0.00  0.00    +0.043 A 
ATOM     19  C   UNL     1       0.975  -1.462   0.219  0.00  0.00    +0.195 A 
ATOM     20  O   UNL     1       0.352  -2.581  -0.183  0.00  0.00    -0.468 OA
ENDBRANCH  14  17
BRANCH  14  21
ATOM     21  N   UNL     1      -3.537  -1.109   0.447  0.00  0.00    +0.385 N 
ATOM     22  C   UNL     1      -3.243  -1.241   1.880  0.00  0.00    -0.099 C 
ATOM     23  H   UNL     1      -4.432  -0.658   0.327  0.00  0.00    -0.085 HD
ATOM     24  H   UNL     1      -3.562  -2.024   0.023  0.00  0.00    -0.085 HD
ENDBRANCH  14  21
ENDBRANCH   1  14
TORSDOF 3
