REMARK  Name = ZINC36250777
REMARK  5 active torsions:
REMARK  status: ('A' for Active; 'I' for Inactive)
REMARK    1  A    between atoms: C_1  and  C_2
REMARK    2  A    between atoms: C_6  and  N_9
REMARK    3  A    between atoms: C_7  and  C_8
REMARK    4  A    between atoms: C_17  and  C_22
REMARK    5  A    between atoms: C_18  and  N_21
REMARK                            x       y       z     vdW  Elec       q    Type
REMARK                         _______ _______ _______ _____ _____    ______ ____
ROOT
ATOM      1  N   UNL     1       0.025  -2.797   2.390  0.00  0.00    -0.327 N 
ATOM      2  C   UNL     1      -1.231  -3.222   3.024  0.00  0.00    +0.124 C 
ATOM      3  C   UNL     1      -1.178  -4.738   3.249  0.00  0.00    +0.125 C 
ATOM      4  N   UNL     1       0.094  -5.071   3.905  0.00  0.00    -0.314 N 
ATOM      5  C   UNL     1       1.350  -4.646   3.271  0.00  0.00    +0.125 C 
ATOM      6  C   UNL     1       1.298  -3.135   3.043  0.00  0.00    +0.124 C 
ATOM      7  C   UNL     1       0.110  -5.777   5.106  0.00  0.00    +0.099 A 
ATOM      8  C   UNL     1      -1.089  -6.060   5.753  0.00  0.00    +0.047 A 
ATOM      9  C   UNL     1      -1.063  -6.761   6.944  0.00  0.00    -0.025 A 
ATOM     10  C   UNL     1       0.172  -7.159   7.454  0.00  0.00    +0.044 A 
ATOM     11  C   UNL     1       1.326  -6.841   6.754  0.00  0.00    +0.107 A 
ATOM     12  N   UNL     1       1.264  -6.175   5.617  0.00  0.00    -0.348 N 
ATOM     13  C   UNL     1      -2.340  -7.087   7.675  0.00  0.00    +0.046 C 
ATOM     14  H   UNL     1       2.086  -5.968   5.144  0.00  0.00    +0.167 HD
ENDROOT
BRANCH   1  20
ATOM     15  C   UNL     1      -0.100   1.501   0.010  0.00  0.00    +0.044 C 
ATOM     16  C   UNL     1      -0.051  -0.005   0.002  0.00  0.00    -0.046 A 
ATOM     17  C   UNL     1      -0.021  -0.689  -1.200  0.00  0.00    +0.004 A 
ATOM     18  C   UNL     1       0.024  -2.071  -1.212  0.00  0.00    +0.002 A 
ATOM     19  C   UNL     1       0.039  -2.773  -0.023  0.00  0.00    +0.023 A 
ATOM     20  C   UNL     1       0.010  -2.090   1.186  0.00  0.00    +0.033 A 
ATOM     21  C   UNL     1      -0.030  -0.701   1.194  0.00  0.00    -0.027 A 
ATOM     22  C   UNL     1      -0.057   0.045   2.504  0.00  0.00    +0.046 C 
ENDBRANCH   1  20
BRANCH  10  23
ATOM     23  N   UNL     1       0.246  -7.871   8.658  0.00  0.00    -0.357 N 
ATOM     24  H   UNL     1      -0.565  -8.089   9.142  0.00  0.00    +0.142 HD
ATOM     25  H   UNL     1       1.109  -8.145   9.007  0.00  0.00    +0.142 HD
ENDBRANCH  10  23
TORSDOF 2
