REMARK  Name = ZINC36854599
REMARK  4 active torsions:
REMARK  status: ('A' for Active; 'I' for Inactive)
REMARK    1  A    between atoms: C_3  and  S_9
REMARK    2  A    between atoms: C_4  and  N_8
REMARK    3  A    between atoms: S_9  and  C_10
REMARK    4  A    between atoms: N_15  and  C_18
REMARK                            x       y       z     vdW  Elec       q    Type
REMARK                         _______ _______ _______ _____ _____    ______ ____
ROOT
ATOM      1  C   UNL     1       3.367   4.058  -0.009  0.00  0.00    +0.146 C 
ATOM      2  C   UNL     1       4.590   4.995   0.055  0.00  0.00    +0.120 C 
ATOM      3  C   UNL     1       4.493   5.794  -1.226  0.00  0.00    +0.224 C 
ATOM      4  O   UNL     1       5.269   6.656  -1.577  0.00  0.00    -0.275 OA
ATOM      5  N   UNL     1       3.414   5.396  -1.912  0.00  0.00    -0.238 N 
ATOM      6  C   UNL     1       2.704   4.424  -1.319  0.00  0.00    +0.236 C 
ATOM      7  O   UNL     1       1.695   3.917  -1.761  0.00  0.00    -0.274 OA
ENDROOT
BRANCH   5   8
ATOM      8  C   UNL     1       3.037   5.976  -3.204  0.00  0.00    +0.084 C 
ATOM      9  C   UNL     1       4.197   5.825  -4.210  0.00  0.00    +0.023 C 
ATOM     10  C   UNL     1       4.159   7.136  -5.033  0.00  0.00    +0.002 C 
ATOM     11  C   UNL     1       3.798   8.200  -3.967  0.00  0.00    +0.002 C 
ATOM     12  C   UNL     1       2.784   7.486  -3.049  0.00  0.00    +0.023 C 
ENDBRANCH   5   8
BRANCH   1  13
ATOM     13  S   UNL     1       3.894   2.322  -0.023  0.00  0.00    -0.110 S 
BRANCH  13  16
ATOM     14  C   UNL     1      -0.017   1.379   0.010  0.00  0.00    +0.021 A 
ATOM     15  C   UNL     1       1.169   2.091   0.002  0.00  0.00    +0.018 A 
ATOM     16  C   UNL     1       2.382   1.418  -0.013  0.00  0.00    +0.029 A 
ATOM     17  C   UNL     1       2.401   0.022  -0.021  0.00  0.00    +0.040 A 
ATOM     18  C   UNL     1       1.208  -0.683  -0.013  0.00  0.00    +0.043 A 
ATOM     19  C   UNL     1       0.002  -0.004   0.002  0.00  0.00    +0.043 A 
ATOM     20 CL   UNL     1      -1.491  -0.890   0.012  0.00  0.00    -0.083 Cl
BRANCH  17  21
ATOM     21  N   UNL     1       3.622  -0.663  -0.037  0.00  0.00    -0.357 N 
ATOM     22  H   UNL     1       4.456  -0.168  -0.042  0.00  0.00    +0.142 HD
ATOM     23  H   UNL     1       3.634  -1.633  -0.042  0.00  0.00    +0.142 HD
ENDBRANCH  17  21
ENDBRANCH  13  16
ENDBRANCH   1  13
TORSDOF 4
