REMARK  Name = ZINC09253528
REMARK  4 active torsions:
REMARK  status: ('A' for Active; 'I' for Inactive)
REMARK    1  A    between atoms: C_1  and  C_2
REMARK    2  A    between atoms: C_2  and  C_3
REMARK    3  A    between atoms: C_2  and  C_4
REMARK    4  A    between atoms: C_2  and  N_5
REMARK                            x       y       z     vdW  Elec       q    Type
REMARK                         _______ _______ _______ _____ _____    ______ ____
ROOT
ATOM      1  N   UNL     1       1.134   5.561   2.299  0.00  0.00    -0.236 N 
ATOM      2  C   UNL     1       1.634   6.510   1.499  0.00  0.00    +0.225 C 
ATOM      3  O   UNL     1       1.210   7.641   1.405  0.00  0.00    -0.275 OA
ATOM      4  C   UNL     1       2.811   5.950   0.731  0.00  0.00    +0.073 C 
ATOM      5  C   UNL     1       2.446   5.846  -0.761  0.00  0.00    -0.054 C 
ATOM      6  C   UNL     1       3.338   6.802  -1.572  0.00  0.00    -0.016 C 
ATOM      7  C   UNL     1       4.568   5.969  -1.983  0.00  0.00    -0.020 C 
ATOM      8  C   UNL     1       4.337   4.576  -1.363  0.00  0.00    -0.076 C 
ATOM      9  C   UNL     1       2.577   3.631  -0.000  0.00  0.00    +0.053 C 
ATOM     10  C   UNL     1       2.901   4.483   1.233  0.00  0.00    +0.088 C 
ATOM     11  C   UNL     1       1.777   4.372   2.238  0.00  0.00    +0.225 C 
ATOM     12  O   UNL     1       1.503   3.379   2.876  0.00  0.00    -0.275 OA
ATOM     13  C   UNL     1       1.144   3.177   0.009  0.00  0.00    -0.026 A 
ATOM     14  C   UNL     1      -0.060   3.844   0.023  0.00  0.00    +0.019 A 
ATOM     15  C   UNL     1      -1.246   3.130   0.030  0.00  0.00    +0.018 A 
ATOM     16  C   UNL     1      -1.218   1.747   0.017  0.00  0.00    +0.017 A 
ATOM     17  C   UNL     1      -0.013   1.076   0.008  0.00  0.00    +0.024 A 
ATOM     18  C   UNL     1       1.185   1.786   0.000  0.00  0.00    +0.036 A 
ATOM     19  N   UNL     1       2.510   1.343  -0.016  0.00  0.00    -0.286 N 
ATOM     20  C   UNL     1       3.388   2.364  -0.018  0.00  0.00    +0.212 C 
ATOM     21  O   UNL     1       4.598   2.278  -0.030  0.00  0.00    -0.277 OA
ATOM     22 BR   UNL     1      -2.902   4.044   0.051  0.00  0.00    -0.050 Br
ATOM     23  H   UNL     1       2.767   0.407  -0.025  0.00  0.00    +0.155 HD
ATOM     24  N   UNL     1       2.883   4.519  -1.132  0.00  0.00    +0.395 N 
ATOM     25  H   UNL     1       2.401   4.197  -1.979  0.00  0.00    -0.079 HD
ENDROOT
BRANCH   1  27
ATOM     26  C   UNL     1      -0.502   7.232   3.015  0.00  0.00    +0.031 C 
ATOM     27  C   UNL     1      -0.015   5.790   3.178  0.00  0.00    +0.036 C 
ATOM     28  C   UNL     1      -1.143   4.826   2.806  0.00  0.00    +0.031 C 
ATOM     29  C   UNL     1       0.399   5.554   4.631  0.00  0.00    +0.031 C 
ENDBRANCH   1  27
TORSDOF 1
