REMARK  Name = ZINC53281206
REMARK  6 active torsions:
REMARK  status: ('A' for Active; 'I' for Inactive)
REMARK    1  A    between atoms: C_1  and  C_2
REMARK    2  A    between atoms: C_6  and  N_8
REMARK    3  A    between atoms: C_9  and  C_11
REMARK    4  A    between atoms: C_11  and  C_12
REMARK    5  A    between atoms: C_12  and  N_13
REMARK    6  A    between atoms: N_16  and  C_17
REMARK                            x       y       z     vdW  Elec       q    Type
REMARK                         _______ _______ _______ _____ _____    ______ ____
ROOT
ATOM      1  N   UNL     1      -0.311  -6.872   4.871  0.00  0.00    -0.299 N 
ATOM      2  C   UNL     1      -0.395  -8.216   4.922  0.00  0.00    +0.300 C 
ATOM      3  O   UNL     1      -0.391  -8.865   3.894  0.00  0.00    -0.253 OA
ATOM      4  N   UNL     1      -0.482  -8.841   6.113  0.00  0.00    -0.294 N 
ATOM      5  H   UNL     1      -0.314  -6.355   5.692  0.00  0.00    +0.150 HD
ATOM      6  H   UNL     1      -0.485  -8.324   6.933  0.00  0.00    +0.151 HD
ENDROOT
BRANCH   4   7
ATOM      7  C   UNL     1      -0.573 -10.303   6.168  0.00  0.00    +0.037 C 
ATOM      8  C   UNL     1      -1.823 -10.765   5.415  0.00  0.00    +0.029 C 
ATOM      9  C   UNL     1      -1.917 -12.291   5.472  0.00  0.00    -0.008 C 
ATOM     10  C   UNL     1      -2.006 -12.741   6.932  0.00  0.00    +0.007 C 
ATOM     11  C   UNL     1      -0.757 -12.279   7.685  0.00  0.00    -0.008 C 
ATOM     12  C   UNL     1      -0.662 -10.753   7.627  0.00  0.00    +0.029 C 
ATOM     13  C   UNL     1       0.486 -12.893   7.036  0.00  0.00    +0.007 C 
ATOM     14  C   UNL     1       0.574 -12.442   5.577  0.00  0.00    -0.008 C 
ATOM     15  C   UNL     1      -0.675 -12.904   4.824  0.00  0.00    +0.007 C 
ATOM     16  C   UNL     1       0.669 -10.916   5.519  0.00  0.00    +0.029 C 
ENDBRANCH   4   7
BRANCH   1  17
ATOM     17  C   UNL     1      -0.215  -6.192   3.577  0.00  0.00    +0.115 C 
BRANCH  17  18
ATOM     18  C   UNL     1      -0.133  -4.681   3.800  0.00  0.00    +0.115 C 
BRANCH  18  20
ATOM     19  N   UNL     1       0.049  -2.638   2.417  0.00  0.00    -0.270 N 
ATOM     20  C   UNL     1      -0.035  -3.982   2.468  0.00  0.00    +0.220 C 
ATOM     21  O   UNL     1      -0.031  -4.629   1.442  0.00  0.00    -0.275 OA
ATOM     22  H   UNL     1       0.120  -2.125   3.238  0.00  0.00    +0.156 HD
BRANCH  19  28
ATOM     23  C   UNL     1       0.029  -2.966  -2.361  0.00  0.00    +0.065 C 
ATOM     24  C   UNL     1       0.023  -2.114  -1.118  0.00  0.00    +0.040 A 
ATOM     25  C   UNL     1       0.003  -0.738  -1.234  0.00  0.00    +0.023 A 
ATOM     26  C   UNL     1      -0.003   0.041  -0.085  0.00  0.00    +0.005 A 
ATOM     27  C   UNL     1       0.013  -0.595   1.144  0.00  0.00    +0.044 A 
ATOM     28  C   UNL     1       0.033  -1.984   1.186  0.00  0.00    +0.125 A 
ATOM     29  N   UNL     1       0.032  -2.693   0.068  0.00  0.00    -0.237 NA
ENDBRANCH  19  28
ENDBRANCH  18  20
ENDBRANCH  17  18
ENDBRANCH   1  17
TORSDOF 5
