REMARK  Name = ZINC46876867
REMARK  5 active torsions:
REMARK  status: ('A' for Active; 'I' for Inactive)
REMARK    1  A    between atoms: C_1  and  C_2
REMARK    2  A    between atoms: C_10  and  C_11
REMARK    3  A    between atoms: N_13  and  N_14
REMARK    4  A    between atoms: N_17  and  C_18
REMARK    5  A    between atoms: C_18  and  C_19
REMARK                            x       y       z     vdW  Elec       q    Type
REMARK                         _______ _______ _______ _____ _____    ______ ____
ROOT
ATOM      1  N   UNL     1       0.061  -0.867   4.814  0.00  0.00    -0.218 N 
ATOM      2  C   UNL     1       0.084  -1.776   5.809  0.00  0.00    +0.316 C 
ATOM      3  O   UNL     1       0.090  -1.408   6.968  0.00  0.00    -0.251 OA
ATOM      4  N   UNL     1       0.099  -3.092   5.520  0.00  0.00    -0.295 N 
ATOM      5  H   UNL     1       0.051   0.080   5.022  0.00  0.00    +0.174 HD
ATOM      6  H   UNL     1       0.094  -3.385   4.595  0.00  0.00    +0.150 HD
ENDROOT
BRANCH   1   9
ATOM      7  C   UNL     1       0.032  -0.382   2.484  0.00  0.00    +0.296 C 
ATOM      8  O   UNL     1       0.018   0.806   2.745  0.00  0.00    -0.265 OA
ATOM      9  N   UNL     1       0.054  -1.291   3.479  0.00  0.00    -0.227 N 
ATOM     10  H   UNL     1       0.065  -2.238   3.270  0.00  0.00    +0.173 HD
BRANCH   7  20
ATOM     11  C   UNL     1      -0.018   1.503   0.010  0.00  0.00    +0.048 C 
ATOM     12  C   UNL     1       0.002  -0.004   0.002  0.00  0.00    +0.008 A 
ATOM     13  C   UNL     1       0.009  -0.877  -1.171  0.00  0.00    +0.024 A 
ATOM     14  C   UNL     1      -0.000  -0.654  -2.551  0.00  0.00    +0.012 A 
ATOM     15  C   UNL     1       0.010  -1.718  -3.408  0.00  0.00    +0.001 A 
ATOM     16  C   UNL     1       0.030  -3.017  -2.918  0.00  0.00    +0.004 A 
ATOM     17  C   UNL     1       0.039  -3.257  -1.561  0.00  0.00    +0.047 A 
ATOM     18  C   UNL     1       0.029  -2.191  -0.669  0.00  0.00    +0.136 A 
ATOM     19  O   UNL     1       0.034  -2.113   0.676  0.00  0.00    -0.450 OA
ATOM     20  C   UNL     1       0.024  -0.826   1.083  0.00  0.00    +0.195 A 
ENDBRANCH   7  20
ENDBRANCH   1   9
BRANCH   4  21
ATOM     21  C   UNL     1       0.123  -4.080   6.601  0.00  0.00    +0.150 C 
BRANCH  21  22
ATOM     22  C   UNL     1       0.136  -5.489   6.005  0.00  0.00    +0.195 C 
ATOM     23  C   UNL     1       0.099  -6.557   7.123  0.00  0.00    +0.085 C 
ATOM     24  C   UNL     1       0.994  -7.640   6.551  0.00  0.00    -0.002 A 
ATOM     25  C   UNL     1       1.177  -8.963   6.891  0.00  0.00    +0.007 A 
ATOM     26  C   UNL     1       2.073  -9.741   6.179  0.00  0.00    +0.000 A 
ATOM     27  C   UNL     1       2.781  -9.186   5.129  0.00  0.00    +0.004 A 
ATOM     28  C   UNL     1       2.601  -7.861   4.790  0.00  0.00    +0.046 A 
ATOM     29  C   UNL     1       1.704  -7.070   5.503  0.00  0.00    +0.124 A 
ATOM     30  O   UNL     1       1.388  -5.752   5.349  0.00  0.00    -0.487 OA
ENDBRANCH  21  22
ENDBRANCH   4  21
TORSDOF 4
