REMARK  Name = ZINC61885045
REMARK  6 active torsions:
REMARK  status: ('A' for Active; 'I' for Inactive)
REMARK    1  A    between atoms: C_1  and  C_2
REMARK    2  A    between atoms: C_5  and  C_9
REMARK    3  A    between atoms: C_6  and  O_8
REMARK    4  A    between atoms: N_11  and  C_12
REMARK    5  A    between atoms: C_17  and  C_19
REMARK    6  A    between atoms: C_19  and  N_21
REMARK                            x       y       z     vdW  Elec       q    Type
REMARK                         _______ _______ _______ _____ _____    ______ ____
ROOT
ATOM      1  C   UNL     1       0.559  -4.399   0.118  0.00  0.00    +0.248 C 
ATOM      2  O   UNL     1       0.765  -5.084   1.101  0.00  0.00    -0.270 OA
ATOM      3  N   UNL     1       0.275  -4.983  -1.063  0.00  0.00    -0.308 N 
ATOM      4  H   UNL     1       0.111  -4.436  -1.847  0.00  0.00    +0.149 HD
ENDROOT
BRANCH   1   9
ATOM      5  C   UNL     1       0.792   1.340   0.502  0.00  0.00    +0.044 C 
ATOM      6  C   UNL     1       0.732  -0.163   0.405  0.00  0.00    -0.047 A 
ATOM      7  C   UNL     1       0.441  -0.764  -0.809  0.00  0.00    +0.004 A 
ATOM      8  C   UNL     1       0.383  -2.137  -0.909  0.00  0.00    +0.017 A 
ATOM      9  C   UNL     1       0.620  -2.928   0.218  0.00  0.00    +0.078 A 
ATOM     10  C   UNL     1       0.914  -2.317   1.444  0.00  0.00    +0.129 A 
ATOM     11  C   UNL     1       0.973  -0.933   1.526  0.00  0.00    +0.049 A 
BRANCH  10  12
ATOM     12  O   UNL     1       1.144  -3.074   2.546  0.00  0.00    -0.506 OA
ATOM     13  H   UNL     1       2.072  -3.316   2.669  0.00  0.00    +0.292 HD
ENDBRANCH  10  12
ENDBRANCH   1   9
BRANCH   3  14
ATOM     14  C   UNL     1       0.215  -6.443  -1.162  0.00  0.00    +0.082 C 
ATOM     15  C   UNL     1      -1.217  -6.932  -0.881  0.00  0.00    +0.023 C 
ATOM     16  C   UNL     1      -1.692  -7.659  -2.156  0.00  0.00    +0.003 C 
ATOM     17  C   UNL     1      -0.819  -7.057  -3.285  0.00  0.00    +0.012 C 
ATOM     18  C   UNL     1       0.561  -6.890  -2.598  0.00  0.00    +0.061 C 
BRANCH  18  19
ATOM     19  C   UNL     1       1.375  -5.832  -3.298  0.00  0.00    +0.051 C 
ATOM     20  S   UNL     1       0.742  -5.010  -4.514  0.00  0.00    -0.040 S 
BRANCH  19  21
ATOM     21  N   UNL     1       2.637  -5.580  -2.898  0.00  0.00    -0.355 N 
ATOM     22  H   UNL     1       3.022  -6.079  -2.160  0.00  0.00    +0.143 HD
ATOM     23  H   UNL     1       3.162  -4.899  -3.349  0.00  0.00    +0.143 HD
ENDBRANCH  19  21
ENDBRANCH  18  19
ENDBRANCH   3  14
TORSDOF 5
