REMARK  Name = ZINC20066288
REMARK  11 active torsions:
REMARK  status: ('A' for Active; 'I' for Inactive)
REMARK    1  A    between atoms: C_1  and  C_2
REMARK    2  A    between atoms: C_3  and  C_9
REMARK    3  A    between atoms: C_4  and  O_8
REMARK    4  A    between atoms: C_9  and  C_10
REMARK    5  A    between atoms: C_9  and  C_28
REMARK    6  A    between atoms: C_13  and  O_16
REMARK    7  A    between atoms: O_16  and  C_17
REMARK    8  A    between atoms: C_17  and  C_19
REMARK    9  A    between atoms: C_23  and  N_25
REMARK   10  A    between atoms: C_29  and  C_35
REMARK   11  A    between atoms: C_33  and  O_34
REMARK                            x       y       z     vdW  Elec       q    Type
REMARK                         _______ _______ _______ _____ _____    ______ ____
ROOT
ATOM      1  C   UNL     1      -0.026  -0.364  -2.592  0.00  0.00    +0.093 C 
ENDROOT
BRANCH   1   4
ATOM      2  C   UNL     1      -1.062   1.784  -0.506  0.00  0.00    +0.068 C 
ATOM      3  C   UNL     1      -0.797   0.329  -0.218  0.00  0.00    +0.068 A 
ATOM      4  C   UNL     1      -0.339  -0.618  -1.140  0.00  0.00    +0.048 A 
ATOM      5  C   UNL     1      -0.228  -1.808  -0.493  0.00  0.00    +0.213 A 
ATOM      6  N   UNL     1      -0.603  -1.613   0.791  0.00  0.00    -0.247 N 
ATOM      7  H   UNL     1      -0.624  -2.287   1.488  0.00  0.00    +0.192 HD
ATOM      8  N   UNL     1      -0.949  -0.264   0.938  0.00  0.00    -0.176 NA
BRANCH   5   9
ATOM      9  O   UNL     1       0.185  -2.981  -1.037  0.00  0.00    -0.492 OA
ATOM     10  H   UNL     1       1.127  -3.163  -0.913  0.00  0.00    +0.294 HD
ENDBRANCH   5   9
ENDBRANCH   1   4
BRANCH   1  11
ATOM     11  C   UNL     1       1.365  -0.856  -2.899  0.00  0.00    +0.048 A 
ATOM     12  C   UNL     1       2.431  -0.799  -2.069  0.00  0.00    +0.041 A 
ATOM     13  N   UNL     1       3.486  -1.340  -2.714  0.00  0.00    -0.278 N 
ATOM     14  N   UNL     1       3.057  -1.744  -3.984  0.00  0.00    -0.136 NA
ATOM     15  H   UNL     1       4.384  -1.433  -2.359  0.00  0.00    +0.189 HD
ATOM     16  C   UNL     1       1.782  -1.460  -4.095  0.00  0.00    +0.236 A 
ATOM     17  C   UNL     1       2.440  -0.232  -0.673  0.00  0.00    +0.065 C 
BRANCH  16  18
ATOM     18  O   UNL     1       1.000  -1.704  -5.181  0.00  0.00    -0.491 OA
ATOM     19  H   UNL     1       1.042  -1.015  -5.859  0.00  0.00    +0.294 HD
ENDBRANCH  16  18
ENDBRANCH   1  11
BRANCH   1  20
ATOM     20  C   UNL     1      -1.021  -1.097  -3.455  0.00  0.00    -0.035 A 
ATOM     21  C   UNL     1      -1.003  -2.479  -3.508  0.00  0.00    +0.008 A 
ATOM     22  C   UNL     1      -1.913  -3.153  -4.299  0.00  0.00    +0.046 A 
ATOM     23  C   UNL     1      -2.846  -2.443  -5.040  0.00  0.00    +0.132 A 
ATOM     24  C   UNL     1      -2.862  -1.057  -4.985  0.00  0.00    +0.046 A 
ATOM     25  C   UNL     1      -1.953  -0.388  -4.189  0.00  0.00    +0.008 A 
BRANCH  23  26
ATOM     26  O   UNL     1      -3.742  -3.104  -5.819  0.00  0.00    -0.422 OA
BRANCH  26  27
ATOM     27  C   UNL     1      -4.775  -3.720  -5.212  0.00  0.00    +0.345 C 
ATOM     28  O   UNL     1      -4.936  -3.597  -4.014  0.00  0.00    -0.245 OA
BRANCH  27  29
ATOM     29  C   UNL     1      -5.711  -4.545  -6.002  0.00  0.00    +0.062 A 
ATOM     30  C   UNL     1      -5.525  -4.694  -7.378  0.00  0.00    +0.015 A 
ATOM     31  C   UNL     1      -6.403  -5.466  -8.110  0.00  0.00    +0.003 A 
ATOM     32  C   UNL     1      -7.465  -6.093  -7.484  0.00  0.00    +0.033 A 
ATOM     33  C   UNL     1      -7.656  -5.950  -6.121  0.00  0.00    +0.127 A 
ATOM     34  C   UNL     1      -6.782  -5.185  -5.376  0.00  0.00    +0.047 A 
BRANCH  33  35
ATOM     35  N   UNL     1      -8.796  -6.624  -5.460  0.00  0.00    +0.056 N 
ATOM     36  O   UNL     1      -9.559  -7.299  -6.111  0.00  0.00    -0.126 OA
ATOM     37  O   UNL     1      -8.963  -6.500  -4.269  0.00  0.00    -0.126 OA
ENDBRANCH  33  35
ENDBRANCH  27  29
ENDBRANCH  26  27
ENDBRANCH  23  26
ENDBRANCH   1  20
TORSDOF 9
