REMARK  Name = ZINC13451001
REMARK  11 active torsions:
REMARK  status: ('A' for Active; 'I' for Inactive)
REMARK    1  A    between atoms: C_1  and  C_2
REMARK    2  A    between atoms: C_3  and  C_27
REMARK    3  A    between atoms: C_8  and  S_10
REMARK    4  A    between atoms: S_10  and  C_11
REMARK    5  A    between atoms: C_11  and  C_13
REMARK    6  A    between atoms: C_11  and  C_14
REMARK    7  A    between atoms: N_16  and  C_17
REMARK    8  A    between atoms: C_22  and  O_23
REMARK    9  A    between atoms: O_23  and  C_24
REMARK   10  A    between atoms: C_27  and  C_28
REMARK   11  A    between atoms: C_28  and  C_29
REMARK                            x       y       z     vdW  Elec       q    Type
REMARK                         _______ _______ _______ _____ _____    ______ ____
ROOT
ATOM      1  C   UNL     1       5.013   0.862  -0.057  0.00  0.00    +0.137 C 
ATOM      2  C   UNL     1       4.873   0.069   1.244  0.00  0.00    +0.029 C 
ENDROOT
BRANCH   1   3
ATOM      3  C   UNL     1       6.423   1.380  -0.181  0.00  0.00    +0.230 C 
ATOM      4  O   UNL     1       6.692   2.502   0.193  0.00  0.00    -0.274 OA
ATOM      5  N   UNL     1       7.384   0.596  -0.707  0.00  0.00    -0.282 N 
ATOM      6  H   UNL     1       7.189  -0.327  -0.932  0.00  0.00    +0.155 HD
BRANCH   5   7
ATOM      7  C   UNL     1       8.667   1.115  -0.930  0.00  0.00    +0.076 A 
ATOM      8  C   UNL     1       8.844   2.478  -1.112  0.00  0.00    +0.027 A 
ATOM      9  C   UNL     1      10.111   2.988  -1.325  0.00  0.00    +0.002 A 
ATOM     10  C   UNL     1      11.202   2.140  -1.369  0.00  0.00    +0.004 A 
ATOM     11  C   UNL     1      11.033   0.780  -1.194  0.00  0.00    +0.048 A 
ATOM     12  C   UNL     1       9.767   0.261  -0.974  0.00  0.00    +0.148 A 
BRANCH  12  13
ATOM     13  O   UNL     1       9.599  -1.077  -0.802  0.00  0.00    -0.432 OA
BRANCH  13  14
ATOM     14  C   UNL     1      10.772  -1.891  -0.860  0.00  0.00    +0.541 C 
ATOM     15  F   UNL     1      11.379  -1.746  -2.113  0.00  0.00    -0.166 F 
ATOM     16  F   UNL     1      11.666  -1.493   0.140  0.00  0.00    -0.166 F 
ENDBRANCH  13  14
ENDBRANCH  12  13
ENDBRANCH   5   7
ENDBRANCH   1   3
BRANCH   1  17
ATOM     17  S   UNL     1       3.858   2.256  -0.041  0.00  0.00    -0.075 S 
BRANCH  17  25
ATOM     18  C   UNL     1       1.240  -2.138  -0.072  0.00  0.00    +0.066 C 
ATOM     19  C   UNL     1       1.197  -0.631  -0.059  0.00  0.00    +0.049 A 
ATOM     20  C   UNL     1      -0.004   0.016  -0.049  0.00  0.00    +0.038 A 
ATOM     21  C   UNL     1      -0.019   1.422  -0.037  0.00  0.00    +0.256 A 
ATOM     22  O   UNL     1      -1.075   2.033  -0.033  0.00  0.00    -0.267 OA
ATOM     23  N   UNL     1       1.158   2.084  -0.034  0.00  0.00    -0.302 N 
ATOM     24  H   UNL     1       1.171   3.054  -0.026  0.00  0.00    +0.171 HD
ATOM     25  C   UNL     1       2.326   1.384  -0.044  0.00  0.00    +0.170 A 
ATOM     26  N   UNL     1       2.331   0.065  -0.056  0.00  0.00    -0.228 NA
BRANCH  20  27
ATOM     27  C   UNL     1      -1.294  -0.763  -0.052  0.00  0.00    +0.053 C 
BRANCH  27  28
ATOM     28  C   UNL     1      -1.791  -0.932   1.385  0.00  0.00    +0.130 C 
BRANCH  28  29
ATOM     29  C   UNL     1      -3.081  -1.711   1.382  0.00  0.00    +0.356 C 
ATOM     30  O   UNL     1      -3.554  -2.092   0.338  0.00  0.00    -0.246 OA
ATOM     31  O   UNL     1      -3.704  -1.982   2.540  0.00  0.00    -0.246 OA
ENDBRANCH  28  29
ENDBRANCH  27  28
ENDBRANCH  20  27
ENDBRANCH  17  25
ENDBRANCH   1  17
TORSDOF 9
