REMARK  Name = ZINC44832656
REMARK  5 active torsions:
REMARK  status: ('A' for Active; 'I' for Inactive)
REMARK    1  A    between atoms: C_5  and  C_6
REMARK    2  A    between atoms: C_8  and  C_11
REMARK    3  A    between atoms: C_11  and  S_12
REMARK    4  A    between atoms: S_12  and  C_13
REMARK    5  A    between atoms: C_13  and  C_14
REMARK                            x       y       z     vdW  Elec       q    Type
REMARK                         _______ _______ _______ _____ _____    ______ ____
ROOT
ATOM      1  C   UNL     1      -3.918  -6.173   1.560  0.00  0.00    +0.145 C 
ENDROOT
BRANCH   1   2
ATOM      2  C   UNL     1      -4.122  -6.773   2.927  0.00  0.00    +0.146 A 
ATOM      3  N   UNL     1      -3.132  -7.418   3.518  0.00  0.00    -0.199 NA
ATOM      4  C   UNL     1      -3.309  -7.949   4.726  0.00  0.00    +0.217 A 
ATOM      5  N   UNL     1      -4.482  -7.830   5.337  0.00  0.00    -0.181 NA
ATOM      6  C   UNL     1      -5.476  -7.182   4.739  0.00  0.00    +0.217 A 
ATOM      7  N   UNL     1      -5.290  -6.649   3.533  0.00  0.00    -0.199 NA
ATOM      8  N   UNL     1      -6.697  -7.056   5.369  0.00  0.00    -0.327 N 
ATOM      9  N   UNL     1      -2.274  -8.623   5.343  0.00  0.00    -0.327 N 
ATOM     10  H   UNL     1      -6.830  -7.441   6.249  0.00  0.00    +0.145 HD
ATOM     11  H   UNL     1      -7.422  -6.582   4.932  0.00  0.00    +0.145 HD
ATOM     12  H   UNL     1      -1.417  -8.709   4.896  0.00  0.00    +0.145 HD
ATOM     13  H   UNL     1      -2.404  -9.009   6.223  0.00  0.00    +0.145 HD
ENDBRANCH   1   2
BRANCH   1  14
ATOM     14  S   UNL     1      -3.306  -4.474   1.731  0.00  0.00    -0.143 S 
BRANCH  14  15
ATOM     15  C   UNL     1      -3.115  -3.902   0.020  0.00  0.00    +0.168 C 
BRANCH  15  18
ATOM     16  C   UNL     1      -1.259  -0.782   0.010  0.00  0.00    +0.203 A 
ATOM     17  N   UNL     1      -1.354  -2.125   0.009  0.00  0.00    -0.191 NA
ATOM     18  C   UNL     1      -2.606  -2.484   0.018  0.00  0.00    +0.238 A 
ATOM     19  O   UNL     1      -3.365  -1.380   0.025  0.00  0.00    -0.337 OA
ATOM     20  N   UNL     1      -2.470  -0.278   0.025  0.00  0.00    -0.056 NA
BRANCH  16  25
ATOM     21  C   UNL     1      -0.017   1.391   0.010  0.00  0.00    +0.019 A 
ATOM     22  C   UNL     1       1.187   2.007   0.002  0.00  0.00    +0.046 A 
ATOM     23  S   UNL     1       2.319   0.631  -0.017  0.00  0.00    -0.104 S 
ATOM     24  C   UNL     1       1.211  -0.632  -0.013  0.00  0.00    +0.057 A 
ATOM     25  C   UNL     1       0.002  -0.004   0.002  0.00  0.00    +0.029 A 
ENDBRANCH  16  25
ENDBRANCH  15  18
ENDBRANCH  14  15
ENDBRANCH   1  14
TORSDOF 5
