REMARK  Name = ZINC20858447
REMARK  6 active torsions:
REMARK  status: ('A' for Active; 'I' for Inactive)
REMARK    1  A    between atoms: C_1  and  C_2
REMARK    2  A    between atoms: N_5  and  C_15
REMARK    3  A    between atoms: C_15  and  C_16
REMARK    4  A    between atoms: N_21  and  C_24
REMARK    5  A    between atoms: C_24  and  C_25
REMARK    6  A    between atoms: N_29  and  C_30
REMARK                            x       y       z     vdW  Elec       q    Type
REMARK                         _______ _______ _______ _____ _____    ______ ____
ROOT
ATOM      1  C   UNL     1       4.349   5.698  -4.446  0.00  0.00    +0.199 C 
ATOM      2  O   UNL     1       4.782   6.828  -4.517  0.00  0.00    -0.278 OA
ATOM      3  N   UNL     1       3.289   5.431  -3.657  0.00  0.00    -0.301 N 
ATOM      4  C   UNL     1       2.642   6.496  -2.876  0.00  0.00    +0.123 C 
ATOM      5  C   UNL     1       2.531   6.032  -1.420  0.00  0.00    +0.104 C 
ATOM      6  N   UNL     1       1.853   4.729  -1.375  0.00  0.00    -0.292 NA
ATOM      7  C   UNL     1       2.633   3.698  -2.073  0.00  0.00    +0.104 C 
ATOM      8  C   UNL     1       2.749   4.066  -3.556  0.00  0.00    +0.123 C 
ENDROOT
BRANCH   1   9
ATOM      9  C   UNL     1       4.997   4.591  -5.238  0.00  0.00    +0.019 C 
BRANCH   9  13
ATOM     10  C   UNL     1       9.061   3.307  -7.596  0.00  0.00    +0.050 C 
ATOM     11  C   UNL     1       8.261   4.523  -7.126  0.00  0.00    +0.154 C 
ATOM     12  C   UNL     1       6.917   4.064  -6.603  0.00  0.00    -0.033 C 
ATOM     13  N   UNL     1       6.122   5.136  -6.010  0.00  0.00    +0.391 N 
ATOM     14  C   UNL     1       5.655   6.107  -7.005  0.00  0.00    -0.038 C 
ATOM     15  C   UNL     1       6.751   7.127  -7.243  0.00  0.00    -0.021 A 
ATOM     16  C   UNL     1       6.572   8.439  -6.856  0.00  0.00    +0.025 A 
ATOM     17  C   UNL     1       7.560   9.373  -7.121  0.00  0.00    +0.041 A 
ATOM     18  C   UNL     1       8.720   8.989  -7.771  0.00  0.00    +0.023 A 
ATOM     19  C   UNL     1       8.902   7.673  -8.149  0.00  0.00    +0.047 A 
ATOM     20  C   UNL     1       7.916   6.736  -7.875  0.00  0.00    +0.122 A 
ATOM     21  O   UNL     1       8.095   5.432  -8.222  0.00  0.00    -0.491 OA
ATOM     22 CL   UNL     1       7.344  11.026  -6.637  0.00  0.00    -0.084 Cl
ATOM     23  H   UNL     1       6.791   5.677  -5.325  0.00  0.00    -0.081 HD
ENDBRANCH   9  13
ENDBRANCH   1   9
BRANCH   6  24
ATOM     24  C   UNL     1       1.573   4.329   0.011  0.00  0.00    +0.156 C 
BRANCH  24  25
ATOM     25  C   UNL     1       0.669   3.123   0.013  0.00  0.00    +0.101 A 
ATOM     26  N   UNL     1       1.062   1.879   0.002  0.00  0.00    -0.349 N 
ATOM     27  C   UNL     1      -0.013   1.076   0.008  0.00  0.00    +0.101 A 
ATOM     28  C   UNL     1      -1.113   1.852   0.017  0.00  0.00    +0.104 A 
ATOM     29  N   UNL     1      -0.681   3.151   0.025  0.00  0.00    -0.338 N 
ATOM     30  C   UNL     1      -1.526   4.348   0.039  0.00  0.00    +0.150 C 
ATOM     31  H   UNL     1       2.136   1.641  -0.010  0.00  0.00    +0.166 HD
ENDBRANCH  24  25
ENDBRANCH   6  24
TORSDOF 4
