REMARK  Name = ZINC33290261
REMARK  9 active torsions:
REMARK  status: ('A' for Active; 'I' for Inactive)
REMARK    1  A    between atoms: C_1  and  C_2
REMARK    2  A    between atoms: C_4  and  C_7
REMARK    3  A    between atoms: C_9  and  S_12
REMARK    4  A    between atoms: S_12  and  N_15
REMARK    5  A    between atoms: N_15  and  C_16
REMARK    6  A    between atoms: C_16  and  C_17
REMARK    7  A    between atoms: C_17  and  C_18
REMARK    8  A    between atoms: C_18  and  N_19
REMARK    9  A    between atoms: N_22  and  C_25
REMARK                            x       y       z     vdW  Elec       q    Type
REMARK                         _______ _______ _______ _____ _____    ______ ____
ROOT
ATOM      1  C   UNL     1       2.405   1.991  -1.160  0.00  0.00    +0.104 C 
ENDROOT
BRANCH   1   2
ATOM      2  N   UNL     1       1.553   2.269  -0.001  0.00  0.00    -0.190 NA
ATOM      3  H   UNL     1       1.996   2.667   0.924  0.00  0.00    +0.148 HD
BRANCH   2   4
ATOM      4  S   UNL     1      -0.022   1.758   0.012  0.00  0.00    +0.065 S 
ATOM      5  O   UNL     1      -0.590   2.163  -1.226  0.00  0.00    -0.153 OA
ATOM      6  O   UNL     1      -0.566   2.150   1.264  0.00  0.00    -0.153 OA
BRANCH   4   9
ATOM      7  C   UNL     1       0.040  -2.224   0.774  0.00  0.00    +0.029 A 
ATOM      8  C   UNL     1       0.024  -0.857   1.050  0.00  0.00    +0.048 A 
ATOM      9  C   UNL     1       0.002  -0.004   0.002  0.00  0.00    +0.143 A 
ATOM     10  S   UNL     1      -0.004  -1.114  -1.393  0.00  0.00    -0.076 S 
ATOM     11  C   UNL     1       0.033  -2.620  -0.535  0.00  0.00    +0.058 A 
BRANCH   7  15
ATOM     12  C   UNL     1       0.121  -6.483   3.519  0.00  0.00    +0.069 C 
ATOM     13  C   UNL     1       0.098  -5.046   3.067  0.00  0.00    +0.081 A 
ATOM     14  C   UNL     1       0.075  -4.582   1.738  0.00  0.00    +0.075 A 
ATOM     15  C   UNL     1       0.063  -3.218   1.866  0.00  0.00    +0.168 A 
ATOM     16  O   UNL     1       0.071  -2.966   3.187  0.00  0.00    -0.354 OA
ATOM     17  N   UNL     1       0.090  -3.989   3.831  0.00  0.00    -0.083 NA
ENDBRANCH   7  15
ENDBRANCH   4   9
ENDBRANCH   2   4
ENDBRANCH   1   2
BRANCH   1  18
ATOM     18  C   UNL     1       3.658   2.866  -1.094  0.00  0.00    -0.002 C 
BRANCH  18  19
ATOM     19  C   UNL     1       4.547   2.576  -2.305  0.00  0.00    -0.077 C 
BRANCH  19  20
ATOM     20  N   UNL     1       5.750   3.416  -2.242  0.00  0.00    +0.382 N 
ATOM     21  C   UNL     1       5.409   4.838  -2.395  0.00  0.00    -0.060 C 
ATOM     22  C   UNL     1       6.676   5.683  -2.244  0.00  0.00    +0.086 C 
ATOM     23  N   UNL     1       7.661   5.269  -3.253  0.00  0.00    -0.331 N 
ATOM     24  C   UNL     1       8.002   3.848  -3.099  0.00  0.00    +0.086 C 
ATOM     25  C   UNL     1       6.735   3.002  -3.251  0.00  0.00    -0.060 C 
ATOM     26  H   UNL     1       6.203   3.281  -1.248  0.00  0.00    -0.082 HD
BRANCH  23  27
ATOM     27  C   UNL     1       8.806   6.069  -3.192  0.00  0.00    +0.065 A 
ATOM     28  C   UNL     1       9.830   5.888  -4.113  0.00  0.00    +0.026 A 
ATOM     29  C   UNL     1      10.959   6.683  -4.053  0.00  0.00    +0.002 A 
ATOM     30  C   UNL     1      11.075   7.651  -3.072  0.00  0.00    +0.003 A 
ATOM     31  C   UNL     1      10.060   7.831  -2.151  0.00  0.00    +0.040 A 
ATOM     32  C   UNL     1       8.925   7.043  -2.207  0.00  0.00    +0.144 A 
ATOM     33  F   UNL     1       7.934   7.218  -1.306  0.00  0.00    -0.204 F 
ENDBRANCH  23  27
ENDBRANCH  19  20
ENDBRANCH  18  19
ENDBRANCH   1  18
TORSDOF 8
