REMARK  Name = ZINC45968130
REMARK  4 active torsions:
REMARK  status: ('A' for Active; 'I' for Inactive)
REMARK    1  A    between atoms: C_1  and  C_2
REMARK    2  A    between atoms: N_14  and  C_15
REMARK    3  A    between atoms: C_15  and  C_16
REMARK    4  A    between atoms: C_21  and  N_22
REMARK                            x       y       z     vdW  Elec       q    Type
REMARK                         _______ _______ _______ _____ _____    ______ ____
ROOT
ATOM      1  C   UNL     1      -0.023   1.616   0.052  0.00  0.00    +0.033 C 
ATOM      2  C   UNL     1      -0.036   0.086   0.047  0.00  0.00    +0.105 C 
ATOM      3  C   UNL     1      -1.467  -0.420   0.221  0.00  0.00    -0.017 A 
ATOM      4  C   UNL     1      -2.546   0.075  -0.510  0.00  0.00    +0.013 A 
ATOM      5  C   UNL     1      -3.787  -0.424  -0.305  0.00  0.00    +0.046 A 
ATOM      6  S   UNL     1      -3.487  -1.647   0.961  0.00  0.00    -0.101 S 
ATOM      7  C   UNL     1      -1.739  -1.400   1.124  0.00  0.00    -0.004 A 
ATOM      8  C   UNL     1      -0.784  -2.098   2.038  0.00  0.00    +0.062 C 
ATOM      9  C   UNL     1       0.648  -1.840   1.544  0.00  0.00    +0.115 C 
ATOM     10  N   UNL     1       0.761  -0.422   1.171  0.00  0.00    -0.278 N 
ATOM     11  C   UNL     1       1.584   0.400   1.852  0.00  0.00    +0.303 C 
ATOM     12  O   UNL     1       1.607   1.588   1.594  0.00  0.00    -0.253 OA
ATOM     13  N   UNL     1       2.382  -0.095   2.819  0.00  0.00    -0.295 N 
ATOM     14  H   UNL     1       2.417  -1.051   2.977  0.00  0.00    +0.151 HD
ENDROOT
BRANCH  13  15
ATOM     15  C   UNL     1       3.197   0.812   3.632  0.00  0.00    +0.144 C 
BRANCH  15  16
ATOM     16  C   UNL     1       3.991   0.012   4.633  0.00  0.00    +0.008 A 
ATOM     17  C   UNL     1       3.607  -0.027   5.962  0.00  0.00    +0.010 A 
ATOM     18  C   UNL     1       4.368  -0.776   6.849  0.00  0.00    +0.018 A 
ATOM     19  C   UNL     1       5.477  -1.454   6.383  0.00  0.00    +0.084 A 
ATOM     20  N   UNL     1       5.820  -1.399   5.111  0.00  0.00    -0.349 N 
ATOM     21  C   UNL     1       5.116  -0.700   4.232  0.00  0.00    +0.104 A 
ATOM     22  H   UNL     1       6.603  -1.885   4.810  0.00  0.00    +0.167 HD
BRANCH  21  23
ATOM     23  N   UNL     1       5.509  -0.674   2.899  0.00  0.00    -0.312 N 
ATOM     24  C   UNL     1       6.519   0.286   2.426  0.00  0.00    +0.134 C 
ATOM     25  C   UNL     1       7.587  -0.483   1.640  0.00  0.00    +0.178 C 
ATOM     26  O   UNL     1       6.951  -1.281   0.639  0.00  0.00    -0.377 OA
ATOM     27  C   UNL     1       6.074  -2.284   1.159  0.00  0.00    +0.178 C 
ATOM     28  C   UNL     1       4.933  -1.610   1.921  0.00  0.00    +0.134 C 
ENDBRANCH  21  23
ENDBRANCH  15  16
ENDBRANCH  13  15
TORSDOF 3
