REMARK  Name = ZINC19989945
REMARK  7 active torsions:
REMARK  status: ('A' for Active; 'I' for Inactive)
REMARK    1  A    between atoms: C_1  and  C_2
REMARK    2  A    between atoms: N_6  and  C_15
REMARK    3  A    between atoms: C_15  and  C_16
REMARK    4  A    between atoms: N_18  and  C_19
REMARK    5  A    between atoms: C_19  and  C_20
REMARK    6  A    between atoms: C_20  and  C_21
REMARK    7  A    between atoms: C_20  and  C_22
REMARK                            x       y       z     vdW  Elec       q    Type
REMARK                         _______ _______ _______ _____ _____    ______ ____
ROOT
ATOM      1  C   UNL     1       4.424  -0.108  -2.247  0.00  0.00    +0.062 C 
ATOM      2  C   UNL     1       4.661   0.005  -0.740  0.00  0.00    +0.256 C 
ATOM      3  C   UNL     1       4.726   1.460  -0.350  0.00  0.00    +0.261 C 
ATOM      4  O   UNL     1       5.792   2.039  -0.334  0.00  0.00    -0.271 OA
ATOM      5  N   UNL     1       3.592   2.116  -0.020  0.00  0.00    -0.256 N 
ATOM      6  C   UNL     1       2.378   1.415  -0.013  0.00  0.00    +0.080 A 
ATOM      7  C   UNL     1       1.170   2.091   0.002  0.00  0.00    +0.047 A 
ATOM      8  C   UNL     1      -0.017   1.380   0.010  0.00  0.00    +0.043 A 
ATOM      9  C   UNL     1       0.002  -0.004   0.002  0.00  0.00    +0.024 A 
ATOM     10  C   UNL     1       1.206  -0.684  -0.013  0.00  0.00    +0.049 A 
ATOM     11  C   UNL     1       2.397   0.021  -0.022  0.00  0.00    +0.143 A 
ATOM     12  O   UNL     1       3.590  -0.632  -0.040  0.00  0.00    -0.478 OA
ATOM     13 CL   UNL     1      -1.533   2.225   0.021  0.00  0.00    -0.083 Cl
ENDROOT
BRANCH   5  14
ATOM     14  C   UNL     1       3.631   3.539   0.327  0.00  0.00    +0.209 C 
BRANCH  14  15
ATOM     15  C   UNL     1       3.847   3.689   1.811  0.00  0.00    +0.231 C 
ATOM     16  O   UNL     1       3.958   2.704   2.510  0.00  0.00    -0.274 OA
ATOM     17  N   UNL     1       3.917   4.918   2.361  0.00  0.00    -0.314 N 
ATOM     18  H   UNL     1       3.816   5.811   1.727  0.00  0.00    +0.149 HD
BRANCH  17  19
ATOM     19  C   UNL     1       4.126   5.063   3.804  0.00  0.00    +0.107 C 
BRANCH  19  20
ATOM     20  C   UNL     1       4.166   6.549   4.165  0.00  0.00    -0.000 C 
ATOM     21  C   UNL     1       2.799   7.178   3.890  0.00  0.00    +0.009 C 
ATOM     22  C   UNL     1       4.509   6.704   5.649  0.00  0.00    +0.009 C 
ENDBRANCH  19  20
ENDBRANCH  17  19
ENDBRANCH  14  15
ENDBRANCH   5  14
TORSDOF 4
