REMARK  Name = ZINC41068287
REMARK  5 active torsions:
REMARK  status: ('A' for Active; 'I' for Inactive)
REMARK    1  A    between atoms: C_1  and  C_2
REMARK    2  A    between atoms: C_7  and  C_8
REMARK    3  A    between atoms: N_13  and  S_14
REMARK    4  A    between atoms: S_14  and  C_17
REMARK    5  A    between atoms: C_19  and  N_22
REMARK                            x       y       z     vdW  Elec       q    Type
REMARK                         _______ _______ _______ _____ _____    ______ ____
ROOT
ATOM      1  C   UNL     1       0.025   0.045   2.504  0.00  0.00    +0.110 C 
ATOM      2  C   UNL     1       1.458   0.506   2.843  0.00  0.00    +0.027 C 
ATOM      3  C   UNL     1       1.536   0.301   4.379  0.00  0.00    +0.019 C 
ATOM      4  C   UNL     1       0.682  -0.978   4.565  0.00  0.00    +0.110 C 
ATOM      5  N   UNL     1      -0.418  -0.845   3.588  0.00  0.00    -0.169 NA
ENDROOT
BRANCH   1  12
ATOM      6  C   UNL     1      -0.018   1.503   0.010  0.00  0.00    +0.044 C 
ATOM      7  C   UNL     1       0.002  -0.004   0.002  0.00  0.00    -0.046 A 
ATOM      8  C   UNL     1       0.006  -0.689  -1.199  0.00  0.00    +0.003 A 
ATOM      9  C   UNL     1       0.025  -2.071  -1.207  0.00  0.00    +0.000 A 
ATOM     10  C   UNL     1       0.040  -2.768  -0.013  0.00  0.00    +0.000 A 
ATOM     11  C   UNL     1       0.037  -2.084   1.188  0.00  0.00    +0.005 A 
ATOM     12  C   UNL     1       0.023  -0.702   1.195  0.00  0.00    -0.026 A 
ENDBRANCH   1  12
BRANCH   5  13
ATOM     13  S   UNL     1      -1.902  -1.573   3.692  0.00  0.00    +0.068 S 
ATOM     14  O   UNL     1      -2.121  -1.851   5.069  0.00  0.00    -0.152 OA
ATOM     15  O   UNL     1      -2.797  -0.782   2.923  0.00  0.00    -0.152 OA
BRANCH  13  16
ATOM     16  C   UNL     1      -1.777  -3.130   2.877  0.00  0.00    +0.144 A 
ATOM     17  C   UNL     1      -1.435  -4.337   3.392  0.00  0.00    +0.059 A 
ATOM     18  C   UNL     1      -1.403  -5.439   2.553  0.00  0.00    +0.034 A 
ATOM     19  C   UNL     1      -1.714  -5.274   1.241  0.00  0.00    +0.069 A 
ATOM     20  S   UNL     1      -2.074  -3.527   1.163  0.00  0.00    -0.075 S 
BRANCH  18  21
ATOM     21  N   UNL     1      -1.052  -6.708   3.051  0.00  0.00    -0.358 N 
ATOM     22  H   UNL     1      -0.831  -6.817   3.990  0.00  0.00    +0.142 HD
ATOM     23  H   UNL     1      -1.032  -7.474   2.457  0.00  0.00    +0.142 HD
ENDBRANCH  18  21
ENDBRANCH  13  16
ENDBRANCH   5  13
TORSDOF 4
