REMARK  Name = ZINC20214461
REMARK  11 active torsions:
REMARK  status: ('A' for Active; 'I' for Inactive)
REMARK    1  A    between atoms: C_1  and  C_2
REMARK    2  A    between atoms: C_2  and  O_3
REMARK    3  A    between atoms: O_3  and  C_4
REMARK    4  A    between atoms: C_4  and  C_6
REMARK    5  A    between atoms: C_7  and  C_24
REMARK    6  A    between atoms: C_12  and  C_14
REMARK    7  A    between atoms: C_17  and  O_20
REMARK    8  A    between atoms: O_20  and  C_21
REMARK    9  A    between atoms: C_21  and  C_22
REMARK   10  A    between atoms: C_21  and  C_23
REMARK   11  A    between atoms: C_24  and  N_25
REMARK                            x       y       z     vdW  Elec       q    Type
REMARK                         _______ _______ _______ _____ _____    ______ ____
ROOT
ATOM      1  C   UNL     1      -7.199   4.291  -2.321  0.00  0.00    +0.079 C 
ATOM      2  C   UNL     1      -6.162   4.962  -2.866  0.00  0.00    +0.038 C 
ATOM      3  N   UNL     1      -6.059   5.122  -4.218  0.00  0.00    -0.271 N 
ATOM      4  C   UNL     1      -6.945   4.631  -5.094  0.00  0.00    +0.304 C 
ATOM      5  O   UNL     1      -6.765   4.820  -6.281  0.00  0.00    -0.252 OA
ATOM      6  N   UNL     1      -8.033   3.939  -4.701  0.00  0.00    -0.288 N 
ATOM      7  C   UNL     1      -8.240   3.716  -3.260  0.00  0.00    +0.144 C 
ATOM      8  H   UNL     1      -5.211   5.680  -4.643  0.00  0.00    +0.156 HD
ATOM      9  H   UNL     1      -8.757   3.544  -5.429  0.00  0.00    +0.151 HD
ENDROOT
BRANCH   7  10
ATOM     10  C   UNL     1      -9.577   4.302  -2.887  0.00  0.00    -0.022 A 
ATOM     11  C   UNL     1      -9.914   5.575  -3.308  0.00  0.00    +0.009 A 
ATOM     12  C   UNL     1     -11.142   6.113  -2.971  0.00  0.00    +0.046 A 
ATOM     13  C   UNL     1     -12.031   5.378  -2.201  0.00  0.00    +0.121 A 
ATOM     14  C   UNL     1     -11.688   4.103  -1.776  0.00  0.00    +0.046 A 
ATOM     15  C   UNL     1     -10.462   3.568  -2.120  0.00  0.00    +0.009 A 
BRANCH  13  16
ATOM     16  O   UNL     1     -13.237   5.907  -1.864  0.00  0.00    -0.489 OA
BRANCH  16  17
ATOM     17  C   UNL     1     -14.058   5.139  -0.981  0.00  0.00    +0.167 C 
ATOM     18  C   UNL     1     -15.018   6.071  -0.239  0.00  0.00    +0.051 C 
ATOM     19  C   UNL     1     -14.860   4.118  -1.789  0.00  0.00    +0.051 C 
ENDBRANCH  16  17
ENDBRANCH  13  16
ENDBRANCH   7  10
BRANCH   1  20
ATOM     20  C   UNL     1      -7.310   4.129  -0.920  0.00  0.00    +0.339 C 
ATOM     21  O   UNL     1      -6.995   3.073  -0.403  0.00  0.00    -0.245 OA
BRANCH  20  22
ATOM     22  O   UNL     1      -7.765   5.145  -0.157  0.00  0.00    -0.462 OA
BRANCH  22  24
ATOM     23  C   UNL     1      -8.383   6.167   1.944  0.00  0.00    +0.048 C 
ATOM     24  C   UNL     1      -7.851   4.912   1.250  0.00  0.00    +0.229 C 
ENDBRANCH  22  24
ENDBRANCH  20  22
ENDBRANCH   1  20
BRANCH   2  25
ATOM     25  C   UNL     1      -5.105   5.550  -1.967  0.00  0.00    +0.136 C 
BRANCH  25  26
ATOM     26  N   UNL     1      -3.823   4.876  -2.213  0.00  0.00    -0.294 NA
ATOM     27  C   UNL     1      -2.828   5.251  -1.199  0.00  0.00    +0.103 C 
ATOM     28  C   UNL     1      -1.488   4.592  -1.534  0.00  0.00    +0.122 C 
ATOM     29  N   UNL     1      -1.661   3.134  -1.583  0.00  0.00    -0.314 N 
ATOM     30  C   UNL     1      -2.656   2.758  -2.597  0.00  0.00    +0.122 C 
ATOM     31  C   UNL     1      -3.996   3.417  -2.262  0.00  0.00    +0.103 C 
ATOM     32  C   UNL     1      -0.448   2.495  -1.815  0.00  0.00    +0.099 A 
ATOM     33  C   UNL     1      -0.405   1.107  -1.902  0.00  0.00    +0.042 A 
ATOM     34  C   UNL     1       0.810   0.485  -2.128  0.00  0.00    +0.005 A 
ATOM     35  C   UNL     1       1.943   1.276  -2.271  0.00  0.00    +0.018 A 
ATOM     36  C   UNL     1       1.826   2.648  -2.179  0.00  0.00    +0.084 A 
ATOM     37  N   UNL     1       0.655   3.214  -1.958  0.00  0.00    -0.350 N 
ATOM     38  H   UNL     1       0.609   4.311  -1.892  0.00  0.00    +0.166 HD
ENDBRANCH  25  26
ENDBRANCH   2  25
TORSDOF 8
