REMARK  Name = ZINC24081899
REMARK  11 active torsions:
REMARK  status: ('A' for Active; 'I' for Inactive)
REMARK    1  A    between atoms: C_1  and  C_2
REMARK    2  A    between atoms: C_8  and  C_10
REMARK    3  A    between atoms: C_10  and  C_12
REMARK    4  A    between atoms: C_10  and  S_13
REMARK    5  A    between atoms: S_13  and  C_14
REMARK    6  A    between atoms: C_17  and  C_26
REMARK    7  A    between atoms: N_18  and  C_19
REMARK    8  A    between atoms: C_26  and  C_28
REMARK    9  A    between atoms: C_26  and  N_29
REMARK   10  A    between atoms: N_29  and  C_30
REMARK   11  A    between atoms: N_29  and  C_31
REMARK                            x       y       z     vdW  Elec       q    Type
REMARK                         _______ _______ _______ _____ _____    ______ ____
ROOT
ATOM      1  C   UNL     1       1.526  -6.728   0.575  0.00  0.00    +0.197 A 
ATOM      2  N   UNL     1       2.791  -6.817   0.235  0.00  0.00    -0.122 NA
ATOM      3  N   UNL     1       3.199  -8.028   0.379  0.00  0.00    -0.135 NA
ATOM      4  C   UNL     1       2.225  -8.781   0.806  0.00  0.00    +0.125 A 
ATOM      5  N   UNL     1       1.122  -7.981   0.947  0.00  0.00    -0.275 N 
ENDROOT
BRANCH   5   6
ATOM      6  C   UNL     1      -0.155  -8.366   1.382  0.00  0.00    +0.050 A 
ATOM      7  C   UNL     1      -0.338  -8.828   2.678  0.00  0.00    +0.028 A 
ATOM      8  C   UNL     1      -1.597  -9.202   3.105  0.00  0.00    +0.022 A 
ATOM      9  C   UNL     1      -2.673  -9.126   2.239  0.00  0.00    +0.041 A 
ATOM     10  C   UNL     1      -2.492  -8.671   0.945  0.00  0.00    +0.022 A 
ATOM     11  C   UNL     1      -1.236  -8.291   0.515  0.00  0.00    +0.028 A 
ATOM     12 CL   UNL     1      -4.253  -9.603   2.777  0.00  0.00    -0.084 Cl
ENDBRANCH   5   6
BRANCH   4  13
ATOM     13  C   UNL     1       2.299 -10.259   1.092  0.00  0.00    -0.003 C 
ATOM     14  C   UNL     1       2.317 -11.034  -0.227  0.00  0.00    -0.005 C 
BRANCH  13  15
ATOM     15  N   UNL     1       3.524 -10.551   1.848  0.00  0.00    +0.382 N 
ATOM     16  C   UNL     1       3.572 -11.964   2.248  0.00  0.00    -0.096 C 
ATOM     17  C   UNL     1       4.719 -10.181   1.077  0.00  0.00    -0.096 C 
ATOM     18  H   UNL     1       3.510  -9.941   2.763  0.00  0.00    -0.082 HD
ENDBRANCH  13  15
ENDBRANCH   4  13
BRANCH   1  19
ATOM     19  S   UNL     1       0.534  -5.272   0.549  0.00  0.00    -0.073 S 
BRANCH  19  20
ATOM     20  C   UNL     1       1.754  -4.071  -0.039  0.00  0.00    +0.137 C 
ATOM     21  C   UNL     1       2.175  -4.429  -1.466  0.00  0.00    +0.029 C 
BRANCH  20  29
ATOM     22  C   UNL     1      -1.237   2.232   0.020  0.00  0.00    +0.089 C 
ATOM     23  C   UNL     1      -0.016   1.348   0.009  0.00  0.00    +0.136 A 
ATOM     24  C   UNL     1       0.002  -0.004   0.002  0.00  0.00    +0.091 A 
ATOM     25  C   UNL     1       1.385  -0.328  -0.013  0.00  0.00    +0.168 A 
ATOM     26  N   UNL     1       2.026   0.811  -0.013  0.00  0.00    -0.063 NA
ATOM     27  O   UNL     1       1.263   1.749  -0.001  0.00  0.00    -0.358 OA
ATOM     28  N   UNL     1       1.946  -1.605  -0.026  0.00  0.00    -0.267 N 
ATOM     29  C   UNL     1       1.148  -2.691  -0.025  0.00  0.00    +0.231 C 
ATOM     30  O   UNL     1      -0.057  -2.559  -0.013  0.00  0.00    -0.274 OA
ATOM     31  H   UNL     1       3.039  -1.725  -0.037  0.00  0.00    +0.156 HD
ENDBRANCH  20  29
ENDBRANCH  19  20
ENDBRANCH   1  19
TORSDOF 6
