REMARK  Name = ZINC37643154
REMARK  7 active torsions:
REMARK  status: ('A' for Active; 'I' for Inactive)
REMARK    1  A    between atoms: C_1  and  C_2
REMARK    2  A    between atoms: C_3  and  C_11
REMARK    3  A    between atoms: C_8  and  C_10
REMARK    4  A    between atoms: C_11  and  C_13
REMARK    5  A    between atoms: C_11  and  N_14
REMARK    6  A    between atoms: N_14  and  C_15
REMARK    7  A    between atoms: C_20  and  N_21
REMARK                            x       y       z     vdW  Elec       q    Type
REMARK                         _______ _______ _______ _____ _____    ______ ____
ROOT
ATOM      1  C   UNL     1      -3.054  -0.324   0.416  0.00  0.00    +0.105 C 
ATOM      2  C   UNL     1      -4.032  -0.574   1.565  0.00  0.00    +0.033 C 
ENDROOT
BRANCH   1   5
ATOM      3  C   UNL     1      -0.481   0.889   0.899  0.00  0.00    +0.066 C 
ATOM      4  C   UNL     1      -0.612  -0.611   0.833  0.00  0.00    +0.050 A 
ATOM      5  C   UNL     1      -1.828  -1.179   0.604  0.00  0.00    +0.058 A 
ATOM      6  C   UNL     1      -1.916  -2.586   0.548  0.00  0.00    +0.257 A 
ATOM      7  O   UNL     1      -2.986  -3.136   0.345  0.00  0.00    -0.267 OA
ATOM      8  N   UNL     1      -0.790  -3.311   0.724  0.00  0.00    -0.311 N 
ATOM      9  H   UNL     1      -0.826  -4.280   0.689  0.00  0.00    +0.170 HD
ATOM     10  C   UNL     1       0.383  -2.687   0.947  0.00  0.00    +0.107 A 
ATOM     11  N   UNL     1       0.465  -1.384   0.994  0.00  0.00    -0.239 NA
ATOM     12  C   UNL     1       1.630  -3.511   1.141  0.00  0.00    +0.086 C 
ENDBRANCH   1   5
BRANCH   1  13
ATOM     13  N   UNL     1      -3.697  -0.666  -0.856  0.00  0.00    -0.335 N 
ATOM     14  H   UNL     1      -3.568  -1.545  -1.244  0.00  0.00    +0.147 HD
BRANCH  13  15
ATOM     15  C   UNL     1      -4.497   0.275  -1.509  0.00  0.00    +0.058 A 
ATOM     16  C   UNL     1      -4.784   1.489  -0.898  0.00  0.00    +0.025 A 
ATOM     17  C   UNL     1      -5.574   2.417  -1.547  0.00  0.00    +0.002 A 
ATOM     18  C   UNL     1      -6.080   2.139  -2.804  0.00  0.00    +0.002 A 
ATOM     19  C   UNL     1      -5.797   0.931  -3.414  0.00  0.00    +0.034 A 
ATOM     20  C   UNL     1      -5.002   0.000  -2.773  0.00  0.00    +0.147 A 
BRANCH  20  21
ATOM     21  N   UNL     1      -4.695  -1.290  -3.430  0.00  0.00    +0.058 N 
ATOM     22  O   UNL     1      -3.600  -1.786  -3.305  0.00  0.00    -0.126 OA
ATOM     23  O   UNL     1      -5.539  -1.847  -4.092  0.00  0.00    -0.126 OA
ENDBRANCH  20  21
ENDBRANCH  13  15
ENDBRANCH   1  13
TORSDOF 4
