REMARK  Name = ZINC02765079
REMARK  7 active torsions:
REMARK  status: ('A' for Active; 'I' for Inactive)
REMARK    1  A    between atoms: C_1  and  C_2
REMARK    2  A    between atoms: C_2  and  C_3
REMARK    3  A    between atoms: C_4  and  C_24
REMARK    4  A    between atoms: C_7  and  C_8
REMARK    5  A    between atoms: N_10  and  N_11
REMARK    6  A    between atoms: C_12  and  C_14
REMARK    7  A    between atoms: C_20  and  C_22
REMARK                            x       y       z     vdW  Elec       q    Type
REMARK                         _______ _______ _______ _____ _____    ______ ____
ROOT
ATOM      1  N   UNL     1       0.720   4.354  -0.549  0.00  0.00    -0.234 N 
ATOM      2  C   UNL     1       1.389   3.524   0.276  0.00  0.00    +0.233 C 
ATOM      3  O   UNL     1       1.974   3.970   1.240  0.00  0.00    -0.274 OA
ATOM      4  H   UNL     1       0.252   3.997  -1.321  0.00  0.00    +0.173 HD
ENDROOT
BRANCH   2   5
ATOM      5  C   UNL     1       1.411   2.043  -0.000  0.00  0.00    +0.094 C 
ATOM      6  C   UNL     1      -0.018   1.496   0.010  0.00  0.00    +0.040 C 
ATOM      7  C   UNL     1       0.002  -0.004   0.002  0.00  0.00    -0.030 C 
ATOM      8  C   UNL     1       1.040  -0.717   0.304  0.00  0.00    -0.030 C 
ATOM      9  C   UNL     1       2.370  -0.143   0.695  0.00  0.00    +0.042 C 
ATOM     10  C   UNL     1       2.213   1.326   1.094  0.00  0.00    +0.118 C 
BRANCH  10  11
ATOM     11  C   UNL     1       3.572   1.964   1.225  0.00  0.00    +0.360 C 
ATOM     12  O   UNL     1       3.866   2.908   0.531  0.00  0.00    -0.246 OA
ATOM     13  O   UNL     1       4.456   1.482   2.113  0.00  0.00    -0.246 OA
ENDBRANCH  10  11
ENDBRANCH   2   5
BRANCH   1  16
ATOM     14  C   UNL     1       0.030   6.560  -1.118  0.00  0.00    +0.261 C 
ATOM     15  O   UNL     1      -0.556   6.113  -2.085  0.00  0.00    -0.269 OA
ATOM     16  N   UNL     1       0.699   5.731  -0.293  0.00  0.00    -0.230 N 
ATOM     17  H   UNL     1       1.167   6.087   0.479  0.00  0.00    +0.173 HD
BRANCH  14  22
ATOM     18  C   UNL     1      -0.697   8.923  -1.709  0.00  0.00    -0.026 A 
ATOM     19  C   UNL     1      -0.658  10.228  -1.379  0.00  0.00    -0.009 A 
ATOM     20  S   UNL     1       0.333  10.241   0.101  0.00  0.00    -0.101 S 
ATOM     21  C   UNL     1       0.658   8.546   0.243  0.00  0.00    +0.058 A 
ATOM     22  C   UNL     1       0.008   8.007  -0.848  0.00  0.00    +0.049 A 
ATOM     23  C   UNL     1      -1.297  11.394  -2.089  0.00  0.00    +0.052 C 
BRANCH  18  25
ATOM     24  C   UNL     1      -2.888   8.111  -2.539  0.00  0.00    +0.009 C 
ATOM     25  C   UNL     1      -1.445   8.441  -2.926  0.00  0.00    +0.033 C 
ENDBRANCH  18  25
ENDBRANCH  14  22
ENDBRANCH   1  16
TORSDOF 5
