REMARK  Name = ZINC49411259
REMARK  9 active torsions:
REMARK  status: ('A' for Active; 'I' for Inactive)
REMARK    1  A    between atoms: C_1  and  C_2
REMARK    2  A    between atoms: C_5  and  N_9
REMARK    3  A    between atoms: C_7  and  C_8
REMARK    4  A    between atoms: C_10  and  C_12
REMARK    5  A    between atoms: N_14  and  C_15
REMARK    6  A    between atoms: C_15  and  C_16
REMARK    7  A    between atoms: C_16  and  C_18
REMARK    8  A    between atoms: C_16  and  O_24
REMARK    9  A    between atoms: C_21  and  C_23
REMARK                            x       y       z     vdW  Elec       q    Type
REMARK                         _______ _______ _______ _____ _____    ______ ____
ROOT
ATOM      1  C   UNL     1      -0.133  -6.327  -1.187  0.00  0.00    +0.299 C 
ATOM      2  O   UNL     1      -0.119  -6.936  -0.137  0.00  0.00    -0.265 OA
ATOM      3  N   UNL     1      -0.232  -6.996  -2.353  0.00  0.00    -0.305 N 
ATOM      4  H   UNL     1      -0.243  -6.510  -3.192  0.00  0.00    +0.149 HD
ENDROOT
BRANCH   1   6
ATOM      5  N   UNL     1       0.059  -4.168  -0.021  0.00  0.00    -0.278 N 
ATOM      6  C   UNL     1      -0.040  -4.837  -1.187  0.00  0.00    +0.303 C 
ATOM      7  O   UNL     1      -0.054  -4.228  -2.237  0.00  0.00    -0.265 OA
ATOM      8  H   UNL     1       0.147  -4.656   0.812  0.00  0.00    +0.155 HD
BRANCH   5  13
ATOM      9  C   UNL     1      -0.039   1.502   0.011  0.00  0.00    +0.044 C 
ATOM     10  C   UNL     1      -0.013  -0.004   0.003  0.00  0.00    -0.047 A 
ATOM     11  C   UNL     1       0.749  -0.687   0.934  0.00  0.00    +0.005 A 
ATOM     12  C   UNL     1       0.775  -2.067   0.929  0.00  0.00    +0.023 A 
ATOM     13  C   UNL     1       0.034  -2.771  -0.013  0.00  0.00    +0.034 A 
ATOM     14  C   UNL     1      -0.730  -2.083  -0.946  0.00  0.00    +0.027 A 
ATOM     15  C   UNL     1      -0.756  -0.702  -0.932  0.00  0.00    -0.046 A 
ATOM     16  C   UNL     1      -1.589   0.046  -1.941  0.00  0.00    +0.044 C 
ENDBRANCH   5  13
ENDBRANCH   1   6
BRANCH   3  17
ATOM     17  C   UNL     1      -0.323  -8.458  -2.353  0.00  0.00    +0.144 C 
BRANCH  17  18
ATOM     18  C   UNL     1      -0.425  -8.963  -3.794  0.00  0.00    +0.197 C 
BRANCH  18  19
ATOM     19  C   UNL     1      -0.519 -10.467  -3.794  0.00  0.00    +0.135 A 
ATOM     20  C   UNL     1       0.512 -11.319  -3.937  0.00  0.00    +0.047 A 
ATOM     21  C   UNL     1      -0.025 -12.626  -3.877  0.00  0.00    +0.045 A 
ATOM     22  C   UNL     1      -1.353 -12.493  -3.701  0.00  0.00    +0.102 A 
ATOM     23  O   UNL     1      -1.645 -11.184  -3.646  0.00  0.00    -0.462 OA
ATOM     24  C   UNL     1      -2.342 -13.623  -3.581  0.00  0.00    +0.086 C 
ENDBRANCH  18  19
BRANCH  18  25
ATOM     25  O   UNL     1      -1.592  -8.413  -4.410  0.00  0.00    -0.383 OA
ATOM     26  H   UNL     1      -2.418  -8.647  -3.966  0.00  0.00    +0.210 HD
ENDBRANCH  18  25
ENDBRANCH  17  18
ENDBRANCH   3  17
TORSDOF 6
