REMARK  Name = ZINC32487952
REMARK  5 active torsions:
REMARK  status: ('A' for Active; 'I' for Inactive)
REMARK    1  A    between atoms: C_1  and  C_2
REMARK    2  A    between atoms: C_2  and  C_4
REMARK    3  A    between atoms: C_2  and  S_19
REMARK    4  A    between atoms: N_6  and  N_7
REMARK    5  A    between atoms: S_19  and  C_20
REMARK                            x       y       z     vdW  Elec       q    Type
REMARK                         _______ _______ _______ _____ _____    ______ ____
ROOT
ATOM      1  N   UNL     1       1.055  -3.828  -3.134  0.00  0.00    -0.137 N 
ATOM      2  C   UNL     1       0.043  -4.506  -3.714  0.00  0.00    +0.263 C 
ATOM      3  O   UNL     1      -0.987  -4.047  -4.160  0.00  0.00    -0.271 OA
ATOM      4  C   UNL     1       0.464  -5.957  -3.690  0.00  0.00    +0.114 C 
ATOM      5  C   UNL     1       0.574  -6.502  -5.110  0.00  0.00    +0.035 C 
ATOM      6  C   UNL     1       1.028  -7.963  -5.066  0.00  0.00    +0.003 C 
ATOM      7  C   UNL     1       0.017  -8.786  -4.264  0.00  0.00    +0.000 C 
ATOM      8  C   UNL     1      -0.064  -8.243  -2.835  0.00  0.00    +0.003 C 
ATOM      9  C   UNL     1      -0.522  -6.783  -2.870  0.00  0.00    +0.035 C 
ATOM     10  N   UNL     1       1.782  -5.936  -3.043  0.00  0.00    -0.284 N 
ATOM     11  C   UNL     1       2.046  -4.647  -2.759  0.00  0.00    +0.326 C 
ATOM     12  O   UNL     1       3.067  -4.269  -2.219  0.00  0.00    -0.251 OA
ATOM     13  H   UNL     1       2.333  -6.875  -2.887  0.00  0.00    +0.151 HD
ENDROOT
BRANCH   1  16
ATOM     14  C   UNL     1       0.857  -1.917  -1.728  0.00  0.00    +0.242 C 
ATOM     15  O   UNL     1       0.652  -2.650  -0.784  0.00  0.00    -0.273 OA
ATOM     16  N   UNL     1       1.070  -2.439  -2.953  0.00  0.00    -0.223 N 
ATOM     17  H   UNL     1       1.256  -1.774  -3.809  0.00  0.00    +0.174 HD
BRANCH  14  19
ATOM     18  C   UNL     1       2.321   0.065  -1.447  0.00  0.00    +0.029 C 
ATOM     19  C   UNL     1       0.873  -0.423  -1.533  0.00  0.00    +0.130 C 
BRANCH  19  20
ATOM     20  S   UNL     1       0.002  -0.004   0.002  0.00  0.00    -0.152 S 
ATOM     21  C   UNL     1      -0.022   1.810   0.012  0.00  0.00    +0.085 C 
ENDBRANCH  19  20
ENDBRANCH  14  19
ENDBRANCH   1  16
TORSDOF 3
