REMARK  Name = ZINC62937469
REMARK  6 active torsions:
REMARK  status: ('A' for Active; 'I' for Inactive)
REMARK    1  A    between atoms: C_1  and  C_2
REMARK    2  A    between atoms: C_2  and  C_3
REMARK    3  A    between atoms: C_3  and  C_19
REMARK    4  A    between atoms: N_6  and  C_8
REMARK    5  A    between atoms: C_8  and  C_9
REMARK    6  A    between atoms: C_14  and  N_15
REMARK                            x       y       z     vdW  Elec       q    Type
REMARK                         _______ _______ _______ _____ _____    ______ ____
ROOT
ATOM      1  C   UNL     1      -1.433  -0.534   0.013  0.00  0.00    +0.056 C 
ATOM      2  C   UNL     1      -2.140  -0.139   1.326  0.00  0.00    -0.002 C 
ATOM      3  C   UNL     1      -2.510  -1.477   2.001  0.00  0.00    -0.077 C 
ATOM      4  N   UNL     1      -2.572  -2.455   0.884  0.00  0.00    +0.383 N 
ATOM      5  C   UNL     1      -1.435  -2.077   0.005  0.00  0.00    -0.060 C 
ATOM      6  H   UNL     1      -3.446  -2.369   0.387  0.00  0.00    -0.081 HD
ENDROOT
BRANCH   1   7
ATOM      7  C   UNL     1      -2.195  -0.003  -1.174  0.00  0.00    +0.360 C 
ATOM      8  O   UNL     1      -1.641   0.729  -1.977  0.00  0.00    -0.246 OA
ATOM      9  O   UNL     1      -3.366  -0.305  -1.332  0.00  0.00    -0.246 OA
ENDBRANCH   1   7
BRANCH   1  11
ATOM     10  C   UNL     1      -0.019   1.526   0.010  0.00  0.00    +0.005 C 
ATOM     11  C   UNL     1       0.002  -0.004   0.002  0.00  0.00    +0.013 C 
ENDBRANCH   1  11
BRANCH   4  12
ATOM     12  C   UNL     1      -2.398  -3.824   1.389  0.00  0.00    -0.041 C 
BRANCH  12  13
ATOM     13  C   UNL     1      -3.576  -4.194   2.252  0.00  0.00    -0.031 A 
ATOM     14  C   UNL     1      -3.472  -4.124   3.629  0.00  0.00    +0.042 A 
ATOM     15  C   UNL     1      -4.555  -4.464   4.422  0.00  0.00    +0.124 A 
ATOM     16  C   UNL     1      -5.741  -4.873   3.836  0.00  0.00    +0.040 A 
ATOM     17  C   UNL     1      -5.842  -4.941   2.459  0.00  0.00    +0.036 A 
ATOM     18  C   UNL     1      -4.762  -4.596   1.668  0.00  0.00    +0.128 A 
ATOM     19  F   UNL     1      -4.454  -4.398   5.768  0.00  0.00    -0.205 F 
BRANCH  18  20
ATOM     20  N   UNL     1      -4.875  -4.664   0.194  0.00  0.00    +0.057 N 
ATOM     21  O   UNL     1      -5.912  -5.016  -0.318  0.00  0.00    -0.126 OA
ATOM     22  O   UNL     1      -3.929  -4.366  -0.499  0.00  0.00    -0.126 OA
ENDBRANCH  18  20
ENDBRANCH  12  13
ENDBRANCH   4  12
TORSDOF 5
