REMARK  Name = ZINC00958547
REMARK  12 active torsions:
REMARK  status: ('A' for Active; 'I' for Inactive)
REMARK    1  A    between atoms: C_1  and  C_2
REMARK    2  A    between atoms: C_2  and  O_3
REMARK    3  A    between atoms: O_3  and  C_4
REMARK    4  A    between atoms: C_4  and  C_6
REMARK    5  A    between atoms: C_10  and  N_11
REMARK    6  A    between atoms: C_12  and  C_14
REMARK    7  A    between atoms: C_17  and  O_20
REMARK    8  A    between atoms: O_20  and  C_21
REMARK    9  A    between atoms: C_21  and  C_23
REMARK   10  A    between atoms: C_21  and  C_24
REMARK   11  A    between atoms: N_26  and  N_27
REMARK   12  A    between atoms: C_29  and  C_33
REMARK                            x       y       z     vdW  Elec       q    Type
REMARK                         _______ _______ _______ _____ _____    ______ ____
ROOT
ATOM      1  N   UNL     1       2.811  -5.701  -1.639  0.00  0.00    -0.275 N 
ATOM      2  C   UNL     1       3.105  -5.982  -2.924  0.00  0.00    +0.249 C 
ATOM      3  O   UNL     1       3.264  -5.078  -3.722  0.00  0.00    -0.270 OA
ATOM      4  H   UNL     1       2.684  -6.422  -1.002  0.00  0.00    +0.156 HD
ENDROOT
BRANCH   1   9
ATOM      5  C   UNL     1       2.396  -3.900   0.041  0.00  0.00    +0.091 A 
ATOM      6  C   UNL     1       2.327  -2.458   0.209  0.00  0.00    -0.021 A 
ATOM      7  C   UNL     1       2.561  -1.737  -0.909  0.00  0.00    -0.004 A 
ATOM      8  S   UNL     1       2.869  -2.941  -2.169  0.00  0.00    -0.077 S 
ATOM      9  C   UNL     1       2.690  -4.385  -1.227  0.00  0.00    +0.087 A 
ATOM     10  C   UNL     1       2.555  -0.245  -1.039  0.00  0.00    +0.046 C 
ATOM     11  C   UNL     1       1.875   0.346   0.204  0.00  0.00    -0.009 C 
ATOM     12  C   UNL     1       2.468  -0.314   1.452  0.00  0.00    +0.008 C 
ATOM     13  C   UNL     1       2.015  -1.773   1.534  0.00  0.00    +0.037 C 
ATOM     14  C   UNL     1       2.122   1.855   0.255  0.00  0.00    +0.008 C 
BRANCH   5  15
ATOM     15  C   UNL     1       2.164  -4.807   1.166  0.00  0.00    +0.342 C 
ATOM     16  O   UNL     1       1.040  -5.207   1.404  0.00  0.00    -0.245 OA
BRANCH  15  17
ATOM     17  O   UNL     1       3.197  -5.200   1.939  0.00  0.00    -0.461 OA
BRANCH  17  19
ATOM     18  C   UNL     1       4.181  -6.433   3.795  0.00  0.00    +0.048 C 
ATOM     19  C   UNL     1       2.894  -6.101   3.037  0.00  0.00    +0.229 C 
ENDBRANCH  17  19
ENDBRANCH  15  17
ENDBRANCH   5  15
ENDBRANCH   1   9
BRANCH   2  20
ATOM     20  C   UNL     1       3.233  -7.385  -3.362  0.00  0.00    +0.037 A 
ATOM     21  C   UNL     1       3.056  -8.424  -2.445  0.00  0.00    +0.016 A 
ATOM     22  C   UNL     1       3.173  -9.732  -2.859  0.00  0.00    +0.046 A 
ATOM     23  C   UNL     1       3.475 -10.019  -4.185  0.00  0.00    +0.122 A 
ATOM     24  C   UNL     1       3.657  -8.988  -5.099  0.00  0.00    +0.046 A 
ATOM     25  C   UNL     1       3.538  -7.677  -4.694  0.00  0.00    +0.016 A 
BRANCH  23  26
ATOM     26  O   UNL     1       3.594 -11.310  -4.588  0.00  0.00    -0.480 OA
BRANCH  26  27
ATOM     27  C   UNL     1       3.789 -11.538  -5.985  0.00  0.00    +0.257 C 
ATOM     28  C   UNL     1       5.278 -11.416  -6.318  0.00  0.00    +0.062 C 
BRANCH  27  29
ATOM     29  C   UNL     1       3.306 -12.920  -6.341  0.00  0.00    +0.267 C 
ATOM     30  O   UNL     1       2.840 -13.639  -5.483  0.00  0.00    -0.270 OA
ATOM     31  N   UNL     1       3.391 -13.357  -7.613  0.00  0.00    -0.251 N 
ATOM     32  H   UNL     1       3.764 -12.782  -8.300  0.00  0.00    +0.169 HD
BRANCH  31  33
ATOM     33  N   UNL     1       2.953 -14.610  -7.936  0.00  0.00    -0.254 NA
ATOM     34  H   UNL     1       1.989 -14.736  -7.666  0.00  0.00    +0.140 HD
ATOM     35  H   UNL     1       3.080 -14.795  -8.919  0.00  0.00    +0.140 HD
ENDBRANCH  31  33
ENDBRANCH  27  29
ENDBRANCH  26  27
ENDBRANCH  23  26
ENDBRANCH   2  20
TORSDOF 9
