REMARK  Name = ZINC63892274
REMARK  4 active torsions:
REMARK  status: ('A' for Active; 'I' for Inactive)
REMARK    1  A    between atoms: C_1  and  C_2
REMARK    2  A    between atoms: N_5  and  C_7
REMARK    3  A    between atoms: C_7  and  C_8
REMARK    4  A    between atoms: C_8  and  C_9
REMARK                            x       y       z     vdW  Elec       q    Type
REMARK                         _______ _______ _______ _____ _____    ______ ____
ROOT
ATOM      1  C   UNL     1      -1.095  -5.420   2.006  0.00  0.00    +0.113 A 
ATOM      2  N   UNL     1      -2.049  -6.372   1.838  0.00  0.00    -0.310 N 
ATOM      3  H   UNL     1      -2.729  -6.249   1.159  0.00  0.00    +0.170 HD
ATOM      4  C   UNL     1      -2.067  -7.485   2.596  0.00  0.00    +0.260 A 
ATOM      5  O   UNL     1      -2.929  -8.331   2.433  0.00  0.00    -0.267 OA
ATOM      6  C   UNL     1      -1.056  -7.657   3.597  0.00  0.00    +0.075 A 
ATOM      7  C   UNL     1      -0.884  -8.778   4.526  0.00  0.00    -0.023 A 
ATOM      8  C   UNL     1       0.155  -8.700   5.383  0.00  0.00    -0.004 A 
ATOM      9  S   UNL     1       0.956  -7.163   5.002  0.00  0.00    -0.073 S 
ATOM     10  C   UNL     1      -0.115  -6.622   3.695  0.00  0.00    +0.116 A 
ATOM     11  N   UNL     1      -0.158  -5.552   2.906  0.00  0.00    -0.227 NA
ATOM     12  C   UNL     1       0.549  -9.683   6.441  0.00  0.00    +0.043 C 
ATOM     13  C   UNL     1       0.587 -11.092   5.834  0.00  0.00    +0.005 C 
ATOM     14  C   UNL     1      -0.798 -11.716   5.979  0.00  0.00    +0.001 C 
ATOM     15  C   UNL     1      -1.872 -10.634   5.875  0.00  0.00    +0.005 C 
ATOM     16  C   UNL     1      -1.834  -9.972   4.504  0.00  0.00    +0.037 C 
ENDROOT
BRANCH   1  17
ATOM     17  C   UNL     1      -1.116  -4.191   1.134  0.00  0.00    +0.097 C 
BRANCH  17  18
ATOM     18  C   UNL     1       0.054  -3.280   1.509  0.00  0.00    +0.151 C 
BRANCH  18  23
ATOM     19  C   UNL     1      -0.018   1.503   0.010  0.00  0.00    +0.047 C 
ATOM     20  C   UNL     1       0.002  -0.004   0.002  0.00  0.00    -0.013 A 
ATOM     21  C   UNL     1       0.009  -0.821  -1.133  0.00  0.00    +0.137 A 
ATOM     22  N   UNL     1       0.028  -2.068  -0.740  0.00  0.00    -0.179 NA
ATOM     23  N   UNL     1       0.034  -2.085   0.661  0.00  0.00    -0.271 N 
ATOM     24  C   UNL     1       0.023  -0.806   1.092  0.00  0.00    +0.111 A 
ENDBRANCH  18  23
ENDBRANCH  17  18
ENDBRANCH   1  17
TORSDOF 3
