REMARK  Name = ZINC31836792
REMARK  4 active torsions:
REMARK  status: ('A' for Active; 'I' for Inactive)
REMARK    1  A    between atoms: C_5  and  N_7
REMARK    2  A    between atoms: C_8  and  C_10
REMARK    3  A    between atoms: C_10  and  N_11
REMARK    4  A    between atoms: C_20  and  N_22
REMARK                            x       y       z     vdW  Elec       q    Type
REMARK                         _______ _______ _______ _____ _____    ______ ____
ROOT
ATOM      1  N   UNL     1       2.668   1.052  -0.007  0.00  0.00    -0.308 N 
ATOM      2  C   UNL     1       4.000   1.573   0.328  0.00  0.00    +0.226 C 
ATOM      3  C   UNL     1       4.118   2.961  -0.270  0.00  0.00    +0.330 C 
ATOM      4  O   UNL     1       5.003   3.249  -1.040  0.00  0.00    -0.249 OA
ATOM      5  O   UNL     1       3.180   3.856   0.104  0.00  0.00    -0.423 OA
ATOM      6  C   UNL     1       1.917   3.363   0.245  0.00  0.00    +0.155 A 
ATOM      7  C   UNL     1       1.660   1.998   0.203  0.00  0.00    +0.074 A 
ATOM      8  C   UNL     1       0.355   1.542   0.366  0.00  0.00    +0.029 A 
ATOM      9  C   UNL     1      -0.677   2.439   0.560  0.00  0.00    +0.035 A 
ATOM     10  C   UNL     1      -0.418   3.796   0.601  0.00  0.00    +0.130 A 
ATOM     11  C   UNL     1       0.875   4.258   0.440  0.00  0.00    +0.081 A 
ENDROOT
BRANCH  10  12
ATOM     12  N   UNL     1      -1.526   4.756   0.810  0.00  0.00    +0.057 N 
ATOM     13  O   UNL     1      -1.298   5.952   0.841  0.00  0.00    -0.126 OA
ATOM     14  O   UNL     1      -2.665   4.349   0.952  0.00  0.00    -0.126 OA
ENDBRANCH  10  12
BRANCH   1  15
ATOM     15  C   UNL     1       2.387  -0.189   0.728  0.00  0.00    +0.201 C 
BRANCH  15  17
ATOM     16  N   UNL     1       2.268  -0.917   3.089  0.00  0.00    -0.283 N 
ATOM     17  C   UNL     1       2.375   0.097   2.208  0.00  0.00    +0.235 C 
ATOM     18  O   UNL     1       2.460   1.239   2.606  0.00  0.00    -0.274 OA
ATOM     19  H   UNL     1       2.251  -1.957   2.731  0.00  0.00    +0.155 HD
BRANCH  16  24
ATOM     20  C   UNL     1       2.698   0.749   6.339  0.00  0.00    +0.002 A 
ATOM     21  C   UNL     1       2.007  -0.114   7.170  0.00  0.00    +0.002 A 
ATOM     22  C   UNL     1       1.402  -1.243   6.650  0.00  0.00    +0.022 A 
ATOM     23  C   UNL     1       1.486  -1.513   5.297  0.00  0.00    +0.062 A 
ATOM     24  C   UNL     1       2.180  -0.648   4.460  0.00  0.00    +0.052 A 
ATOM     25  C   UNL     1       2.792   0.482   4.987  0.00  0.00    +0.025 A 
ATOM     26 CL   UNL     1       0.727  -2.931   4.644  0.00  0.00    -0.082 Cl
ENDBRANCH  16  24
ENDBRANCH  15  17
ENDBRANCH   1  15
TORSDOF 4
