REMARK  Name = ZINC64020248
REMARK  9 active torsions:
REMARK  status: ('A' for Active; 'I' for Inactive)
REMARK    1  A    between atoms: C_1  and  C_2
REMARK    2  A    between atoms: C_4  and  C_12
REMARK    3  A    between atoms: C_12  and  C_14
REMARK    4  A    between atoms: C_14  and  C_16
REMARK    5  A    between atoms: C_14  and  O_17
REMARK    6  A    between atoms: O_17  and  C_18
REMARK    7  A    between atoms: C_18  and  C_20
REMARK    8  A    between atoms: C_24  and  N_26
REMARK    9  A    between atoms: C_27  and  C_29
REMARK                            x       y       z     vdW  Elec       q    Type
REMARK                         _______ _______ _______ _____ _____    ______ ____
ROOT
ATOM      1  O   UNL     1       0.502  -0.814  -4.910  0.00  0.00    -0.453 OA
ENDROOT
BRANCH   1   2
ATOM      2  C   UNL     1       1.223  -0.869  -3.678  0.00  0.00    +0.244 C 
ATOM      3  C   UNL     1       2.518  -0.065  -3.809  0.00  0.00    +0.061 C 
BRANCH   2   4
ATOM      4  C   UNL     1       0.379  -0.286  -2.575  0.00  0.00    +0.202 C 
ATOM      5  O   UNL     1      -0.602   0.376  -2.847  0.00  0.00    -0.288 OA
BRANCH   4   8
ATOM      6  C   UNL     1      -0.019   1.526   0.010  0.00  0.00    +0.035 C 
ATOM      7  C   UNL     1       0.002  -0.004   0.002  0.00  0.00    +0.111 C 
ATOM      8  C   UNL     1       0.728  -0.508  -1.226  0.00  0.00    +0.030 C 
ATOM      9  C   UNL     1       1.805  -1.234  -0.750  0.00  0.00    +0.007 A 
ATOM     10  C   UNL     1       2.845  -1.946  -1.391  0.00  0.00    +0.010 A 
ATOM     11  C   UNL     1       3.789  -2.580  -0.660  0.00  0.00    +0.001 A 
ATOM     12  C   UNL     1       3.790  -2.566   0.744  0.00  0.00    +0.002 A 
ATOM     13  C   UNL     1       2.842  -1.915   1.453  0.00  0.00    +0.026 A 
ATOM     14  C   UNL     1       1.776  -1.199   0.733  0.00  0.00    +0.043 A 
ATOM     15  N   UNL     1       0.756  -0.505   1.155  0.00  0.00    -0.377 N 
ATOM     16  H   UNL     1       0.532  -0.344   2.085  0.00  0.00    +0.160 HD
ENDBRANCH   4   8
ENDBRANCH   2   4
ENDBRANCH   1   2
BRANCH   1  17
ATOM     17  C   UNL     1       0.765  -1.771  -5.814  0.00  0.00    +0.322 C 
ATOM     18  O   UNL     1       1.581  -2.627  -5.567  0.00  0.00    -0.250 OA
BRANCH  17  19
ATOM     19  C   UNL     1       0.043  -1.778  -7.137  0.00  0.00    +0.165 C 
ATOM     20  C   UNL     1      -0.131  -3.220  -7.682  0.00  0.00    +0.055 C 
ATOM     21  C   UNL     1       0.056  -3.254  -9.165  0.00  0.00    +0.005 C 
ATOM     22  C   UNL     1       0.675  -2.247  -9.771  0.00  0.00    +0.065 C 
ATOM     23  S   UNL     1       1.093  -1.085  -8.482  0.00  0.00    -0.095 S 
BRANCH  22  24
ATOM     24  N   UNL     1       0.942  -2.123 -11.132  0.00  0.00    -0.274 N 
ATOM     25  C   UNL     1       1.584  -1.032 -11.596  0.00  0.00    +0.284 C 
ATOM     26  O   UNL     1       1.931  -0.156 -10.826  0.00  0.00    -0.266 OA
ATOM     27  H   UNL     1       0.666  -2.821 -11.746  0.00  0.00    +0.156 HD
BRANCH  25  28
ATOM     28  C   UNL     1       1.865  -0.902 -13.029  0.00  0.00    +0.189 A 
ATOM     29  C   UNL     1       2.510   0.143 -13.629  0.00  0.00    +0.054 A 
ATOM     30  C   UNL     1       2.558  -0.147 -15.001  0.00  0.00    +0.042 A 
ATOM     31  C   UNL     1       1.949  -1.341 -15.177  0.00  0.00    +0.196 A 
ATOM     32  O   UNL     1       1.538  -1.795 -13.986  0.00  0.00    -0.458 OA
ENDBRANCH  25  28
ENDBRANCH  22  24
ENDBRANCH  17  19
ENDBRANCH   1  17
TORSDOF 7
