REMARK  Name = ZINC65467324
REMARK  12 active torsions:
REMARK  status: ('A' for Active; 'I' for Inactive)
REMARK    1  A    between atoms: C_1  and  C_2
REMARK    2  A    between atoms: C_5  and  C_8
REMARK    3  A    between atoms: C_8  and  C_9
REMARK    4  A    between atoms: C_8  and  N_24
REMARK    5  A    between atoms: C_9  and  N_10
REMARK    6  A    between atoms: N_13  and  C_14
REMARK    7  A    between atoms: C_16  and  C_22
REMARK    8  A    between atoms: C_16  and  C_23
REMARK    9  A    between atoms: C_18  and  C_20
REMARK   10  A    between atoms: C_18  and  C_21
REMARK   11  A    between atoms: N_24  and  C_25
REMARK   12  A    between atoms: N_24  and  C_26
REMARK                            x       y       z     vdW  Elec       q    Type
REMARK                         _______ _______ _______ _____ _____    ______ ____
ROOT
ATOM      1  N   UNL     1      -1.049  -6.100   0.307  0.00  0.00    -0.301 N 
ATOM      2  C   UNL     1      -2.060  -6.975   0.477  0.00  0.00    +0.300 C 
ATOM      3  O   UNL     1      -3.188  -6.569   0.680  0.00  0.00    -0.253 OA
ATOM      4  N   UNL     1      -1.820  -8.300   0.423  0.00  0.00    -0.297 N 
ATOM      5  H   UNL     1      -0.149  -6.424   0.145  0.00  0.00    +0.150 HD
ATOM      6  H   UNL     1      -0.921  -8.624   0.261  0.00  0.00    +0.151 HD
ENDROOT
BRANCH   4   7
ATOM      7  C   UNL     1      -2.922  -9.253   0.608  0.00  0.00    +0.072 C 
ATOM      8  C   UNL     1      -3.100  -9.530   2.102  0.00  0.00    +0.009 C 
ATOM      9  C   UNL     1      -4.236 -10.531   2.311  0.00  0.00    -0.072 C 
ATOM     10  N   UNL     1      -4.043 -11.749   1.537  0.00  0.00    +0.386 N 
ATOM     11  C   UNL     1      -3.665 -11.608   0.140  0.00  0.00    -0.072 C 
ATOM     12  C   UNL     1      -2.571 -10.569  -0.085  0.00  0.00    +0.009 C 
ATOM     13  C   UNL     1      -4.874 -11.293  -0.745  0.00  0.00    -0.010 C 
ATOM     14  C   UNL     1      -3.106 -12.972  -0.330  0.00  0.00    -0.010 C 
ATOM     15  C   UNL     1      -5.583  -9.871   2.020  0.00  0.00    -0.010 C 
ATOM     16  C   UNL     1      -4.231 -10.924   3.807  0.00  0.00    -0.010 C 
ATOM     17  H   UNL     1      -3.335 -12.319   2.006  0.00  0.00    -0.084 HD
ATOM     18  H   UNL     1      -4.904 -12.299   1.584  0.00  0.00    -0.084 HD
ENDBRANCH   4   7
BRANCH   1  19
ATOM     19  C   UNL     1      -1.309  -4.659   0.367  0.00  0.00    +0.095 C 
BRANCH  19  20
ATOM     20  C   UNL     1      -0.033  -3.895   0.011  0.00  0.00    -0.021 C 
BRANCH  20  25
ATOM     21  C   UNL     1       1.403  -5.002  -5.476  0.00  0.00    +0.044 C 
ATOM     22  C   UNL     1       1.029  -4.713  -4.045  0.00  0.00    -0.050 A 
ATOM     23  C   UNL     1       1.672  -5.374  -3.016  0.00  0.00    +0.003 A 
ATOM     24  C   UNL     1       1.329  -5.109  -1.703  0.00  0.00    +0.002 A 
ATOM     25  C   UNL     1       0.343  -4.183  -1.420  0.00  0.00    -0.059 A 
ATOM     26  C   UNL     1      -0.300  -3.522  -2.450  0.00  0.00    +0.002 A 
ATOM     27  C   UNL     1       0.046  -3.783  -3.762  0.00  0.00    +0.003 A 
ENDBRANCH  20  25
BRANCH  20  28
ATOM     28  N   UNL     1      -0.262  -2.454   0.176  0.00  0.00    +0.382 N 
ATOM     29  C   UNL     1      -0.571  -2.165   1.583  0.00  0.00    -0.096 C 
ATOM     30  C   UNL     1       0.945  -1.717  -0.222  0.00  0.00    -0.096 C 
ATOM     31  H   UNL     1      -1.037  -2.168  -0.404  0.00  0.00    -0.082 HD
ENDBRANCH  20  28
ENDBRANCH  19  20
ENDBRANCH   1  19
TORSDOF 5
