REMARK  Name = ZINC32631970
REMARK  11 active torsions:
REMARK  status: ('A' for Active; 'I' for Inactive)
REMARK    1  A    between atoms: C_1  and  C_2
REMARK    2  A    between atoms: C_3  and  C_26
REMARK    3  A    between atoms: C_4  and  C_25
REMARK    4  A    between atoms: C_5  and  S_10
REMARK    5  A    between atoms: C_6  and  C_9
REMARK    6  A    between atoms: C_7  and  C_8
REMARK    7  A    between atoms: S_10  and  N_13
REMARK    8  A    between atoms: N_13  and  C_14
REMARK    9  A    between atoms: C_18  and  C_21
REMARK   10  A    between atoms: C_19  and  C_20
REMARK   11  A    between atoms: N_23  and  C_24
REMARK                            x       y       z     vdW  Elec       q    Type
REMARK                         _______ _______ _______ _____ _____    ______ ____
ROOT
ATOM      1  S   UNL     1       4.269  -2.468  -0.786  0.00  0.00    +0.073 S 
ATOM      2  O   UNL     1       3.434  -1.817   0.163  0.00  0.00    -0.150 OA
ATOM      3  O   UNL     1       5.685  -2.478  -0.674  0.00  0.00    -0.150 OA
ENDROOT
BRANCH   1   8
ATOM      4  C   UNL     1       2.981  -0.048  -6.161  0.00  0.00    +0.044 C 
ATOM      5  C   UNL     1       3.303  -0.652  -4.819  0.00  0.00    -0.044 A 
ATOM      6  C   UNL     1       4.620  -0.847  -4.446  0.00  0.00    -0.043 A 
ATOM      7  C   UNL     1       4.915  -1.402  -3.215  0.00  0.00    -0.020 A 
ATOM      8  C   UNL     1       3.893  -1.761  -2.356  0.00  0.00    +0.115 A 
ATOM      9  C   UNL     1       2.576  -1.570  -2.730  0.00  0.00    -0.020 A 
ATOM     10  C   UNL     1       2.281  -1.011  -3.960  0.00  0.00    -0.043 A 
ATOM     11  C   UNL     1       0.845  -0.798  -4.366  0.00  0.00    +0.044 C 
ATOM     12  C   UNL     1       1.462  -1.967  -1.796  0.00  0.00    +0.046 C 
ATOM     13  C   UNL     1       6.350  -1.615  -2.809  0.00  0.00    +0.046 C 
ATOM     14  C   UNL     1       5.734  -0.456  -5.383  0.00  0.00    +0.044 C 
ENDBRANCH   1   8
BRANCH   1  15
ATOM     15  N   UNL     1       3.786  -4.051  -0.834  0.00  0.00    -0.216 N 
ATOM     16  H   UNL     1       3.030  -4.418  -0.124  0.00  0.00    +0.174 HD
BRANCH  15  17
ATOM     17  C   UNL     1       4.339  -4.922  -1.777  0.00  0.00    +0.052 A 
ATOM     18  C   UNL     1       5.675  -4.796  -2.139  0.00  0.00    +0.025 A 
ATOM     19  C   UNL     1       6.227  -5.654  -3.071  0.00  0.00    +0.003 A 
ATOM     20  C   UNL     1       5.455  -6.642  -3.649  0.00  0.00    +0.013 A 
ATOM     21  C   UNL     1       4.112  -6.777  -3.292  0.00  0.00    +0.041 A 
ATOM     22  C   UNL     1       3.555  -5.911  -2.351  0.00  0.00    -0.016 A 
ATOM     23  C   UNL     1       2.107  -6.050  -1.960  0.00  0.00    +0.046 C 
BRANCH  21  24
ATOM     24  C   UNL     1       3.283  -7.834  -3.909  0.00  0.00    +0.244 C 
ATOM     25  O   UNL     1       2.089  -7.879  -3.684  0.00  0.00    -0.270 OA
ATOM     26  N   UNL     1       3.851  -8.748  -4.720  0.00  0.00    -0.314 N 
ATOM     27  C   UNL     1       3.029  -9.796  -5.332  0.00  0.00    +0.128 C 
ATOM     28  H   UNL     1       4.931  -8.708  -4.923  0.00  0.00    +0.149 HD
ENDBRANCH  21  24
ENDBRANCH  15  17
ENDBRANCH   1  15
TORSDOF 4
