REMARK  Name = ZINC06518620
REMARK  9 active torsions:
REMARK  status: ('A' for Active; 'I' for Inactive)
REMARK    1  A    between atoms: C_1  and  C_2
REMARK    2  A    between atoms: C_2  and  C_3
REMARK    3  A    between atoms: C_3  and  C_22
REMARK    4  A    between atoms: C_10  and  N_19
REMARK    5  A    between atoms: C_12  and  S_14
REMARK    6  A    between atoms: S_14  and  C_15
REMARK    7  A    between atoms: C_15  and  C_16
REMARK    8  A    between atoms: C_16  and  O_17
REMARK    9  A    between atoms: O_17  and  C_18
REMARK                            x       y       z     vdW  Elec       q    Type
REMARK                         _______ _______ _______ _____ _____    ______ ____
ROOT
ATOM      1  C   UNL     1      -4.394   5.133   8.298  0.00  0.00    +0.071 C 
ATOM      2  C   UNL     1      -4.263   4.344   6.992  0.00  0.00    +0.071 C 
ATOM      3  C   UNL     1      -3.025   3.455   7.099  0.00  0.00    -0.020 A 
ATOM      4  C   UNL     1      -2.490   3.202   8.312  0.00  0.00    +0.021 A 
ATOM      5  S   UNL     1      -1.098   2.156   7.993  0.00  0.00    -0.071 S 
ATOM      6  C   UNL     1      -1.237   2.059   6.226  0.00  0.00    +0.115 A 
ATOM      7  C   UNL     1      -2.369   2.850   5.942  0.00  0.00    +0.051 A 
ATOM      8  C   UNL     1      -2.717   2.948   4.565  0.00  0.00    +0.129 A 
ATOM      9  N   UNL     1      -1.980   2.320   3.665  0.00  0.00    -0.207 NA
ATOM     10  C   UNL     1      -0.927   1.585   4.003  0.00  0.00    +0.191 A 
ATOM     11  N   UNL     1      -0.556   1.458   5.270  0.00  0.00    -0.215 NA
ATOM     12  C   UNL     1      -2.993   3.713   9.627  0.00  0.00    +0.203 C 
ATOM     13  O   UNL     1      -4.310   4.248   9.418  0.00  0.00    -0.368 OA
ATOM     14  C   UNL     1      -3.268   6.164   8.383  0.00  0.00    +0.042 C 
ENDROOT
BRANCH   8  15
ATOM     15  N   UNL     1      -3.810   3.699   4.173  0.00  0.00    -0.343 N 
ATOM     16  H   UNL     1      -4.430   4.038   4.838  0.00  0.00    +0.144 HD
ATOM     17  H   UNL     1      -3.957   3.888   3.233  0.00  0.00    +0.144 HD
ENDBRANCH   8  15
BRANCH   1  19
ATOM     18  C   UNL     1      -5.827   6.741   9.565  0.00  0.00    +0.007 C 
ATOM     19  C   UNL     1      -5.744   5.853   8.321  0.00  0.00    +0.032 C 
ENDBRANCH   1  19
BRANCH  10  20
ATOM     20  S   UNL     1      -0.001   0.772   2.745  0.00  0.00    -0.084 S 
BRANCH  20  21
ATOM     21  C   UNL     1      -0.935   1.287   1.283  0.00  0.00    +0.105 C 
BRANCH  21  22
ATOM     22  C   UNL     1      -0.297   0.684   0.030  0.00  0.00    +0.170 C 
BRANCH  22  23
ATOM     23  O   UNL     1      -1.035   1.091  -1.124  0.00  0.00    -0.382 OA
ATOM     24  C   UNL     1      -0.519   0.579  -2.354  0.00  0.00    +0.194 C 
ENDBRANCH  22  23
ENDBRANCH  21  22
ENDBRANCH  20  21
ENDBRANCH  10  20
TORSDOF 6
