REMARK  Name = ZINC65257744
REMARK  7 active torsions:
REMARK  status: ('A' for Active; 'I' for Inactive)
REMARK    1  A    between atoms: C_1  and  C_2
REMARK    2  A    between atoms: C_6  and  O_8
REMARK    3  A    between atoms: O_8  and  C_9
REMARK    4  A    between atoms: C_9  and  C_10
REMARK    5  A    between atoms: N_12  and  C_13
REMARK    6  A    between atoms: C_13  and  C_19
REMARK    7  A    between atoms: C_21  and  C_24
REMARK                            x       y       z     vdW  Elec       q    Type
REMARK                         _______ _______ _______ _____ _____    ______ ____
ROOT
ATOM      1  C   UNL     1       0.083  -4.787   3.662  0.00  0.00    +0.251 C 
ATOM      2  O   UNL     1       0.077  -4.055   4.629  0.00  0.00    -0.272 OA
ATOM      3  N   UNL     1       0.101  -6.125   3.830  0.00  0.00    -0.298 N 
ATOM      4  H   UNL     1       0.105  -6.710   3.056  0.00  0.00    +0.150 HD
ENDROOT
BRANCH   3   5
ATOM      5  C   UNL     1       0.115  -6.694   5.179  0.00  0.00    +0.113 C 
ATOM      6  C   UNL     1       1.361  -6.211   5.924  0.00  0.00    +0.035 C 
ATOM      7  C   UNL     1       2.613  -6.661   5.168  0.00  0.00    +0.003 C 
ATOM      8  C   UNL     1       2.633  -8.188   5.077  0.00  0.00    +0.000 C 
ATOM      9  C   UNL     1       1.387  -8.671   4.333  0.00  0.00    +0.003 C 
ATOM     10  C   UNL     1       0.135  -8.221   5.089  0.00  0.00    +0.035 C 
BRANCH   5  11
ATOM     11  C   UNL     1      -1.118  -6.251   5.924  0.00  0.00    +0.251 A 
ATOM     12  N   UNL     1      -1.503  -5.017   6.100  0.00  0.00    -0.195 NA
ATOM     13  C   UNL     1      -2.639  -4.987   6.805  0.00  0.00    +0.169 A 
ATOM     14  N   UNL     1      -2.993  -6.207   7.088  0.00  0.00    -0.062 NA
ATOM     15  O   UNL     1      -2.011  -7.056   6.513  0.00  0.00    -0.336 OA
ATOM     16  C   UNL     1      -3.387  -3.742   7.208  0.00  0.00    +0.091 C 
ENDBRANCH   5  11
ENDBRANCH   3   5
BRANCH   1  17
ATOM     17  C   UNL     1       0.069  -4.202   2.274  0.00  0.00    +0.324 C 
BRANCH  17  18
ATOM     18  O   UNL     1       0.050  -2.776   2.358  0.00  0.00    -0.483 OA
BRANCH  18  24
ATOM     19  C   UNL     1      -0.018   1.503   0.010  0.00  0.00    +0.044 C 
ATOM     20  C   UNL     1       0.002  -0.004   0.002  0.00  0.00    -0.047 A 
ATOM     21  C   UNL     1       0.006  -0.688  -1.200  0.00  0.00    +0.003 A 
ATOM     22  C   UNL     1       0.024  -2.071  -1.211  0.00  0.00    +0.004 A 
ATOM     23  C   UNL     1       0.039  -2.772  -0.020  0.00  0.00    +0.045 A 
ATOM     24  C   UNL     1       0.035  -2.088   1.186  0.00  0.00    +0.121 A 
ATOM     25  C   UNL     1       0.023  -0.700   1.195  0.00  0.00    +0.049 A 
ENDBRANCH  18  24
ENDBRANCH  17  18
ENDBRANCH   1  17
TORSDOF 5
