REMARK  Name = ZINC18198458
REMARK  7 active torsions:
REMARK  status: ('A' for Active; 'I' for Inactive)
REMARK    1  A    between atoms: C_1  and  O_2
REMARK    2  A    between atoms: O_2  and  C_3
REMARK    3  A    between atoms: C_6  and  C_11
REMARK    4  A    between atoms: C_8  and  O_9
REMARK    5  A    between atoms: O_9  and  C_10
REMARK    6  A    between atoms: C_16  and  C_24
REMARK    7  A    between atoms: C_28  and  O_30
REMARK                            x       y       z     vdW  Elec       q    Type
REMARK                         _______ _______ _______ _____ _____    ______ ____
ROOT
ATOM      1  C   UNL     1      -0.751   1.592  -1.232  0.00  0.00    +0.032 C 
ATOM      2  C   UNL     1      -0.013   1.086   0.008  0.00  0.00    +0.060 C 
ATOM      3  C   UNL     1      -0.719   1.572   1.252  0.00  0.00    +0.020 C 
ATOM      4  C   UNL     1      -1.371   2.754   1.261  0.00  0.00    +0.041 C 
ATOM      5  C   UNL     1      -2.067   3.279   2.498  0.00  0.00    +0.176 C 
ATOM      6  N   UNL     1      -2.210   2.211   3.479  0.00  0.00    -0.221 N 
ATOM      7  C   UNL     1      -1.541   1.034   3.404  0.00  0.00    +0.218 A 
ATOM      8  N   UNL     1      -1.882   0.310   4.434  0.00  0.00    -0.201 NA
ATOM      9  C   UNL     1      -2.764   0.982   5.181  0.00  0.00    +0.247 A 
ATOM     10  N   UNL     1      -2.993   2.149   4.631  0.00  0.00    -0.156 NA
ATOM     11  N   UNL     1      -0.670   0.763   2.361  0.00  0.00    -0.287 N 
ATOM     12  C   UNL     1      -1.428   3.556   0.107  0.00  0.00    +0.164 C 
ATOM     13  O   UNL     1      -2.009   4.622   0.152  0.00  0.00    -0.292 OA
ATOM     14  C   UNL     1      -0.785   3.123  -1.182  0.00  0.00    +0.088 C 
ATOM     15  H   UNL     1      -0.045   0.023   2.413  0.00  0.00    +0.155 HD
ENDROOT
BRANCH   1  19
ATOM     16  C   UNL     1       1.308   0.311  -4.755  0.00  0.00    +0.161 A 
ATOM     17  C   UNL     1       1.951   1.114  -3.825  0.00  0.00    +0.049 A 
ATOM     18  C   UNL     1       1.283   1.526  -2.688  0.00  0.00    +0.008 A 
ATOM     19  C   UNL     1      -0.028   1.140  -2.474  0.00  0.00    -0.040 A 
ATOM     20  C   UNL     1      -0.673   0.336  -3.395  0.00  0.00    +0.053 A 
ATOM     21  C   UNL     1      -0.010  -0.077  -4.540  0.00  0.00    +0.162 A 
BRANCH  16  23
ATOM     22  C   UNL     1       3.316   0.343  -6.029  0.00  0.00    +0.277 C 
ATOM     23  O   UNL     1       1.965  -0.095  -5.874  0.00  0.00    -0.491 OA
ENDBRANCH  16  23
BRANCH  21  24
ATOM     24  O   UNL     1      -0.646  -0.864  -5.449  0.00  0.00    -0.491 OA
ATOM     25  C   UNL     1      -1.999  -1.224  -5.162  0.00  0.00    +0.277 C 
ENDBRANCH  21  24
ENDBRANCH   1  19
BRANCH   5  26
ATOM     26  C   UNL     1      -1.255   4.401   3.091  0.00  0.00    -0.015 A 
ATOM     27  C   UNL     1       0.041   4.168   3.514  0.00  0.00    +0.006 A 
ATOM     28  C   UNL     1       0.790   5.197   4.054  0.00  0.00    +0.004 A 
ATOM     29  C   UNL     1       0.241   6.459   4.181  0.00  0.00    +0.045 A 
ATOM     30  C   UNL     1      -1.060   6.694   3.763  0.00  0.00    +0.117 A 
ATOM     31  C   UNL     1      -1.808   5.661   3.216  0.00  0.00    +0.051 A 
BRANCH  30  32
ATOM     32  O   UNL     1      -1.601   7.934   3.886  0.00  0.00    -0.507 OA
ATOM     33  H   UNL     1      -2.055   8.083   4.727  0.00  0.00    +0.292 HD
ENDBRANCH  30  32
ENDBRANCH   5  26
TORSDOF 5
