REMARK  Name = ZINC20611968
REMARK  11 active torsions:
REMARK  status: ('A' for Active; 'I' for Inactive)
REMARK    1  A    between atoms: C_1  and  C_2
REMARK    2  A    between atoms: C_4  and  C_40
REMARK    3  A    between atoms: C_13  and  C_16
REMARK    4  A    between atoms: C_16  and  C_17
REMARK    5  A    between atoms: N_22  and  C_25
REMARK    6  A    between atoms: C_25  and  C_26
REMARK    7  A    between atoms: C_26  and  C_27
REMARK    8  A    between atoms: C_30  and  O_35
REMARK    9  A    between atoms: C_31  and  O_33
REMARK   10  A    between atoms: O_33  and  C_34
REMARK   11  A    between atoms: O_35  and  C_36
REMARK                            x       y       z     vdW  Elec       q    Type
REMARK                         _______ _______ _______ _____ _____    ______ ____
ROOT
ATOM      1  C   UNL     1      -0.018   1.503   0.010  0.00  0.00    +0.044 C 
ATOM      2  C   UNL     1       0.002  -0.004   0.002  0.00  0.00    -0.050 A 
ATOM      3  C   UNL     1       0.006  -0.691  -1.198  0.00  0.00    +0.008 A 
ATOM      4  C   UNL     1       0.025  -2.070  -1.212  0.00  0.00    -0.029 A 
ATOM      5  C   UNL     1       0.040  -2.783  -0.015  0.00  0.00    +0.042 A 
ATOM      6  C   UNL     1       0.036  -2.081   1.186  0.00  0.00    +0.004 A 
ATOM      7  C   UNL     1       0.023  -0.704   1.195  0.00  0.00    +0.011 A 
ATOM      8  C   UNL     1       0.057  -3.122   2.269  0.00  0.00    +0.136 C 
ATOM      9  C   UNL     1      -1.166  -3.001   3.188  0.00  0.00    +0.122 C 
ATOM     10  C   UNL     1      -0.631  -3.366   4.601  0.00  0.00    +0.107 C 
ATOM     11  C   UNL     1       0.859  -3.705   4.386  0.00  0.00    +0.076 C 
ATOM     12  N   UNL     1       1.236  -2.970   3.142  0.00  0.00    -0.295 NA
ATOM     13  C   UNL     1      -0.759  -2.069   5.368  0.00  0.00    +0.227 C 
ATOM     14  O   UNL     1      -0.437  -1.905   6.525  0.00  0.00    -0.275 OA
ATOM     15  N   UNL     1      -1.282  -1.131   4.571  0.00  0.00    -0.241 N 
ATOM     16  C   UNL     1      -1.563  -1.547   3.314  0.00  0.00    +0.228 C 
ATOM     17  O   UNL     1      -2.048  -0.875   2.430  0.00  0.00    -0.275 OA
ATOM     18  C   UNL     1       0.073  -4.440   1.545  0.00  0.00    +0.243 C 
ATOM     19  O   UNL     1       0.093  -5.543   2.049  0.00  0.00    -0.273 OA
ATOM     20  N   UNL     1       0.061  -4.157   0.228  0.00  0.00    -0.283 N 
ATOM     21  C   UNL     1       0.028  -2.808  -2.526  0.00  0.00    +0.045 C 
ATOM     22  H   UNL     1       2.054  -3.381   2.718  0.00  0.00    +0.124 HD
ATOM     23  H   UNL     1       0.066  -4.831  -0.470  0.00  0.00    +0.155 HD
ENDROOT
BRANCH  11  24
ATOM     24  C   UNL     1       1.696  -3.197   5.562  0.00  0.00    +0.115 C 
BRANCH  24  25
ATOM     25  C   UNL     1       3.125  -3.644   5.393  0.00  0.00    +0.212 C 
ATOM     26  O   UNL     1       3.443  -4.304   4.426  0.00  0.00    -0.276 OA
ATOM     27  N   UNL     1       4.049  -3.310   6.315  0.00  0.00    -0.329 N 
ATOM     28  H   UNL     1       3.794  -2.782   7.088  0.00  0.00    +0.145 HD
ATOM     29  H   UNL     1       4.969  -3.598   6.206  0.00  0.00    +0.145 HD
ENDBRANCH  24  25
ENDBRANCH  11  24
BRANCH  15  30
ATOM     30  C   UNL     1      -1.540   0.239   5.022  0.00  0.00    +0.121 C 
BRANCH  30  31
ATOM     31  C   UNL     1      -0.303   1.102   4.762  0.00  0.00    +0.054 C 
BRANCH  31  32
ATOM     32  C   UNL     1      -0.568   2.511   5.227  0.00  0.00    -0.042 A 
ATOM     33  C   UNL     1      -1.117   3.433   4.355  0.00  0.00    +0.007 A 
ATOM     34  C   UNL     1      -1.361   4.727   4.776  0.00  0.00    +0.049 A 
ATOM     35  C   UNL     1      -1.056   5.102   6.075  0.00  0.00    +0.161 A 
ATOM     36  C   UNL     1      -0.504   4.174   6.952  0.00  0.00    +0.162 A 
ATOM     37  C   UNL     1      -0.266   2.877   6.525  0.00  0.00    +0.053 A 
BRANCH  36  38
ATOM     38  O   UNL     1      -0.203   4.537   8.228  0.00  0.00    -0.491 OA
ATOM     39  C   UNL     1       0.362   3.532   9.072  0.00  0.00    +0.277 C 
ENDBRANCH  36  38
BRANCH  35  40
ATOM     40  O   UNL     1      -1.296   6.374   6.491  0.00  0.00    -0.491 OA
ATOM     41  C   UNL     1      -1.864   7.273   5.536  0.00  0.00    +0.277 C 
ENDBRANCH  35  40
ENDBRANCH  31  32
ENDBRANCH  30  31
ENDBRANCH  15  30
TORSDOF 7
