REMARK  Name = ZINC19961512
REMARK  2 active torsions:
REMARK  status: ('A' for Active; 'I' for Inactive)
REMARK    1  A    between atoms: C_10  and  C_11
REMARK    2  A    between atoms: C_24  and  C_26
REMARK                            x       y       z     vdW  Elec       q    Type
REMARK                         _______ _______ _______ _____ _____    ______ ____
ROOT
ATOM      1  C   UNL     1       2.396  -0.016  -0.652  0.00  0.00    +0.084 C 
ATOM      2  C   UNL     1       2.093   1.403  -0.253  0.00  0.00    +0.066 A 
ATOM      3  C   UNL     1       3.110   2.363  -0.225  0.00  0.00    +0.258 A 
ATOM      4  O   UNL     1       4.257   2.065  -0.516  0.00  0.00    -0.267 OA
ATOM      5  N   UNL     1       2.796   3.628   0.131  0.00  0.00    -0.295 N 
ATOM      6  H   UNL     1       3.579   4.399   0.168  0.00  0.00    +0.172 HD
ATOM      7  C   UNL     1       1.511   3.948   0.443  0.00  0.00    +0.200 A 
ATOM      8  N   UNL     1       0.552   3.047   0.421  0.00  0.00    -0.200 NA
ATOM      9  C   UNL     1       0.806   1.775   0.090  0.00  0.00    +0.138 A 
ATOM     10  N   UNL     1      -0.213   0.838   0.096  0.00  0.00    -0.269 N 
ATOM     11  C   UNL     1       0.059  -0.477   0.046  0.00  0.00    +0.236 C 
ATOM     12  O   UNL     1      -0.849  -1.274  -0.056  0.00  0.00    -0.274 OA
ATOM     13  C   UNL     1       1.481  -0.971   0.115  0.00  0.00    +0.189 C 
ATOM     14  N   UNL     1       1.208   5.238   0.789  0.00  0.00    -0.301 N 
ATOM     15  C   UNL     1       1.367   6.152  -0.372  0.00  0.00    +0.108 C 
ATOM     16  C   UNL     1       0.513   7.382   0.026  0.00  0.00    +0.020 C 
ATOM     17  C   UNL     1      -0.696   6.744   0.749  0.00  0.00    +0.020 C 
ATOM     18  C   UNL     1      -0.206   5.358   1.206  0.00  0.00    +0.108 C 
ATOM     19  H   UNL     1      -1.262   1.166   0.142  0.00  0.00    +0.156 HD
ENDROOT
BRANCH   1  29
ATOM     20  C   UNL     1       5.163  -1.709  -4.612  0.00  0.00    +0.001 A 
ATOM     21  C   UNL     1       5.394  -1.563  -3.245  0.00  0.00    +0.001 A 
ATOM     22  C   UNL     1       4.432  -1.068  -2.421  0.00  0.00    +0.009 A 
ATOM     23  C   UNL     1       3.187  -0.691  -2.953  0.00  0.00    -0.014 A 
ATOM     24  C   UNL     1       2.950  -0.844  -4.342  0.00  0.00    -0.018 A 
ATOM     25  C   UNL     1       3.969  -1.359  -5.162  0.00  0.00    +0.008 A 
ATOM     26  C   UNL     1       1.704  -0.472  -4.874  0.00  0.00    +0.008 A 
ATOM     27  C   UNL     1       0.741   0.024  -4.049  0.00  0.00    +0.001 A 
ATOM     28  C   UNL     1       0.972   0.169  -2.683  0.00  0.00    +0.005 A 
ATOM     29  C   UNL     1       2.167  -0.181  -2.132  0.00  0.00    -0.030 A 
ENDBRANCH   1  29
BRANCH  13  30
ATOM     30  C   UNL     1       1.562  -2.314  -0.483  0.00  0.00    +0.076 C 
ATOM     31  N   UNL     1       1.625  -3.350  -0.945  0.00  0.00    -0.196 NA
ENDBRANCH  13  30
TORSDOF 2
