REMARK  Name = ZINC67645557
REMARK  8 active torsions:
REMARK  status: ('A' for Active; 'I' for Inactive)
REMARK    1  A    between atoms: C_3  and  N_27
REMARK    2  A    between atoms: C_6  and  N_7
REMARK    3  A    between atoms: N_7  and  C_8
REMARK    4  A    between atoms: C_8  and  C_9
REMARK    5  A    between atoms: C_9  and  N_10
REMARK    6  A    between atoms: N_13  and  C_14
REMARK    7  A    between atoms: C_14  and  C_15
REMARK    8  A    between atoms: C_18  and  N_22
REMARK                            x       y       z     vdW  Elec       q    Type
REMARK                         _______ _______ _______ _____ _____    ______ ____
ROOT
ATOM      1  N   UNL     1      -2.588  -4.181   0.005  0.00  0.00    -0.298 N 
ATOM      2  C   UNL     1      -3.745  -4.873   0.013  0.00  0.00    +0.300 C 
ATOM      3  O   UNL     1      -4.807  -4.280   0.027  0.00  0.00    -0.253 OA
ATOM      4  N   UNL     1      -3.725  -6.220   0.006  0.00  0.00    -0.295 N 
ATOM      5  H   UNL     1      -1.741  -4.654  -0.006  0.00  0.00    +0.150 HD
ATOM      6  H   UNL     1      -2.878  -6.693  -0.005  0.00  0.00    +0.151 HD
ENDROOT
BRANCH   1   7
ATOM      7  C   UNL     1      -2.610  -2.717   0.013  0.00  0.00    +0.124 C 
BRANCH   7   8
ATOM      8  C   UNL     1      -1.175  -2.185   0.002  0.00  0.00    +0.120 C 
BRANCH   8   9
ATOM      9  N   UNL     1      -1.197  -0.720   0.010  0.00  0.00    -0.342 N 
ATOM     10  H   UNL     1      -2.044  -0.248   0.021  0.00  0.00    +0.146 HD
BRANCH   9  16
ATOM     11  C   UNL     1      -0.017   1.385   0.010  0.00  0.00    +0.025 A 
ATOM     12  C   UNL     1       1.171   2.090   0.002  0.00  0.00    +0.034 A 
ATOM     13  C   UNL     1       2.377   1.415  -0.013  0.00  0.00    +0.126 A 
ATOM     14  C   UNL     1       2.400   0.032  -0.022  0.00  0.00    +0.034 A 
ATOM     15  C   UNL     1       1.216  -0.679  -0.014  0.00  0.00    +0.025 A 
ATOM     16  C   UNL     1       0.002  -0.004   0.002  0.00  0.00    +0.027 A 
BRANCH  13  17
ATOM     17  N   UNL     1       3.648   2.174  -0.022  0.00  0.00    +0.056 N 
ATOM     18  O   UNL     1       3.630   3.383  -0.015  0.00  0.00    -0.126 OA
ATOM     19  O   UNL     1       4.704   1.585  -0.036  0.00  0.00    -0.126 OA
ENDBRANCH  13  17
ENDBRANCH   9  16
ENDBRANCH   8   9
ENDBRANCH   7   8
ENDBRANCH   1   7
BRANCH   4  20
ATOM     20  C   UNL     1      -4.983  -6.972   0.014  0.00  0.00    +0.141 C 
BRANCH  20  21
ATOM     21  C   UNL     1      -4.685  -8.449   0.003  0.00  0.00    -0.027 A 
ATOM     22  C   UNL     1      -4.556  -9.118  -1.200  0.00  0.00    +0.007 A 
ATOM     23  C   UNL     1      -4.283 -10.472  -1.215  0.00  0.00    +0.029 A 
ATOM     24  C   UNL     1      -4.139 -11.163  -0.020  0.00  0.00    +0.083 A 
ATOM     25  C   UNL     1      -4.270 -10.489   1.189  0.00  0.00    +0.147 A 
ATOM     26  C   UNL     1      -4.537  -9.132   1.196  0.00  0.00    +0.045 A 
ATOM     27  F   UNL     1      -4.131 -11.157   2.355  0.00  0.00    -0.203 F 
BRANCH  24  28
ATOM     28  N   UNL     1      -3.863 -12.538  -0.031  0.00  0.00    -0.303 N 
ATOM     29  C   UNL     1      -2.874 -13.177   0.671  0.00  0.00    +0.112 A 
ATOM     30  C   UNL     1      -2.965 -14.486   0.370  0.00  0.00    +0.130 A 
ATOM     31  N   UNL     1      -3.979 -14.648  -0.492  0.00  0.00    -0.244 NA
ATOM     32  C   UNL     1      -4.528 -13.489  -0.736  0.00  0.00    +0.204 A 
ENDBRANCH  24  28
ENDBRANCH  20  21
ENDBRANCH   4  20
TORSDOF 8
