REMARK  Name = ZINC39671810
REMARK  8 active torsions:
REMARK  status: ('A' for Active; 'I' for Inactive)
REMARK    1  A    between atoms: C_1  and  C_2
REMARK    2  A    between atoms: C_4  and  C_33
REMARK    3  A    between atoms: N_5  and  C_7
REMARK    4  A    between atoms: C_7  and  C_8
REMARK    5  A    between atoms: C_8  and  C_9
REMARK    6  A    between atoms: C_9  and  N_10
REMARK    7  A    between atoms: C_11  and  C_13
REMARK    8  A    between atoms: C_24  and  C_26
REMARK                            x       y       z     vdW  Elec       q    Type
REMARK                         _______ _______ _______ _____ _____    ______ ____
ROOT
ATOM      1  C   UNL     1       5.317  -6.215   4.405  0.00  0.00    +0.100 C 
ATOM      2  C   UNL     1       5.536  -6.989   3.086  0.00  0.00    +0.121 C 
ATOM      3  N   UNL     1       6.389  -8.140   3.464  0.00  0.00    -0.300 N 
ATOM      4  C   UNL     1       5.862  -8.572   4.781  0.00  0.00    +0.115 C 
ATOM      5  C   UNL     1       5.531  -7.258   5.515  0.00  0.00    -0.004 C 
ATOM      6  C   UNL     1       4.258  -7.420   6.340  0.00  0.00    -0.010 C 
ATOM      7  C   UNL     1       4.514  -8.419   7.473  0.00  0.00    -0.082 C 
ATOM      8  N   UNL     1       5.610  -7.931   8.319  0.00  0.00    +0.379 N 
ATOM      9  C   UNL     1       6.853  -7.867   7.540  0.00  0.00    -0.082 C 
ATOM     10  C   UNL     1       6.696  -6.845   6.410  0.00  0.00    -0.010 C 
ATOM     11  C   UNL     1       7.412  -8.674   2.768  0.00  0.00    +0.219 C 
ATOM     12  O   UNL     1       7.778  -8.155   1.735  0.00  0.00    -0.275 OA
ATOM     13  H   UNL     1       5.383  -7.011   8.665  0.00  0.00    -0.086 HD
ATOM     14  H   UNL     1       5.736  -8.559   9.099  0.00  0.00    -0.086 HD
ENDROOT
BRANCH  11  15
ATOM     15  C   UNL     1       8.102  -9.914   3.275  0.00  0.00    +0.079 C 
ATOM     16  C   UNL     1       9.537  -9.963   2.734  0.00  0.00    +0.017 C 
ATOM     17  C   UNL     1      10.267 -11.130   3.403  0.00  0.00    +0.027 C 
ATOM     18  C   UNL     1       9.437 -12.377   3.316  0.00  0.00    -0.031 C 
ATOM     19  C   UNL     1       8.170 -12.388   3.050  0.00  0.00    -0.030 C 
ATOM     20  C   UNL     1       7.353 -11.155   2.786  0.00  0.00    +0.039 C 
ENDBRANCH  11  15
BRANCH   1  22
ATOM     21  N   UNL     1       3.659  -4.549   5.176  0.00  0.00    -0.315 N 
ATOM     22  C   UNL     1       3.915  -5.665   4.465  0.00  0.00    +0.218 C 
ATOM     23  O   UNL     1       3.018  -6.228   3.874  0.00  0.00    -0.275 OA
ATOM     24  H   UNL     1       4.377  -4.100   5.649  0.00  0.00    +0.149 HD
BRANCH  21  25
ATOM     25  C   UNL     1       2.296  -4.015   5.234  0.00  0.00    +0.106 C 
BRANCH  25  26
ATOM     26  C   UNL     1       2.279  -2.753   6.099  0.00  0.00    +0.042 C 
BRANCH  26  27
ATOM     27  C   UNL     1       0.856  -2.195   6.160  0.00  0.00    +0.145 C 
BRANCH  27  32
ATOM     28  C   UNL     1       0.506   0.816  10.161  0.00  0.00    +0.067 C 
ATOM     29  C   UNL     1       0.683   0.311   8.752  0.00  0.00    +0.060 A 
ATOM     30  C   UNL     1       0.940   1.099   7.625  0.00  0.00    +0.047 A 
ATOM     31  C   UNL     1       1.032   0.276   6.554  0.00  0.00    +0.036 A 
ATOM     32  N   UNL     1       0.840  -0.987   6.989  0.00  0.00    -0.268 N 
ATOM     33  N   UNL     1       0.628  -0.940   8.372  0.00  0.00    -0.176 NA
ATOM     34  C   UNL     1       1.301   0.695   5.132  0.00  0.00    +0.065 C 
ENDBRANCH  27  32
ENDBRANCH  26  27
ENDBRANCH  25  26
ENDBRANCH  21  25
ENDBRANCH   1  22
TORSDOF 6
