REMARK  Name = ZINC36538474
REMARK  12 active torsions:
REMARK  status: ('A' for Active; 'I' for Inactive)
REMARK    1  A    between atoms: C_1  and  C_2
REMARK    2  A    between atoms: C_2  and  C_3
REMARK    3  A    between atoms: C_3  and  C_4
REMARK    4  A    between atoms: C_4  and  N_5
REMARK    5  A    between atoms: C_6  and  C_8
REMARK    6  A    between atoms: C_8  and  C_10
REMARK    7  A    between atoms: C_8  and  N_19
REMARK    8  A    between atoms: C_11  and  O_18
REMARK    9  A    between atoms: C_13  and  O_17
REMARK   10  A    between atoms: C_15  and  O_16
REMARK   11  A    between atoms: N_19  and  C_20
REMARK   12  A    between atoms: C_21  and  C_23
REMARK                            x       y       z     vdW  Elec       q    Type
REMARK                         _______ _______ _______ _____ _____    ______ ____
ROOT
ATOM      1  C   UNL     1       1.844  -4.514  -3.780  0.00  0.00    +0.199 C 
ENDROOT
BRANCH   1   2
ATOM      2  C   UNL     1       3.046  -3.641  -3.524  0.00  0.00    +0.065 A 
ATOM      3  C   UNL     1       4.031  -3.516  -4.491  0.00  0.00    +0.129 A 
ATOM      4  C   UNL     1       5.136  -2.712  -4.255  0.00  0.00    +0.091 A 
ATOM      5  C   UNL     1       5.256  -2.033  -3.052  0.00  0.00    +0.124 A 
ATOM      6  C   UNL     1       4.270  -2.158  -2.085  0.00  0.00    +0.091 A 
ATOM      7  C   UNL     1       3.163  -2.958  -2.322  0.00  0.00    +0.129 A 
BRANCH   7   8
ATOM      8  O   UNL     1       2.194  -3.077  -1.377  0.00  0.00    -0.506 OA
ATOM      9  H   UNL     1       2.340  -3.801  -0.752  0.00  0.00    +0.292 HD
ENDBRANCH   7   8
BRANCH   5  10
ATOM     10  O   UNL     1       6.339  -1.247  -2.820  0.00  0.00    -0.507 OA
ATOM     11  H   UNL     1       6.226  -0.328  -3.100  0.00  0.00    +0.292 HD
ENDBRANCH   5  10
BRANCH   3  12
ATOM     12  O   UNL     1       3.914  -4.181  -5.671  0.00  0.00    -0.506 OA
ATOM     13  H   UNL     1       3.387  -3.715  -6.334  0.00  0.00    +0.292 HD
ENDBRANCH   3  12
ENDBRANCH   1   2
BRANCH   1  15
ATOM     14  N   UNL     1      -0.011  -2.938  -3.344  0.00  0.00    -0.313 N 
ATOM     15  C   UNL     1       0.682  -4.026  -2.954  0.00  0.00    +0.238 C 
ATOM     16  O   UNL     1       0.372  -4.611  -1.939  0.00  0.00    -0.273 OA
ATOM     17  H   UNL     1       0.237  -2.470  -4.157  0.00  0.00    +0.149 HD
BRANCH  14  18
ATOM     18  C   UNL     1      -1.141  -2.463  -2.541  0.00  0.00    +0.104 C 
BRANCH  18  19
ATOM     19  C   UNL     1      -1.750  -1.224  -3.200  0.00  0.00    +0.018 C 
BRANCH  19  21
ATOM     20  C   UNL     1      -3.538   0.512  -3.021  0.00  0.00    +0.004 C 
ATOM     21  C   UNL     1      -2.929  -0.728  -2.362  0.00  0.00    -0.002 C 
ENDBRANCH  19  21
ENDBRANCH  18  19
ENDBRANCH  14  18
ENDBRANCH   1  15
BRANCH   1  22
ATOM     22  N   UNL     1       2.158  -5.897  -3.412  0.00  0.00    -0.285 N 
ATOM     23  C   UNL     1       2.472  -6.231  -2.021  0.00  0.00    +0.133 C 
ATOM     24  C   UNL     1       2.158  -6.862  -4.353  0.00  0.00    +0.249 C 
ATOM     25  O   UNL     1       2.018  -6.568  -5.524  0.00  0.00    -0.270 OA
BRANCH  24  26
ATOM     26  C   UNL     1       2.329  -8.277  -3.961  0.00  0.00    +0.055 A 
ATOM     27  C   UNL     1       2.545  -8.623  -2.622  0.00  0.00    +0.016 A 
ATOM     28  C   UNL     1       2.697  -9.962  -2.307  0.00  0.00    +0.020 A 
ATOM     29  C   UNL     1       2.633 -10.906  -3.316  0.00  0.00    +0.111 A 
ATOM     30  N   UNL     1       2.428 -10.550  -4.570  0.00  0.00    -0.263 NA
ATOM     31  C   UNL     1       2.271  -9.290  -4.918  0.00  0.00    +0.123 A 
ENDBRANCH  24  26
ENDBRANCH   1  22
TORSDOF 10
