REMARK  Name = ZINC04038546
REMARK  2 active torsions:
REMARK  status: ('A' for Active; 'I' for Inactive)
REMARK    1  A    between atoms: C_6  and  C_7
REMARK    2  A    between atoms: C_10  and  C_16
REMARK                            x       y       z     vdW  Elec       q    Type
REMARK                         _______ _______ _______ _____ _____    ______ ____
ROOT
ATOM      1  C   UNL     1      -1.263  -0.762   0.011  0.00  0.00    +0.079 C 
ATOM      2  N   UNL     1      -2.348  -0.075   0.020  0.00  0.00    -0.166 NA
ATOM      3  N   UNL     1      -3.623  -0.628   0.071  0.00  0.00    -0.185 N 
ATOM      4  C   UNL     1      -4.851  -0.111  -0.226  0.00  0.00    +0.206 A 
ATOM      5  N   UNL     1      -5.736  -1.059   0.012  0.00  0.00    -0.125 NA
ATOM      6  N   UNL     1      -5.143  -2.128   0.431  0.00  0.00    -0.120 NA
ATOM      7  C   UNL     1      -3.865  -1.924   0.481  0.00  0.00    +0.213 A 
ATOM      8  S   UNL     1      -2.534  -2.984   0.951  0.00  0.00    -0.078 S 
ATOM      9  C   UNL     1      -1.154  -2.259   0.001  0.00  0.00    +0.135 C 
ENDROOT
BRANCH   4  10
ATOM     10  C   UNL     1      -5.135   1.253  -0.720  0.00  0.00    +0.135 A 
ATOM     11  C   UNL     1      -6.412   1.780  -1.020  0.00  0.00    +0.004 A 
ATOM     12  C   UNL     1      -6.246   3.051  -1.440  0.00  0.00    +0.040 A 
ATOM     13  N   UNL     1      -4.921   3.330  -1.412  0.00  0.00    -0.281 N 
ATOM     14  H   UNL     1      -4.513   4.173  -1.663  0.00  0.00    +0.189 HD
ATOM     15  N   UNL     1      -4.244   2.194  -0.954  0.00  0.00    -0.170 NA
ATOM     16  C   UNL     1      -7.584   3.672  -1.777  0.00  0.00    +0.055 C 
ATOM     17  C   UNL     1      -8.554   2.478  -1.918  0.00  0.00    +0.011 C 
ATOM     18  C   UNL     1      -7.880   1.411  -1.029  0.00  0.00    +0.039 C 
ENDBRANCH   4  10
BRANCH   1  24
ATOM     19  C   UNL     1      -0.017   1.393   0.010  0.00  0.00    +0.011 A 
ATOM     20  C   UNL     1       1.170   2.095   0.002  0.00  0.00    +0.020 A 
ATOM     21  C   UNL     1       2.378   1.419  -0.013  0.00  0.00    +0.041 A 
ATOM     22  C   UNL     1       2.404   0.035  -0.021  0.00  0.00    +0.020 A 
ATOM     23  C   UNL     1       1.225  -0.680  -0.014  0.00  0.00    +0.011 A 
ATOM     24  C   UNL     1       0.002  -0.004   0.002  0.00  0.00    -0.001 A 
ATOM     25 CL   UNL     1       3.868   2.311  -0.022  0.00  0.00    -0.084 Cl
ENDBRANCH   1  24
TORSDOF 2
