REMARK  Name = ZINC53072773
REMARK  3 active torsions:
REMARK  status: ('A' for Active; 'I' for Inactive)
REMARK    1  A    between atoms: C_4  and  C_6
REMARK    2  A    between atoms: C_4  and  N_8
REMARK    3  A    between atoms: C_6  and  O_7
REMARK                            x       y       z     vdW  Elec       q    Type
REMARK                         _______ _______ _______ _____ _____    ______ ____
ROOT
ATOM      1  C   UNL     1       0.315   1.757  -0.138  0.00  0.00    +0.002 C 
ATOM      2  C   UNL     1       1.846   1.941  -0.133  0.00  0.00    +0.002 C 
ATOM      3  C   UNL     1       2.380   0.662   0.558  0.00  0.00    +0.028 C 
ATOM      4  C   UNL     1       1.435  -0.439   0.016  0.00  0.00    +0.056 C 
ATOM      5  C   UNL     1       0.053   0.244  -0.044  0.00  0.00    +0.028 C 
ENDROOT
BRANCH   4   6
ATOM      6  N   UNL     1       1.856  -0.862  -1.322  0.00  0.00    -0.318 N 
ATOM      7  C   UNL     1       3.120  -1.433  -1.510  0.00  0.00    +0.167 A 
ATOM      8  C   UNL     1       3.600  -1.780  -2.761  0.00  0.00    +0.179 A 
ATOM      9  N   UNL     1       4.799  -2.306  -2.802  0.00  0.00    -0.177 NA
ATOM     10  S   UNL     1       5.279  -2.345  -1.259  0.00  0.00    +0.119 S 
ATOM     11  N   UNL     1       3.943  -1.674  -0.509  0.00  0.00    -0.174 NA
ATOM     12 CL   UNL     1       2.661  -1.531  -4.200  0.00  0.00    -0.058 Cl
ATOM     13  H   UNL     1       1.259  -0.747  -2.078  0.00  0.00    +0.148 HD
ENDBRANCH   4   6
BRANCH   4  14
ATOM     14  C   UNL     1       1.402  -1.634   0.971  0.00  0.00    +0.181 C 
BRANCH  14  15
ATOM     15  O   UNL     1       0.622  -2.683   0.394  0.00  0.00    -0.393 OA
ATOM     16  H   UNL     1       0.557  -3.474   0.946  0.00  0.00    +0.209 HD
ENDBRANCH  14  15
ENDBRANCH   4  14
TORSDOF 3
