REMARK  Name = ZINC62870183
REMARK  4 active torsions:
REMARK  status: ('A' for Active; 'I' for Inactive)
REMARK    1  A    between atoms: C_1  and  C_2
REMARK    2  A    between atoms: C_2  and  C_18
REMARK    3  A    between atoms: C_8  and  C_10
REMARK    4  A    between atoms: C_10  and  N_11
REMARK                            x       y       z     vdW  Elec       q    Type
REMARK                         _______ _______ _______ _____ _____    ______ ____
ROOT
ATOM      1  C   UNL     1      -0.019   1.526   0.010  0.00  0.00    +0.024 C 
ATOM      2  C   UNL     1       0.002  -0.004   0.002  0.00  0.00    +0.085 C 
ATOM      3  C   UNL     1      -1.433  -0.534   0.017  0.00  0.00    +0.021 C 
ATOM      4  C   UNL     1      -2.159  -0.013   1.260  0.00  0.00    +0.020 C 
ATOM      5  C   UNL     1      -1.442  -0.521   2.515  0.00  0.00    +0.108 C 
ATOM      6  N   UNL     1      -0.026  -0.139   2.438  0.00  0.00    -0.302 N 
ATOM      7  C   UNL     1       0.743  -0.512   1.243  0.00  0.00    +0.125 C 
ATOM      8  C   UNL     1       0.557   0.541   3.445  0.00  0.00    +0.199 C 
ATOM      9  O   UNL     1       1.728   0.850   3.370  0.00  0.00    -0.278 OA
ENDROOT
BRANCH   2  10
ATOM     10  C   UNL     1       0.706  -0.491  -1.238  0.00  0.00    +0.363 C 
ATOM     11  O   UNL     1       1.150   0.312  -2.042  0.00  0.00    -0.246 OA
ATOM     12  O   UNL     1       0.831  -1.687  -1.439  0.00  0.00    -0.246 OA
ENDBRANCH   2  10
BRANCH   8  13
ATOM     13  C   UNL     1      -0.244   0.916   4.665  0.00  0.00    +0.019 C 
BRANCH  13  14
ATOM     14  N   UNL     1       0.612   1.646   5.609  0.00  0.00    +0.386 N 
ATOM     15  C   UNL     1      -0.126   1.835   6.876  0.00  0.00    -0.077 C 
ATOM     16  C   UNL     1       0.867   2.084   7.983  0.00  0.00    -0.003 C 
ATOM     17  C   UNL     1       1.110   3.586   8.211  0.00  0.00    +0.079 C 
ATOM     18  N   UNL     1       1.208   4.338   6.939  0.00  0.00    -0.318 NA
ATOM     19  C   UNL     1       1.969   3.653   5.919  0.00  0.00    +0.062 C 
ATOM     20  C   UNL     1       1.000   2.856   5.025  0.00  0.00    -0.063 C 
ATOM     21  H   UNL     1       0.293   4.593   6.598  0.00  0.00    +0.122 HD
ATOM     22  H   UNL     1       1.437   1.094   5.793  0.00  0.00    -0.081 HD
ENDBRANCH  13  14
ENDBRANCH   8  13
TORSDOF 3
