REMARK  Name = ZINC55647522
REMARK  7 active torsions:
REMARK  status: ('A' for Active; 'I' for Inactive)
REMARK    1  A    between atoms: C_1  and  C_2
REMARK    2  A    between atoms: C_5  and  C_9
REMARK    3  A    between atoms: C_6  and  O_8
REMARK    4  A    between atoms: N_11  and  N_12
REMARK    5  A    between atoms: N_12  and  S_13
REMARK    6  A    between atoms: S_13  and  C_16
REMARK    7  A    between atoms: C_19  and  C_23
REMARK                            x       y       z     vdW  Elec       q    Type
REMARK                         _______ _______ _______ _____ _____    ______ ____
ROOT
ATOM      1  C   UNL     1       0.059  -4.252  -0.036  0.00  0.00    +0.262 C 
ATOM      2  O   UNL     1       0.072  -4.870   1.011  0.00  0.00    -0.269 OA
ATOM      3  N   UNL     1       0.062  -4.915  -1.209  0.00  0.00    -0.228 N 
ATOM      4  H   UNL     1       0.051  -4.423  -2.045  0.00  0.00    +0.171 HD
ENDROOT
BRANCH   1   9
ATOM      5  C   UNL     1      -0.018   1.503   0.010  0.00  0.00    +0.044 C 
ATOM      6  C   UNL     1       0.002  -0.004   0.002  0.00  0.00    -0.047 A 
ATOM      7  C   UNL     1       0.006  -0.686  -1.204  0.00  0.00    +0.004 A 
ATOM      8  C   UNL     1       0.024  -2.064  -1.224  0.00  0.00    +0.017 A 
ATOM      9  C   UNL     1       0.040  -2.777  -0.022  0.00  0.00    +0.079 A 
ATOM     10  C   UNL     1       0.036  -2.084   1.195  0.00  0.00    +0.129 A 
ATOM     11  C   UNL     1       0.023  -0.697   1.196  0.00  0.00    +0.049 A 
BRANCH  10  12
ATOM     12  O   UNL     1       0.050  -2.766   2.368  0.00  0.00    -0.506 OA
ATOM     13  H   UNL     1       0.938  -2.952   2.704  0.00  0.00    +0.292 HD
ENDBRANCH  10  12
ENDBRANCH   1   9
BRANCH   3  14
ATOM     14  N   UNL     1       0.081  -6.316  -1.222  0.00  0.00    -0.108 NA
ATOM     15  H   UNL     1       0.778  -6.797  -0.748  0.00  0.00    +0.172 HD
BRANCH  14  16
ATOM     16  S   UNL     1      -1.087  -7.152  -2.047  0.00  0.00    +0.074 S 
ATOM     17  O   UNL     1      -0.719  -8.524  -1.994  0.00  0.00    -0.152 OA
ATOM     18  O   UNL     1      -2.339  -6.681  -1.567  0.00  0.00    -0.152 OA
BRANCH  16  19
ATOM     19  C   UNL     1      -0.980  -6.667  -3.737  0.00  0.00    +0.108 A 
ATOM     20  C   UNL     1      -1.713  -5.587  -4.194  0.00  0.00    +0.029 A 
ATOM     21  C   UNL     1      -1.629  -5.206  -5.520  0.00  0.00    +0.007 A 
ATOM     22  C   UNL     1      -0.814  -5.904  -6.390  0.00  0.00    -0.032 A 
ATOM     23  C   UNL     1      -0.080  -6.985  -5.934  0.00  0.00    +0.046 A 
ATOM     24  C   UNL     1      -0.160  -7.362  -4.605  0.00  0.00    +0.048 A 
ATOM     25 CL   UNL     1       0.945  -7.862  -7.026  0.00  0.00    -0.083 Cl
ATOM     26  C   UNL     1      -0.723  -5.489  -7.836  0.00  0.00    +0.045 C 
ENDBRANCH  16  19
ENDBRANCH  14  16
ENDBRANCH   3  14
TORSDOF 5
