REMARK  Name = ZINC39931852
REMARK  8 active torsions:
REMARK  status: ('A' for Active; 'I' for Inactive)
REMARK    1  A    between atoms: C_1  and  C_2
REMARK    2  A    between atoms: C_4  and  C_28
REMARK    3  A    between atoms: C_8  and  N_12
REMARK    4  A    between atoms: N_12  and  N_13
REMARK    5  A    between atoms: N_13  and  C_14
REMARK    6  A    between atoms: C_15  and  C_27
REMARK    7  A    between atoms: N_17  and  C_21
REMARK    8  A    between atoms: C_18  and  C_20
REMARK                            x       y       z     vdW  Elec       q    Type
REMARK                         _______ _______ _______ _____ _____    ______ ____
ROOT
ATOM      1  N   UNL     1      -2.375  -0.408   2.737  0.00  0.00    -0.352 NA
ATOM      2  H   UNL     1      -2.415  -0.634   1.755  0.00  0.00    +0.141 HD
ATOM      3  H   UNL     1      -2.344  -1.260   3.277  0.00  0.00    +0.141 HD
ENDROOT
BRANCH   1   4
ATOM      4  C   UNL     1      -3.509   0.328   3.093  0.00  0.00    +0.041 C 
ATOM      5  C   UNL     1      -4.243   1.065   2.286  0.00  0.00    +0.037 C 
ATOM      6  N   UNL     1      -5.295   1.665   2.950  0.00  0.00    -0.266 N 
ATOM      7  N   UNL     1      -5.279   1.312   4.307  0.00  0.00    -0.245 N 
ATOM      8  C   UNL     1      -4.120   0.419   4.473  0.00  0.00    +0.136 C 
ATOM      9  C   UNL     1      -3.120   1.024   5.461  0.00  0.00    +0.036 C 
ATOM     10  C   UNL     1      -3.967   1.235   0.814  0.00  0.00    +0.063 C 
ATOM     11  H   UNL     1      -5.952   2.247   2.537  0.00  0.00    +0.170 HD
BRANCH   7  12
ATOM     12  C   UNL     1      -6.178   1.720   5.295  0.00  0.00    +0.048 A 
ATOM     13  C   UNL     1      -6.019   1.284   6.604  0.00  0.00    +0.025 A 
ATOM     14  C   UNL     1      -6.909   1.689   7.579  0.00  0.00    +0.002 A 
ATOM     15  C   UNL     1      -7.959   2.528   7.253  0.00  0.00    +0.000 A 
ATOM     16  C   UNL     1      -8.121   2.964   5.950  0.00  0.00    +0.002 A 
ATOM     17  C   UNL     1      -7.230   2.567   4.972  0.00  0.00    +0.025 A 
ENDBRANCH   7  12
ENDBRANCH   1   4
BRANCH   1  18
ATOM     18  N   UNL     1      -1.182   0.379   3.005  0.00  0.00    -0.231 NA
ATOM     19  H   UNL     1      -1.152   0.673   3.970  0.00  0.00    +0.145 HD
BRANCH  18  27
ATOM     20  C   UNL     1      -0.018   1.503   0.010  0.00  0.00    +0.044 C 
ATOM     21  C   UNL     1       0.002  -0.004   0.002  0.00  0.00    -0.039 A 
ATOM     22  C   UNL     1       0.006  -0.713  -1.194  0.00  0.00    +0.027 A 
ATOM     23  C   UNL     1       0.026  -2.097  -1.154  0.00  0.00    +0.041 A 
ATOM     24  N   UNL     1       0.040  -2.750  -0.012  0.00  0.00    -0.231 NA
ATOM     25  C   UNL     1       0.037  -2.115   1.157  0.00  0.00    +0.181 A 
ATOM     26  C   UNL     1       0.023  -0.716   1.175  0.00  0.00    +0.043 A 
ATOM     27  C   UNL     1       0.032  -0.364   2.643  0.00  0.00    +0.244 C 
ATOM     28  N   UNL     1       0.056  -1.681   3.304  0.00  0.00    -0.160 NA
ATOM     29  N   UNL     1       0.049  -2.566   2.448  0.00  0.00    -0.132 NA
ATOM     30  C   UNL     1       0.030  -2.872  -2.446  0.00  0.00    +0.065 C 
ENDBRANCH  18  27
ENDBRANCH   1  18
TORSDOF 4
