REMARK  Name = ZINC00919455
REMARK  9 active torsions:
REMARK  status: ('A' for Active; 'I' for Inactive)
REMARK    1  A    between atoms: C_1  and  C_2
REMARK    2  A    between atoms: C_2  and  N_3
REMARK    3  A    between atoms: N_3  and  C_4
REMARK    4  A    between atoms: N_3  and  C_6
REMARK    5  A    between atoms: C_4  and  C_5
REMARK    6  A    between atoms: C_9  and  N_12
REMARK    7  A    between atoms: C_13  and  C_15
REMARK    8  A    between atoms: C_20  and  C_31
REMARK    9  A    between atoms: C_23  and  C_26
REMARK                            x       y       z     vdW  Elec       q    Type
REMARK                         _______ _______ _______ _____ _____    ______ ____
ROOT
ATOM      1  C   UNL     1       2.224  -8.203   1.504  0.00  0.00    +0.149 A 
ATOM      2  C   UNL     1       3.386  -8.985   1.691  0.00  0.00    +0.078 A 
ATOM      3  C   UNL     1       3.030 -10.279   1.564  0.00  0.00    +0.119 A 
ATOM      4  N   UNL     1       1.690 -10.328   1.302  0.00  0.00    -0.238 N 
ATOM      5  N   UNL     1       1.210  -9.020   1.277  0.00  0.00    -0.164 NA
ATOM      6  C   UNL     1       0.947 -11.575   1.097  0.00  0.00    +0.215 C 
ATOM      7  C   UNL     1       1.938 -12.691   0.746  0.00  0.00    +0.066 C 
ATOM      8  C   UNL     1       3.086 -12.709   1.760  0.00  0.00    +0.140 C 
ATOM      9  N   UNL     1       3.817 -11.430   1.665  0.00  0.00    -0.319 N 
ATOM     10  H   UNL     1       4.786 -11.390   1.672  0.00  0.00    +0.148 HD
ENDROOT
BRANCH   8  11
ATOM     11  C   UNL     1       4.017 -13.853   1.451  0.00  0.00    +0.125 A 
ATOM     12  C   UNL     1       4.032 -15.045   2.074  0.00  0.00    +0.046 A 
ATOM     13  C   UNL     1       5.057 -15.809   1.469  0.00  0.00    +0.041 A 
ATOM     14  C   UNL     1       5.606 -15.039   0.514  0.00  0.00    +0.195 A 
ATOM     15  O   UNL     1       4.969 -13.857   0.503  0.00  0.00    -0.466 OA
ENDBRANCH   8  11
BRANCH   1  17
ATOM     16  N   UNL     1       0.976  -6.103   1.366  0.00  0.00    -0.280 N 
ATOM     17  C   UNL     1       2.154  -6.729   1.558  0.00  0.00    +0.268 C 
ATOM     18  O   UNL     1       3.158  -6.080   1.776  0.00  0.00    -0.268 OA
ATOM     19  H   UNL     1       0.162  -6.621   1.266  0.00  0.00    +0.155 HD
BRANCH  16  23
ATOM     20  C   UNL     1       0.829  -1.943   1.205  0.00  0.00    +0.014 A 
ATOM     21  C   UNL     1       1.928  -2.614   0.702  0.00  0.00    +0.023 A 
ATOM     22  C   UNL     1       1.980  -3.994   0.754  0.00  0.00    +0.025 A 
ATOM     23  C   UNL     1       0.926  -4.706   1.312  0.00  0.00    +0.034 A 
ATOM     24  C   UNL     1      -0.176  -4.028   1.817  0.00  0.00    +0.025 A 
ATOM     25  C   UNL     1      -0.220  -2.649   1.766  0.00  0.00    +0.023 A 
BRANCH  20  26
ATOM     26  N   UNL     1       0.780  -0.547   1.150  0.00  0.00    -0.394 NA
ATOM     27  H   UNL     1      -0.084  -0.224   1.562  0.00  0.00    +0.126 HD
BRANCH  26  29
ATOM     28  C   UNL     1       1.791  -0.363   3.373  0.00  0.00    +0.022 C 
ATOM     29  C   UNL     1       1.916   0.013   1.895  0.00  0.00    +0.081 C 
ENDBRANCH  26  29
BRANCH  26  30
ATOM     30  C   UNL     1       0.849  -0.108  -0.250  0.00  0.00    +0.081 C 
ATOM     31  C   UNL     1      -0.391  -0.599  -1.000  0.00  0.00    +0.022 C 
ENDBRANCH  26  30
ENDBRANCH  20  26
ENDBRANCH  16  23
ENDBRANCH   1  17
BRANCH   6  32
ATOM     32  C   UNL     1      -0.052 -11.394  -0.047  0.00  0.00    +0.412 C 
ATOM     33  F   UNL     1       0.636 -11.065  -1.219  0.00  0.00    -0.168 F 
ATOM     34  F   UNL     1      -0.760 -12.585  -0.240  0.00  0.00    -0.168 F 
ATOM     35  F   UNL     1      -0.946 -10.367   0.273  0.00  0.00    -0.168 F 
ENDBRANCH   6  32
TORSDOF 7
