REMARK  Name = ZINC21877509
REMARK  13 active torsions:
REMARK  status: ('A' for Active; 'I' for Inactive)
REMARK    1  A    between atoms: C_1  and  C_2
REMARK    2  A    between atoms: C_2  and  N_3
REMARK    3  A    between atoms: C_8  and  C_22
REMARK    4  A    between atoms: C_12  and  C_13
REMARK    5  A    between atoms: C_12  and  C_14
REMARK    6  A    between atoms: N_16  and  C_17
REMARK    7  A    between atoms: N_24  and  C_25
REMARK    8  A    between atoms: C_25  and  C_26
REMARK    9  A    between atoms: C_26  and  C_27
REMARK   10  A    between atoms: C_27  and  O_28
REMARK   11  A    between atoms: O_28  and  C_29
REMARK   12  A    between atoms: C_29  and  C_30
REMARK   13  A    between atoms: C_29  and  C_31
REMARK                            x       y       z     vdW  Elec       q    Type
REMARK                         _______ _______ _______ _____ _____    ______ ____
ROOT
ATOM      1  N   UNL     1      -1.544   1.974   3.816  0.00  0.00    -0.281 N 
ATOM      2  C   UNL     1      -1.075   3.231   3.638  0.00  0.00    +0.265 C 
ATOM      3  O   UNL     1      -0.135   3.662   4.277  0.00  0.00    -0.268 OA
ATOM      4  C   UNL     1      -1.767   4.048   2.627  0.00  0.00    +0.124 A 
ATOM      5  C   UNL     1      -1.450   5.242   2.076  0.00  0.00    +0.067 A 
ATOM      6  C   UNL     1      -2.480   5.505   1.145  0.00  0.00    +0.148 A 
ATOM      7  N   UNL     1      -3.329   4.491   1.192  0.00  0.00    -0.166 NA
ATOM      8  N   UNL     1      -2.948   3.628   2.052  0.00  0.00    -0.256 N 
ATOM      9  C   UNL     1      -3.584   2.368   2.454  0.00  0.00    +0.179 C 
ATOM     10  C   UNL     1      -2.507   1.378   2.897  0.00  0.00    +0.130 C 
ATOM     11  C   UNL     1      -3.181   0.191   3.589  0.00  0.00    +0.044 C 
ENDROOT
BRANCH  10  12
ATOM     12  C   UNL     1      -1.774   0.879   1.679  0.00  0.00    +0.238 C 
ATOM     13  O   UNL     1      -2.129  -0.146   1.135  0.00  0.00    -0.273 OA
ATOM     14  N   UNL     1      -0.725   1.571   1.192  0.00  0.00    -0.311 N 
ATOM     15  H   UNL     1      -0.404   2.501   1.685  0.00  0.00    +0.149 HD
BRANCH  14  16
ATOM     16  C   UNL     1      -0.013   1.086   0.008  0.00  0.00    +0.073 C 
ATOM     17  C   UNL     1      -0.694   1.612  -1.272  0.00  0.00    +0.022 C 
ATOM     18  C   UNL     1       0.116   2.881  -1.639  0.00  0.00    +0.002 C 
ATOM     19  C   UNL     1       1.568   2.472  -1.289  0.00  0.00    +0.002 C 
ATOM     20  C   UNL     1       1.426   1.633  -0.003  0.00  0.00    +0.022 C 
ENDBRANCH  14  16
ENDBRANCH  10  12
BRANCH   6  21
ATOM     21  C   UNL     1      -2.590   6.696   0.277  0.00  0.00    +0.264 C 
ATOM     22  O   UNL     1      -1.741   7.565   0.327  0.00  0.00    -0.268 OA
ATOM     23  N   UNL     1      -3.631   6.820  -0.569  0.00  0.00    -0.310 N 
ATOM     24  H   UNL     1      -4.400   6.034  -0.614  0.00  0.00    +0.149 HD
BRANCH  23  25
ATOM     25  C   UNL     1      -3.740   8.000  -1.429  0.00  0.00    +0.107 C 
BRANCH  25  26
ATOM     26  C   UNL     1      -5.004   7.893  -2.286  0.00  0.00    +0.047 C 
BRANCH  26  27
ATOM     27  C   UNL     1      -5.117   9.126  -3.184  0.00  0.00    +0.161 C 
BRANCH  27  28
ATOM     28  O   UNL     1      -6.297   9.025  -3.984  0.00  0.00    -0.377 OA
BRANCH  28  29
ATOM     29  C   UNL     1      -6.499  10.133  -4.864  0.00  0.00    +0.112 C 
ATOM     30  C   UNL     1      -5.817   9.850  -6.205  0.00  0.00    +0.037 C 
ATOM     31  C   UNL     1      -7.998  10.340  -5.088  0.00  0.00    +0.037 C 
ENDBRANCH  28  29
ENDBRANCH  27  28
ENDBRANCH  26  27
ENDBRANCH  25  26
ENDBRANCH  23  25
ENDBRANCH   6  21
BRANCH   1  33
ATOM     32  C   UNL     1       0.179   0.405   4.558  0.00  0.00    +0.024 C 
ATOM     33  C   UNL     1      -1.069   1.193   4.960  0.00  0.00    +0.106 C 
ENDBRANCH   1  33
TORSDOF 9
