REMARK  Name = ZINC00620852
REMARK  5 active torsions:
REMARK  status: ('A' for Active; 'I' for Inactive)
REMARK    1  A    between atoms: C_3  and  N_19
REMARK    2  A    between atoms: C_6  and  C_7
REMARK    3  A    between atoms: C_7  and  C_17
REMARK    4  A    between atoms: C_8  and  C_9
REMARK    5  A    between atoms: C_12  and  O_16
REMARK                            x       y       z     vdW  Elec       q    Type
REMARK                         _______ _______ _______ _____ _____    ______ ____
ROOT
ATOM      1  C   UNL     1      -1.261  -0.775   0.015  0.00  0.00    +0.059 C 
ATOM      2  C   UNL     1      -1.607  -1.536  -1.059  0.00  0.00    +0.027 C 
ENDROOT
BRANCH   2   3
ATOM      3  C   UNL     1      -2.810  -2.376  -1.008  0.00  0.00    -0.022 A 
ATOM      4  C   UNL     1      -3.949  -1.929  -0.326  0.00  0.00    +0.011 A 
ATOM      5  C   UNL     1      -5.075  -2.720  -0.281  0.00  0.00    +0.047 A 
ATOM      6  C   UNL     1      -5.083  -3.960  -0.909  0.00  0.00    +0.135 A 
ATOM      7  C   UNL     1      -3.954  -4.409  -1.587  0.00  0.00    +0.083 A 
ATOM      8  C   UNL     1      -2.825  -3.623  -1.645  0.00  0.00    +0.031 A 
ATOM      9 CL   UNL     1      -3.973  -5.959  -2.369  0.00  0.00    -0.080 Cl
BRANCH   6  10
ATOM     10  O   UNL     1      -6.196  -4.736  -0.860  0.00  0.00    -0.505 OA
ATOM     11  H   UNL     1      -6.814  -4.583  -1.588  0.00  0.00    +0.292 HD
ENDBRANCH   6  10
ENDBRANCH   2   3
BRANCH   1  17
ATOM     12  C   UNL     1      -0.396   1.562   0.022  0.00  0.00    +0.011 A 
ATOM     13  C   UNL     1       0.647   2.461  -0.079  0.00  0.00    +0.033 A 
ATOM     14  C   UNL     1       1.936   2.008  -0.293  0.00  0.00    +0.126 A 
ATOM     15  C   UNL     1       2.189   0.652  -0.407  0.00  0.00    +0.033 A 
ATOM     16  C   UNL     1       1.155  -0.256  -0.308  0.00  0.00    +0.011 A 
ATOM     17  C   UNL     1      -0.147   0.195  -0.092  0.00  0.00    -0.008 A 
BRANCH  14  18
ATOM     18  N   UNL     1       3.050   2.977  -0.401  0.00  0.00    +0.056 N 
ATOM     19  O   UNL     1       2.832   4.162  -0.301  0.00  0.00    -0.126 OA
ATOM     20  O   UNL     1       4.178   2.584  -0.588  0.00  0.00    -0.126 OA
ENDBRANCH  14  18
ENDBRANCH   1  17
BRANCH   1  21
ATOM     21  C   UNL     1      -1.975  -0.912   1.249  0.00  0.00    +0.100 C 
ATOM     22  N   UNL     1      -2.542  -1.021   2.228  0.00  0.00    -0.191 NA
ENDBRANCH   1  21
TORSDOF 5
