REMARK  Name = ZINC59238636
REMARK  8 active torsions:
REMARK  status: ('A' for Active; 'I' for Inactive)
REMARK    1  A    between atoms: C_1  and  C_2
REMARK    2  A    between atoms: C_3  and  C_17
REMARK    3  A    between atoms: C_4  and  C_10
REMARK    4  A    between atoms: N_19  and  C_20
REMARK    5  A    between atoms: C_22  and  O_29
REMARK    6  A    between atoms: C_25  and  O_26
REMARK    7  A    between atoms: O_26  and  C_27
REMARK    8  A    between atoms: O_29  and  C_30
REMARK                            x       y       z     vdW  Elec       q    Type
REMARK                         _______ _______ _______ _____ _____    ______ ____
ROOT
ATOM      1  C   UNL     1      -0.042   1.792   0.382  0.00  0.00    +0.061 C 
ATOM      2  C   UNL     1       0.059   0.309   0.133  0.00  0.00    +0.017 C 
ATOM      3  C   UNL     1      -1.067  -0.412  -0.048  0.00  0.00    +0.056 C 
ATOM      4  C   UNL     1      -0.920  -1.899  -0.297  0.00  0.00    +0.139 C 
ATOM      5  N   UNL     1       0.450  -2.440  -0.321  0.00  0.00    -0.315 N 
ATOM      6  C   UNL     1       1.477  -1.591  -0.123  0.00  0.00    +0.135 C 
ATOM      7  S   UNL     1       3.075  -2.205  -0.149  0.00  0.00    -0.019 S 
ATOM      8  N   UNL     1       1.290  -0.282   0.087  0.00  0.00    -0.300 N 
ATOM      9  H   UNL     1       0.608  -3.384  -0.476  0.00  0.00    +0.149 HD
ATOM     10  H   UNL     1       2.071   0.277   0.219  0.00  0.00    +0.154 HD
ENDROOT
BRANCH   4  11
ATOM     11  C   UNL     1      -1.687  -2.628   0.776  0.00  0.00    -0.022 A 
ATOM     12  C   UNL     1      -1.174  -2.709   2.057  0.00  0.00    +0.008 A 
ATOM     13  C   UNL     1      -1.877  -3.377   3.043  0.00  0.00    +0.038 A 
ATOM     14  C   UNL     1      -3.095  -3.964   2.746  0.00  0.00    +0.123 A 
ATOM     15  C   UNL     1      -3.608  -3.882   1.462  0.00  0.00    +0.038 A 
ATOM     16  C   UNL     1      -2.906  -3.210   0.480  0.00  0.00    +0.008 A 
ATOM     17  F   UNL     1      -3.783  -4.617   3.708  0.00  0.00    -0.205 F 
ENDBRANCH   4  11
BRANCH   3  18
ATOM     18  C   UNL     1      -2.344   0.201  -0.006  0.00  0.00    +0.248 C 
ATOM     19  O   UNL     1      -2.914   0.490  -1.042  0.00  0.00    -0.270 OA
ATOM     20  N   UNL     1      -2.926   0.463   1.180  0.00  0.00    -0.279 N 
ATOM     21  H   UNL     1      -2.457   0.265   2.006  0.00  0.00    +0.155 HD
BRANCH  20  22
ATOM     22  C   UNL     1      -4.210   1.023   1.221  0.00  0.00    +0.079 A 
ATOM     23  C   UNL     1      -4.944   1.165   0.053  0.00  0.00    +0.074 A 
ATOM     24  C   UNL     1      -6.214   1.718   0.096  0.00  0.00    +0.140 A 
ATOM     25  C   UNL     1      -6.751   2.131   1.308  0.00  0.00    +0.086 A 
ATOM     26  C   UNL     1      -6.021   1.990   2.474  0.00  0.00    +0.071 A 
ATOM     27  C   UNL     1      -4.754   1.432   2.437  0.00  0.00    +0.143 A 
ATOM     28 CL   UNL     1      -8.342   2.825   1.359  0.00  0.00    -0.080 Cl
BRANCH  27  29
ATOM     29  O   UNL     1      -4.039   1.289   3.585  0.00  0.00    -0.493 OA
ATOM     30  C   UNL     1      -4.659   1.730   4.795  0.00  0.00    +0.277 C 
ENDBRANCH  27  29
BRANCH  24  31
ATOM     31  O   UNL     1      -6.934   1.858  -1.049  0.00  0.00    -0.494 OA
ATOM     32  C   UNL     1      -6.319   1.413  -2.260  0.00  0.00    +0.277 C 
ENDBRANCH  24  31
ENDBRANCH  20  22
ENDBRANCH   3  18
TORSDOF 5
