REMARK  Name = ZINC39678680
REMARK  9 active torsions:
REMARK  status: ('A' for Active; 'I' for Inactive)
REMARK    1  A    between atoms: C_1  and  C_2
REMARK    2  A    between atoms: C_2  and  C_3
REMARK    3  A    between atoms: C_2  and  O_4
REMARK    4  A    between atoms: O_4  and  C_5
REMARK    5  A    between atoms: C_5  and  C_7
REMARK    6  A    between atoms: C_7  and  N_8
REMARK    7  A    between atoms: C_9  and  C_11
REMARK    8  A    between atoms: C_22  and  C_24
REMARK    9  A    between atoms: C_28  and  C_30
REMARK                            x       y       z     vdW  Elec       q    Type
REMARK                         _______ _______ _______ _____ _____    ______ ____
ROOT
ATOM      1  C   UNL     1      -5.617  -1.412  -4.021  0.00  0.00    +0.100 C 
ATOM      2  C   UNL     1      -5.601  -0.193  -4.970  0.00  0.00    +0.121 C 
ATOM      3  N   UNL     1      -6.753  -0.409  -5.877  0.00  0.00    -0.296 N 
ATOM      4  C   UNL     1      -7.815  -0.957  -5.000  0.00  0.00    +0.115 C 
ATOM      5  C   UNL     1      -7.072  -1.910  -4.042  0.00  0.00    -0.004 C 
ATOM      6  C   UNL     1      -7.679  -1.831  -2.645  0.00  0.00    -0.010 C 
ATOM      7  C   UNL     1      -9.105  -2.386  -2.680  0.00  0.00    -0.082 C 
ATOM      8  N   UNL     1      -9.079  -3.778  -3.146  0.00  0.00    +0.379 N 
ATOM      9  C   UNL     1      -8.581  -3.835  -4.526  0.00  0.00    -0.082 C 
ATOM     10  C   UNL     1      -7.133  -3.341  -4.569  0.00  0.00    -0.010 C 
ATOM     11  C   UNL     1      -6.820  -0.164  -7.200  0.00  0.00    +0.247 C 
ATOM     12  O   UNL     1      -5.820   0.167  -7.809  0.00  0.00    -0.270 OA
ATOM     13  H   UNL     1      -8.473  -4.320  -2.549  0.00  0.00    -0.086 HD
ATOM     14  H   UNL     1     -10.012  -4.161  -3.111  0.00  0.00    -0.086 HD
ENDROOT
BRANCH  11  15
ATOM     15  C   UNL     1      -8.107  -0.297  -7.912  0.00  0.00    +0.038 A 
ATOM     16  C   UNL     1      -9.309  -0.245  -7.203  0.00  0.00    +0.016 A 
ATOM     17  C   UNL     1     -10.507  -0.370  -7.872  0.00  0.00    +0.039 A 
ATOM     18  C   UNL     1     -10.521  -0.547  -9.247  0.00  0.00    +0.135 A 
ATOM     19  C   UNL     1      -9.331  -0.599  -9.957  0.00  0.00    +0.091 A 
ATOM     20  C   UNL     1      -8.127  -0.470  -9.298  0.00  0.00    +0.028 A 
ATOM     21  F   UNL     1     -11.699  -0.669  -9.899  0.00  0.00    -0.205 F 
BRANCH  19  22
ATOM     22  C   UNL     1      -9.354  -0.792 -11.451  0.00  0.00    +0.420 C 
ATOM     23  F   UNL     1      -8.043  -0.812 -11.939  0.00  0.00    -0.166 F 
ATOM     24  F   UNL     1      -9.983  -2.004 -11.755  0.00  0.00    -0.166 F 
ATOM     25  F   UNL     1     -10.057   0.261 -12.046  0.00  0.00    -0.166 F 
ENDBRANCH  19  22
ENDBRANCH  11  15
BRANCH   1  27
ATOM     26  N   UNL     1      -4.599  -1.869  -1.813  0.00  0.00    -0.305 N 
ATOM     27  C   UNL     1      -5.226  -0.996  -2.626  0.00  0.00    +0.219 C 
ATOM     28  O   UNL     1      -5.475   0.125  -2.235  0.00  0.00    -0.275 OA
ATOM     29  H   UNL     1      -4.400  -2.766  -2.126  0.00  0.00    +0.149 HD
BRANCH  26  30
ATOM     30  C   UNL     1      -4.219  -1.465  -0.458  0.00  0.00    +0.224 C 
BRANCH  30  31
ATOM     31  C   UNL     1      -3.539  -2.616   0.238  0.00  0.00    +0.325 C 
ATOM     32  O   UNL     1      -3.387  -3.667  -0.340  0.00  0.00    -0.249 OA
BRANCH  31  33
ATOM     33  O   UNL     1      -3.101  -2.475   1.499  0.00  0.00    -0.461 OA
BRANCH  33  35
ATOM     34  C   UNL     1      -0.962  -3.556   1.815  0.00  0.00    +0.052 C 
ATOM     35  C   UNL     1      -2.466  -3.607   2.096  0.00  0.00    +0.170 C 
ATOM     36  C   UNL     1      -2.703  -3.587   3.607  0.00  0.00    +0.052 C 
ENDBRANCH  33  35
ENDBRANCH  31  33
ENDBRANCH  30  31
ENDBRANCH  26  30
ENDBRANCH   1  27
TORSDOF 7
