REMARK  Name = ZINC17124252
REMARK  5 active torsions:
REMARK  status: ('A' for Active; 'I' for Inactive)
REMARK    1  A    between atoms: C_1  and  N_2
REMARK    2  A    between atoms: C_9  and  O_29
REMARK    3  A    between atoms: C_11  and  C_13
REMARK    4  A    between atoms: N_18  and  C_21
REMARK    5  A    between atoms: O_29  and  C_30
REMARK                            x       y       z     vdW  Elec       q    Type
REMARK                         _______ _______ _______ _____ _____    ______ ____
ROOT
ATOM      1  C   UNL     1       3.534   6.325  -2.499  0.00  0.00    -0.095 C 
ATOM      2  N   UNL     1       2.307   5.930  -3.203  0.00  0.00    +0.386 N 
ATOM      3  C   UNL     1       2.245   6.543  -4.540  0.00  0.00    -0.073 C 
ATOM      4  C   UNL     1       1.168   5.825  -5.354  0.00  0.00    +0.017 C 
ATOM      5  C   UNL     1      -0.114   5.754  -4.563  0.00  0.00    -0.040 A 
ATOM      6  C   UNL     1      -1.290   5.466  -5.238  0.00  0.00    +0.053 A 
ATOM      7  C   UNL     1      -2.492   5.388  -4.555  0.00  0.00    +0.170 A 
ATOM      8  C   UNL     1      -2.518   5.600  -3.180  0.00  0.00    +0.208 A 
ATOM      9  C   UNL     1      -1.340   5.890  -2.508  0.00  0.00    +0.167 A 
ATOM     10  C   UNL     1      -0.135   5.967  -3.201  0.00  0.00    -0.008 A 
ATOM     11  C   UNL     1       1.116   6.287  -2.426  0.00  0.00    +0.008 C 
ATOM     12  O   UNL     1      -3.805   5.468  -2.742  0.00  0.00    -0.449 OA
ATOM     13  C   UNL     1      -4.500   4.773  -3.795  0.00  0.00    +0.467 C 
ATOM     14  O   UNL     1      -3.762   5.123  -4.980  0.00  0.00    -0.452 OA
ATOM     15  H   UNL     1       2.328   4.836  -3.320  0.00  0.00    -0.081 HD
ENDROOT
BRANCH  11  16
ATOM     16  C   UNL     1       1.114   5.511  -1.135  0.00  0.00    +0.072 A 
ATOM     17  C   UNL     1       1.090   6.162   0.064  0.00  0.00    +0.258 A 
ATOM     18  N   UNL     1       1.088   5.436   1.227  0.00  0.00    -0.302 N 
ATOM     19  C   UNL     1       1.109   4.090   1.190  0.00  0.00    +0.168 A 
ATOM     20  S   UNL     1       1.107   3.207   2.657  0.00  0.00    -0.012 S 
ATOM     21  N   UNL     1       1.133   3.430   0.018  0.00  0.00    -0.255 N 
ATOM     22  C   UNL     1       1.141   4.105  -1.148  0.00  0.00    +0.265 A 
ATOM     23  O   UNL     1       1.168   3.502  -2.206  0.00  0.00    -0.267 OA
ATOM     24  O   UNL     1       1.068   7.511   0.104  0.00  0.00    -0.267 OA
ATOM     25  H   UNL     1       1.069   5.952   2.198  0.00  0.00    +0.171 HD
BRANCH  21  26
ATOM     26  C   UNL     1       1.155   2.029   0.011  0.00  0.00    +0.070 A 
ATOM     27  C   UNL     1      -0.035   1.314  -0.007  0.00  0.00    +0.028 A 
ATOM     28  C   UNL     1      -0.010  -0.067  -0.015  0.00  0.00    +0.002 A 
ATOM     29  C   UNL     1       1.199  -0.739  -0.006  0.00  0.00    +0.002 A 
ATOM     30  C   UNL     1       2.386  -0.031   0.012  0.00  0.00    +0.022 A 
ATOM     31  C   UNL     1       2.368   1.351   0.021  0.00  0.00    +0.065 A 
ATOM     32 CL   UNL     1       3.860   2.240   0.044  0.00  0.00    -0.081 Cl
ENDBRANCH  21  26
ENDBRANCH  11  16
BRANCH   9  33
ATOM     33  O   UNL     1      -1.361   6.098  -1.164  0.00  0.00    -0.491 OA
ATOM     34  C   UNL     1      -1.703   7.411  -0.716  0.00  0.00    +0.277 C 
ENDBRANCH   9  33
TORSDOF 3
