REMARK  Name = ZINC20276126
REMARK  6 active torsions:
REMARK  status: ('A' for Active; 'I' for Inactive)
REMARK    1  A    between atoms: C_1  and  C_2
REMARK    2  A    between atoms: C_2  and  N_3
REMARK    3  A    between atoms: C_6  and  C_18
REMARK    4  A    between atoms: C_11  and  C_15
REMARK    5  A    between atoms: C_15  and  C_16
REMARK    6  A    between atoms: C_15  and  C_17
REMARK                            x       y       z     vdW  Elec       q    Type
REMARK                         _______ _______ _______ _____ _____    ______ ____
ROOT
ATOM      1  N   UNL     1      -1.372  -0.511   0.012  0.00  0.00    -0.265 N 
ATOM      2  C   UNL     1      -2.031  -0.759   1.226  0.00  0.00    +0.079 A 
ATOM      3  C   UNL     1      -1.319  -0.841   2.409  0.00  0.00    +0.037 A 
ATOM      4  C   UNL     1      -1.993  -1.087   3.605  0.00  0.00    +0.003 A 
ATOM      5  C   UNL     1      -3.378  -1.248   3.602  0.00  0.00    +0.014 A 
ATOM      6  C   UNL     1      -4.083  -1.166   2.418  0.00  0.00    +0.048 A 
ATOM      7  C   UNL     1      -3.416  -0.922   1.229  0.00  0.00    +0.143 A 
ATOM      8  O   UNL     1      -4.101  -0.841   0.056  0.00  0.00    -0.477 OA
ATOM      9  C   UNL     1      -3.425  -1.304  -1.116  0.00  0.00    +0.262 C 
ATOM     10  C   UNL     1      -2.027  -0.742  -1.147  0.00  0.00    +0.261 C 
ATOM     11  O   UNL     1      -1.490  -0.503  -2.207  0.00  0.00    -0.271 OA
ENDROOT
BRANCH   4  12
ATOM     12  C   UNL     1      -1.237  -1.178   4.878  0.00  0.00    +0.080 A 
ATOM     13  C   UNL     1      -1.890  -1.423   6.052  0.00  0.00    +0.076 A 
ATOM     14  S   UNL     1      -0.521  -1.423   7.202  0.00  0.00    -0.060 S 
ATOM     15  C   UNL     1       0.772  -1.099   6.012  0.00  0.00    +0.156 A 
ATOM     16  N   UNL     1       0.085  -1.026   4.887  0.00  0.00    -0.225 NA
ATOM     17  N   UNL     1       2.136  -0.964   6.216  0.00  0.00    -0.338 N 
ATOM     18  H   UNL     1       2.504  -1.048   7.109  0.00  0.00    +0.144 HD
ATOM     19  H   UNL     1       2.724  -0.786   5.465  0.00  0.00    +0.144 HD
ENDBRANCH   4  12
BRANCH   9  20
ATOM     20  C   UNL     1      -3.365  -2.833  -1.098  0.00  0.00    +0.033 C 
ATOM     21  C   UNL     1      -4.785  -3.400  -1.070  0.00  0.00    +0.011 C 
ATOM     22  C   UNL     1      -2.642  -3.329  -2.352  0.00  0.00    +0.011 C 
ENDBRANCH   9  20
BRANCH   1  24
ATOM     23  C   UNL     1      -0.019   1.526   0.010  0.00  0.00    +0.025 C 
ATOM     24  C   UNL     1       0.002  -0.004   0.002  0.00  0.00    +0.110 C 
ENDBRANCH   1  24
TORSDOF 3
