REMARK  Name = ZINC50829430
REMARK  6 active torsions:
REMARK  status: ('A' for Active; 'I' for Inactive)
REMARK    1  A    between atoms: C_1  and  C_2
REMARK    2  A    between atoms: C_2  and  C_3
REMARK    3  A    between atoms: C_3  and  N_4
REMARK    4  A    between atoms: N_4  and  C_5
REMARK    5  A    between atoms: C_6  and  C_10
REMARK    6  A    between atoms: C_10  and  N_11
REMARK                            x       y       z     vdW  Elec       q    Type
REMARK                         _______ _______ _______ _____ _____    ______ ____
ROOT
ATOM      1  C   UNL     1      -1.653  -5.033   0.003  0.00  0.00    +0.186 C 
ENDROOT
BRANCH   1   2
ATOM      2  N   UNL     1      -1.268  -5.349   1.381  0.00  0.00    -0.292 N 
ATOM      3  C   UNL     1      -0.337  -4.596   2.023  0.00  0.00    +0.203 A 
ATOM      4  N   UNL     1       0.044  -4.825   3.239  0.00  0.00    -0.236 NA
ATOM      5  C   UNL     1      -0.472  -5.859   3.980  0.00  0.00    +0.085 A 
ATOM      6  C   UNL     1      -0.163  -6.230   5.296  0.00  0.00    +0.036 A 
ATOM      7  C   UNL     1      -0.780  -7.287   5.867  0.00  0.00    +0.048 A 
ATOM      8  S   UNL     1      -1.866  -7.856   4.569  0.00  0.00    -0.090 S 
ATOM      9  C   UNL     1      -1.438  -6.654   3.338  0.00  0.00    +0.102 A 
ATOM     10  C   UNL     1      -1.842  -6.391   2.029  0.00  0.00    +0.269 A 
ATOM     11  O   UNL     1      -2.684  -7.083   1.482  0.00  0.00    -0.266 OA
ENDBRANCH   1   2
BRANCH   1  13
ATOM     12  C   UNL     1      -2.610  -2.711   0.012  0.00  0.00    +0.111 A 
ATOM     13  C   UNL     1      -2.805  -4.063   0.013  0.00  0.00    +0.113 A 
ATOM     14  N   UNL     1      -4.055  -4.470   0.022  0.00  0.00    -0.142 NA
ATOM     15  N   UNL     1      -5.002  -3.595   0.029  0.00  0.00    -0.108 NA
ATOM     16  S   UNL     1      -4.187  -2.131   0.031  0.00  0.00    +0.052 S 
BRANCH  12  17
ATOM     17  N   UNL     1      -1.413  -1.998   0.005  0.00  0.00    -0.336 N 
ATOM     18  H   UNL     1      -0.567  -2.472  -0.006  0.00  0.00    +0.147 HD
BRANCH  17  19
ATOM     19  C   UNL     1      -1.433  -0.534   0.013  0.00  0.00    +0.102 C 
BRANCH  19  21
ATOM     20  C   UNL     1      -0.019   1.526   0.010  0.00  0.00    +0.005 C 
ATOM     21  C   UNL     1       0.002  -0.004   0.002  0.00  0.00    +0.015 C 
ENDBRANCH  19  21
ENDBRANCH  17  19
ENDBRANCH  12  17
ENDBRANCH   1  13
TORSDOF 5
