REMARK  Name = ZINC37555988
REMARK  6 active torsions:
REMARK  status: ('A' for Active; 'I' for Inactive)
REMARK    1  A    between atoms: C_1  and  C_2
REMARK    2  A    between atoms: C_5  and  N_8
REMARK    3  A    between atoms: N_8  and  S_9
REMARK    4  A    between atoms: S_9  and  C_12
REMARK    5  A    between atoms: C_13  and  N_20
REMARK    6  A    between atoms: N_20  and  N_21
REMARK                            x       y       z     vdW  Elec       q    Type
REMARK                         _______ _______ _______ _____ _____    ______ ____
ROOT
ATOM      1  C   UNL     1       4.218  -4.372  -0.497  0.00  0.00    +0.222 A 
ATOM      2  C   UNL     1       3.566  -5.542  -0.346  0.00  0.00    +0.179 A 
ATOM      3  N   UNL     1       3.933  -6.362  -1.347  0.00  0.00    -0.203 NA
ATOM      4  C   UNL     1       4.787  -5.742  -2.111  0.00  0.00    +0.181 A 
ATOM      5  N   UNL     1       5.014  -4.476  -1.642  0.00  0.00    -0.276 N 
ATOM      6  C   UNL     1       5.896  -3.694  -2.354  0.00  0.00    +0.102 A 
ATOM      7  C   UNL     1       6.491  -4.163  -3.451  0.00  0.00    +0.067 A 
ATOM      8  S   UNL     1       5.825  -5.817  -3.552  0.00  0.00    -0.058 S 
ENDROOT
BRANCH   1   9
ATOM      9  S   UNL     1       4.086  -2.963   0.553  0.00  0.00    +0.078 S 
ATOM     10  O   UNL     1       5.282  -2.215   0.382  0.00  0.00    -0.151 OA
ATOM     11  O   UNL     1       3.661  -3.442   1.822  0.00  0.00    -0.151 OA
BRANCH   9  12
ATOM     12  N   UNL     1       2.853  -2.027  -0.036  0.00  0.00    -0.185 NA
ATOM     13  H   UNL     1       3.042  -1.143  -0.388  0.00  0.00    +0.148 HD
BRANCH  12  18
ATOM     14  C   UNL     1      -0.019   1.526   0.010  0.00  0.00    +0.007 C 
ATOM     15  C   UNL     1       0.002  -0.004   0.002  0.00  0.00    -0.014 C 
ATOM     16  C   UNL     1       0.718  -0.497  -1.257  0.00  0.00    +0.005 C 
ATOM     17  C   UNL     1       0.739  -2.027  -1.265  0.00  0.00    +0.020 C 
ATOM     18  C   UNL     1       1.479  -2.534  -0.026  0.00  0.00    +0.077 C 
ATOM     19  C   UNL     1       0.763  -2.041   1.233  0.00  0.00    +0.020 C 
ATOM     20  C   UNL     1       0.742  -0.511   1.242  0.00  0.00    +0.005 C 
ENDBRANCH  12  18
ENDBRANCH   9  12
ENDBRANCH   1   9
BRANCH   2  21
ATOM     21  N   UNL     1       2.660  -5.852   0.679  0.00  0.00    -0.265 N 
ATOM     22  H   UNL     1       2.456  -5.194   1.362  0.00  0.00    +0.168 HD
BRANCH  21  23
ATOM     23  N   UNL     1       2.065  -7.081   0.717  0.00  0.00    -0.255 NA
ATOM     24  H   UNL     1       1.442  -7.158   1.507  0.00  0.00    +0.140 HD
ATOM     25  H   UNL     1       1.579  -7.275  -0.146  0.00  0.00    +0.140 HD
ENDBRANCH  21  23
ENDBRANCH   2  21
TORSDOF 5
