REMARK  Name = ZINC23187774
REMARK  9 active torsions:
REMARK  status: ('A' for Active; 'I' for Inactive)
REMARK    1  A    between atoms: C_1  and  C_2
REMARK    2  A    between atoms: C_5  and  C_7
REMARK    3  A    between atoms: N_9  and  C_10
REMARK    4  A    between atoms: C_10  and  C_11
REMARK    5  A    between atoms: N_13  and  N_14
REMARK    6  A    between atoms: C_15  and  C_17
REMARK    7  A    between atoms: C_21  and  S_23
REMARK    8  A    between atoms: S_23  and  N_26
REMARK    9  A    between atoms: N_26  and  C_27
REMARK                            x       y       z     vdW  Elec       q    Type
REMARK                         _______ _______ _______ _____ _____    ______ ____
ROOT
ATOM      1  C   UNL     1       0.721   1.408   0.274  0.00  0.00    +0.040 A 
ATOM      2  C   UNL     1       2.029   1.893   0.329  0.00  0.00    +0.013 A 
ATOM      3  C   UNL     1       3.090   1.013   0.284  0.00  0.00    +0.003 A 
ATOM      4  C   UNL     1       2.861  -0.348   0.186  0.00  0.00    +0.029 A 
ATOM      5  C   UNL     1       1.567  -0.835   0.132  0.00  0.00    +0.109 A 
ATOM      6  C   UNL     1       0.497   0.035   0.174  0.00  0.00    +0.042 A 
ENDROOT
BRANCH   1   8
ATOM      7  N   UNL     1      -0.201   3.673   0.409  0.00  0.00    -0.230 N 
ATOM      8  C   UNL     1      -0.421   2.346   0.314  0.00  0.00    +0.260 C 
ATOM      9  O   UNL     1      -1.558   1.921   0.260  0.00  0.00    -0.269 OA
ATOM     10  H   UNL     1       0.829   4.057   0.458  0.00  0.00    +0.173 HD
BRANCH   7  13
ATOM     11  C   UNL     1      -1.063   5.888   0.543  0.00  0.00    +0.246 C 
ATOM     12  O   UNL     1       0.072   6.312   0.596  0.00  0.00    -0.273 OA
ATOM     13  N   UNL     1      -1.283   4.561   0.448  0.00  0.00    -0.233 N 
ATOM     14  H   UNL     1      -2.312   4.177   0.399  0.00  0.00    +0.173 HD
BRANCH  11  15
ATOM     15  C   UNL     1      -2.227   6.844   0.584  0.00  0.00    +0.201 C 
BRANCH  15  18
ATOM     16  C   UNL     1      -2.595   9.247   0.741  0.00  0.00    +0.217 C 
ATOM     17  O   UNL     1      -3.788   9.038   0.702  0.00  0.00    -0.275 OA
ATOM     18  N   UNL     1      -1.727   8.217   0.689  0.00  0.00    -0.306 N 
ATOM     19  H   UNL     1      -0.644   8.407   0.725  0.00  0.00    +0.149 HD
BRANCH  16  23
ATOM     20  C   UNL     1      -2.759  13.108   0.225  0.00  0.00    +0.008 C 
ATOM     21  C   UNL     1      -3.115  11.786   0.907  0.00  0.00    -0.002 C 
ATOM     22  C   UNL     1      -2.329  11.404   2.163  0.00  0.00    +0.017 C 
ATOM     23  C   UNL     1      -2.081  10.660   0.849  0.00  0.00    +0.078 C 
ENDBRANCH  16  23
ENDBRANCH  15  18
ENDBRANCH  11  15
ENDBRANCH   7  13
ENDBRANCH   1   8
BRANCH   5  24
ATOM     24  S   UNL     1       1.286  -2.570   0.007  0.00  0.00    +0.072 S 
ATOM     25  O   UNL     1       2.488  -3.207   0.416  0.00  0.00    -0.150 OA
ATOM     26  O   UNL     1       0.037  -2.825   0.634  0.00  0.00    -0.150 OA
BRANCH  24  27
ATOM     27  N   UNL     1       1.089  -2.920  -1.600  0.00  0.00    -0.216 N 
ATOM     28  H   UNL     1       0.129  -3.317  -1.963  0.00  0.00    +0.174 HD
BRANCH  27  29
ATOM     29  C   UNL     1       2.141  -2.710  -2.495  0.00  0.00    +0.048 A 
ATOM     30  C   UNL     1       2.100  -1.640  -3.379  0.00  0.00    +0.026 A 
ATOM     31  C   UNL     1       3.145  -1.431  -4.258  0.00  0.00    +0.022 A 
ATOM     32  C   UNL     1       4.226  -2.295  -4.267  0.00  0.00    +0.041 A 
ATOM     33  C   UNL     1       4.267  -3.366  -3.391  0.00  0.00    +0.022 A 
ATOM     34  C   UNL     1       3.228  -3.575  -2.506  0.00  0.00    +0.026 A 
ATOM     35 CL   UNL     1       5.534  -2.035  -5.379  0.00  0.00    -0.084 Cl
ENDBRANCH  27  29
ENDBRANCH  24  27
ENDBRANCH   5  24
TORSDOF 8
