REMARK  Name = ZINC44809143
REMARK  6 active torsions:
REMARK  status: ('A' for Active; 'I' for Inactive)
REMARK    1  A    between atoms: C_1  and  C_2
REMARK    2  A    between atoms: C_2  and  C_4
REMARK    3  A    between atoms: C_2  and  C_6
REMARK    4  A    between atoms: N_8  and  C_9
REMARK    5  A    between atoms: C_9  and  C_11
REMARK    6  A    between atoms: C_9  and  C_12
REMARK                            x       y       z     vdW  Elec       q    Type
REMARK                         _______ _______ _______ _____ _____    ______ ____
ROOT
ATOM      1  C   UNL     1       2.727  -0.647   2.613  0.00  0.00    +0.076 C 
ATOM      2  C   UNL     1       3.294  -2.040   2.334  0.00  0.00    +0.028 C 
ENDROOT
BRANCH   1   3
ATOM      3  C   UNL     1       3.872   0.311   2.951  0.00  0.00    -0.010 C 
ATOM      4  C   UNL     1       3.305   1.705   3.229  0.00  0.00    +0.012 C 
ATOM      5  C   UNL     1       4.449   2.663   3.567  0.00  0.00    -0.010 C 
ATOM      6  C   UNL     1       5.189   2.156   4.807  0.00  0.00    +0.007 C 
ATOM      7  C   UNL     1       5.756   0.762   4.528  0.00  0.00    -0.010 C 
ATOM      8  C   UNL     1       4.612  -0.196   4.190  0.00  0.00    +0.012 C 
ATOM      9  C   UNL     1       6.727   0.833   3.348  0.00  0.00    +0.007 C 
ATOM     10  C   UNL     1       5.987   1.340   2.109  0.00  0.00    -0.010 C 
ATOM     11  C   UNL     1       5.420   2.734   2.387  0.00  0.00    +0.007 C 
ATOM     12  C   UNL     1       4.843   0.382   1.770  0.00  0.00    +0.012 C 
ENDBRANCH   1   3
BRANCH   1  15
ATOM     13  C   UNL     1       0.731  -0.503   1.223  0.00  0.00    +0.230 C 
ATOM     14  O   UNL     1       0.159  -1.213   2.023  0.00  0.00    -0.274 OA
ATOM     15  N   UNL     1       2.019  -0.161   1.426  0.00  0.00    -0.311 N 
ATOM     16  H   UNL     1       2.476   0.406   0.786  0.00  0.00    +0.149 HD
BRANCH  13  18
ATOM     17  C   UNL     1      -0.019   1.526   0.010  0.00  0.00    +0.033 C 
ATOM     18  C   UNL     1       0.002  -0.004   0.002  0.00  0.00    +0.174 C 
BRANCH  18  19
ATOM     19  C   UNL     1      -1.379  -0.514   0.013  0.00  0.00    +0.075 C 
ATOM     20  N   UNL     1      -2.445  -0.907   0.021  0.00  0.00    -0.196 NA
ENDBRANCH  18  19
ENDBRANCH  13  18
ENDBRANCH   1  15
TORSDOF 4
