REMARK  Name = ZINC52015809
REMARK  5 active torsions:
REMARK  status: ('A' for Active; 'I' for Inactive)
REMARK    1  A    between atoms: C_4  and  N_20
REMARK    2  A    between atoms: C_6  and  S_7
REMARK    3  A    between atoms: S_7  and  N_10
REMARK    4  A    between atoms: N_10  and  C_11
REMARK    5  A    between atoms: C_17  and  O_19
REMARK                            x       y       z     vdW  Elec       q    Type
REMARK                         _______ _______ _______ _____ _____    ______ ____
ROOT
ATOM      1  S   UNL     1      -1.500  -0.925   0.012  0.00  0.00    +0.059 S 
ATOM      2  O   UNL     1      -1.189  -2.202   0.553  0.00  0.00    -0.153 OA
ATOM      3  O   UNL     1      -2.492  -0.079   0.577  0.00  0.00    -0.153 OA
ENDROOT
BRANCH   1   9
ATOM      4  C   UNL     1      -0.017   1.384   0.010  0.00  0.00    +0.048 A 
ATOM      5  C   UNL     1       1.178   2.077   0.002  0.00  0.00    +0.115 A 
ATOM      6  N   UNL     1       2.331   1.436  -0.013  0.00  0.00    -0.241 NA
ATOM      7  C   UNL     1       2.391   0.113  -0.020  0.00  0.00    +0.118 A 
ATOM      8  C   UNL     1       1.227  -0.648  -0.014  0.00  0.00    +0.071 A 
ATOM      9  C   UNL     1       0.002  -0.004   0.002  0.00  0.00    +0.110 A 
BRANCH   7  10
ATOM     10  N   UNL     1       3.628  -0.520  -0.035  0.00  0.00    -0.343 N 
ATOM     11  H   UNL     1       4.442   0.006  -0.040  0.00  0.00    +0.144 HD
ATOM     12  H   UNL     1       3.677  -1.489  -0.041  0.00  0.00    +0.144 HD
ENDBRANCH   7  10
ENDBRANCH   1   9
BRANCH   1  13
ATOM     13  N   UNL     1      -1.933  -1.173  -1.567  0.00  0.00    -0.184 NA
ATOM     14  H   UNL     1      -2.746  -0.774  -1.915  0.00  0.00    +0.148 HD
BRANCH  13  15
ATOM     15  C   UNL     1      -1.088  -1.994  -2.438  0.00  0.00    +0.105 C 
ATOM     16  C   UNL     1      -0.135  -1.090  -3.223  0.00  0.00    +0.023 C 
ATOM     17  C   UNL     1      -0.945  -0.111  -4.074  0.00  0.00    +0.002 C 
ATOM     18  C   UNL     1      -1.827  -0.892  -5.051  0.00  0.00    +0.003 C 
ATOM     19  C   UNL     1      -2.780  -1.796  -4.266  0.00  0.00    +0.033 C 
ATOM     20  C   UNL     1      -1.970  -2.775  -3.415  0.00  0.00    +0.133 C 
BRANCH  20  21
ATOM     21  O   UNL     1      -2.860  -3.619  -2.682  0.00  0.00    -0.390 OA
ATOM     22  H   UNL     1      -3.451  -4.145  -3.238  0.00  0.00    +0.210 HD
ENDBRANCH  20  21
ENDBRANCH  13  15
ENDBRANCH   1  13
TORSDOF 5
