REMARK  Name = ZINC15952205
REMARK  3 active torsions:
REMARK  status: ('A' for Active; 'I' for Inactive)
REMARK    1  A    between atoms: C_4  and  C_24
REMARK    2  A    between atoms: C_5  and  C_7
REMARK    3  A    between atoms: N_13  and  C_14
REMARK                            x       y       z     vdW  Elec       q    Type
REMARK                         _______ _______ _______ _____ _____    ______ ____
ROOT
ATOM      1  C   UNL     1       1.532  -2.208   0.130  0.00  0.00    +0.209 C 
ATOM      2  N   UNL     1       2.652  -2.520   1.025  0.00  0.00    -0.335 N 
ATOM      3  C   UNL     1       2.444  -2.716   2.300  0.00  0.00    +0.191 C 
ATOM      4  N   UNL     1       1.211  -2.687   2.833  0.00  0.00    -0.187 NA
ATOM      5  C   UNL     1       0.138  -2.709   2.064  0.00  0.00    +0.189 C 
ATOM      6  N   UNL     1       0.307  -2.791   0.701  0.00  0.00    -0.248 N 
ATOM      7  N   UNL     1      -1.114  -2.653   2.610  0.00  0.00    -0.331 N 
ATOM      8  N   UNL     1       3.524  -2.962   3.124  0.00  0.00    -0.329 N 
ATOM      9  H   UNL     1      -1.221  -2.528   3.566  0.00  0.00    +0.145 HD
ATOM     10  H   UNL     1      -1.895  -2.739   2.041  0.00  0.00    +0.145 HD
ATOM     11  H   UNL     1       4.420  -2.987   2.754  0.00  0.00    +0.145 HD
ATOM     12  H   UNL     1       3.386  -3.110   4.072  0.00  0.00    +0.145 HD
ATOM     13  H   UNL     1       3.552  -2.581   0.668  0.00  0.00    +0.164 HD
ENDROOT
BRANCH   6  14
ATOM     14  C   UNL     1      -0.650  -3.408  -0.114  0.00  0.00    +0.040 A 
ATOM     15  C   UNL     1      -0.877  -4.774  -0.008  0.00  0.00    +0.026 A 
ATOM     16  C   UNL     1      -1.821  -5.381  -0.812  0.00  0.00    +0.041 A 
ATOM     17  C   UNL     1      -2.542  -4.628  -1.725  0.00  0.00    +0.142 A 
ATOM     18  C   UNL     1      -2.317  -3.265  -1.833  0.00  0.00    +0.078 A 
ATOM     19  C   UNL     1      -1.377  -2.654  -1.025  0.00  0.00    +0.046 A 
ATOM     20 CL   UNL     1      -3.221  -2.325  -2.978  0.00  0.00    -0.081 Cl
ATOM     21  F   UNL     1      -3.465  -5.224  -2.511  0.00  0.00    -0.204 F 
ENDBRANCH   6  14
BRANCH   1  26
ATOM     22  C   UNL     1       0.358   1.328   0.741  0.00  0.00    +0.000 A 
ATOM     23  C   UNL     1       1.088   2.028  -0.202  0.00  0.00    +0.001 A 
ATOM     24  C   UNL     1       1.960   1.357  -1.037  0.00  0.00    +0.013 A 
ATOM     25  C   UNL     1       2.104  -0.014  -0.930  0.00  0.00    +0.062 A 
ATOM     26  C   UNL     1       1.375  -0.714   0.014  0.00  0.00    +0.005 A 
ATOM     27  C   UNL     1       0.501  -0.043   0.849  0.00  0.00    +0.008 A 
BRANCH  25  28
ATOM     28  C   UNL     1       3.055  -0.746  -1.842  0.00  0.00    +0.418 C 
ATOM     29  F   UNL     1       3.700   0.173  -2.677  0.00  0.00    -0.166 F 
ATOM     30  F   UNL     1       4.007  -1.426  -1.074  0.00  0.00    -0.166 F 
ATOM     31  F   UNL     1       2.342  -1.663  -2.620  0.00  0.00    -0.166 F 
ENDBRANCH  25  28
ENDBRANCH   1  26
TORSDOF 3
