REMARK  Name = ZINC11874583
REMARK  9 active torsions:
REMARK  status: ('A' for Active; 'I' for Inactive)
REMARK    1  A    between atoms: C_1  and  C_2
REMARK    2  A    between atoms: C_5  and  C_7
REMARK    3  A    between atoms: C_7  and  N_8
REMARK    4  A    between atoms: C_9  and  C_11
REMARK    5  A    between atoms: C_11  and  C_12
REMARK    6  A    between atoms: C_19  and  C_20
REMARK    7  A    between atoms: C_19  and  N_52
REMARK    8  A    between atoms: C_25  and  O_26
REMARK    9  A    between atoms: O_26  and  C_27
REMARK                            x       y       z     vdW  Elec       q    Type
REMARK                         _______ _______ _______ _____ _____    ______ ____
ROOT
ATOM      1  C   UNL     1       4.181   5.346   1.483  0.00  0.00    +0.028 C 
ATOM      2  C   UNL     1       4.864   5.877   2.712  0.00  0.00    +0.200 C 
ATOM      3  O   UNL     1       5.627   6.813   2.595  0.00  0.00    -0.278 OA
ATOM      4  N   UNL     1       4.667   5.360   3.930  0.00  0.00    -0.318 N 
ATOM      5  C   UNL     1       3.743   4.258   4.184  0.00  0.00    +0.085 C 
ATOM      6  C   UNL     1       3.424   3.530   2.877  0.00  0.00    -0.058 C 
ATOM      7  H   UNL     1       5.159   5.734   4.677  0.00  0.00    +0.149 HD
ATOM      8  N   UNL     1       3.013   4.538   1.880  0.00  0.00    +0.391 N 
ATOM      9  H   UNL     1       2.305   5.154   2.297  0.00  0.00    -0.080 HD
ENDROOT
BRANCH   1  10
ATOM     10  C   UNL     1       3.706   6.518   0.621  0.00  0.00    +0.089 C 
BRANCH  10  12
ATOM     11  N   UNL     1       2.290   8.527   0.896  0.00  0.00    -0.308 N 
ATOM     12  C   UNL     1       2.753   7.372   1.415  0.00  0.00    +0.212 C 
ATOM     13  O   UNL     1       2.402   7.021   2.522  0.00  0.00    -0.276 OA
ATOM     14  H   UNL     1       2.570   8.807   0.011  0.00  0.00    +0.149 HD
BRANCH  11  15
ATOM     15  C   UNL     1       1.362   9.357   1.668  0.00  0.00    +0.178 C 
BRANCH  15  20
ATOM     16  C   UNL     1       1.482  14.039  -0.206  0.00  0.00    +0.086 C 
ATOM     17  C   UNL     1       1.052  12.617   0.053  0.00  0.00    +0.102 A 
ATOM     18  C   UNL     1       0.000  11.998  -0.512  0.00  0.00    +0.045 A 
ATOM     19  C   UNL     1      -0.033  10.686   0.013  0.00  0.00    +0.046 A 
ATOM     20  C   UNL     1       1.000  10.582   0.869  0.00  0.00    +0.122 A 
ATOM     21  O   UNL     1       1.651  11.757   0.893  0.00  0.00    -0.463 OA
ENDBRANCH  15  20
ENDBRANCH  11  15
ENDBRANCH  10  12
ENDBRANCH   1  10
BRANCH   8  22
ATOM     22  C   UNL     1       2.431   3.872   0.692  0.00  0.00    -0.038 C 
BRANCH  22  23
ATOM     23  C   UNL     1       1.046   3.387   1.035  0.00  0.00    -0.022 A 
ATOM     24  C   UNL     1       0.836   2.057   1.346  0.00  0.00    +0.005 A 
ATOM     25  C   UNL     1      -0.434   1.612   1.660  0.00  0.00    +0.000 A 
ATOM     26  C   UNL     1      -1.499   2.494   1.657  0.00  0.00    +0.004 A 
ATOM     27  C   UNL     1      -1.294   3.826   1.353  0.00  0.00    +0.046 A 
ATOM     28  C   UNL     1      -0.019   4.275   1.037  0.00  0.00    +0.121 A 
BRANCH  28  29
ATOM     29  O   UNL     1       0.185   5.584   0.732  0.00  0.00    -0.495 OA
ATOM     30  C   UNL     1      -0.958   6.441   0.755  0.00  0.00    +0.277 C 
ENDBRANCH  28  29
ENDBRANCH  22  23
ENDBRANCH   8  22
TORSDOF 7
