REMARK  Name = ZINC24871504
REMARK  7 active torsions:
REMARK  status: ('A' for Active; 'I' for Inactive)
REMARK    1  A    between atoms: C_1  and  C_2
REMARK    2  A    between atoms: C_5  and  C_16
REMARK    3  A    between atoms: C_7  and  N_8
REMARK    4  A    between atoms: C_9  and  C_11
REMARK    5  A    between atoms: N_18  and  C_19
REMARK    6  A    between atoms: C_24  and  O_25
REMARK    7  A    between atoms: O_25  and  C_26
REMARK                            x       y       z     vdW  Elec       q    Type
REMARK                         _______ _______ _______ _____ _____    ______ ____
ROOT
ATOM      1  C   UNL     1      -1.323   1.779   0.050  0.00  0.00    +0.248 C 
ATOM      2  O   UNL     1      -2.366   1.154   0.040  0.00  0.00    -0.270 OA
ATOM      3  N   UNL     1      -1.346   3.127   0.076  0.00  0.00    -0.279 N 
ATOM      4  H   UNL     1      -0.408   3.694  -0.013  0.00  0.00    +0.155 HD
ENDROOT
BRANCH   1   9
ATOM      5  C   UNL     1       3.719  -1.002  -0.030  0.00  0.00    +0.045 C 
ATOM      6  C   UNL     1       2.398  -0.276  -0.007  0.00  0.00    -0.029 A 
ATOM      7  C   UNL     1       2.373   1.106   0.019  0.00  0.00    +0.006 A 
ATOM      8  C   UNL     1       1.168   1.778   0.040  0.00  0.00    +0.013 A 
ATOM      9  C   UNL     1      -0.031   1.062   0.034  0.00  0.00    +0.039 A 
ATOM     10  C   UNL     1      -0.005  -0.332   0.008  0.00  0.00    +0.036 A 
ATOM     11  C   UNL     1       1.211  -0.998  -0.013  0.00  0.00    +0.037 A 
BRANCH  11  12
ATOM     12  N   UNL     1       1.242  -2.396  -0.039  0.00  0.00    -0.279 N 
ATOM     13  C   UNL     1       0.304  -3.104   0.621  0.00  0.00    +0.284 C 
ATOM     14  O   UNL     1      -0.618  -2.529   1.169  0.00  0.00    -0.266 OA
ATOM     15  H   UNL     1       2.033  -2.918  -0.598  0.00  0.00    +0.155 HD
BRANCH  13  16
ATOM     16  C   UNL     1       0.394  -4.566   0.678  0.00  0.00    +0.189 A 
ATOM     17  C   UNL     1      -0.484  -5.400   1.309  0.00  0.00    +0.054 A 
ATOM     18  C   UNL     1      -0.014  -6.707   1.109  0.00  0.00    +0.042 A 
ATOM     19  C   UNL     1       1.116  -6.615   0.374  0.00  0.00    +0.196 A 
ATOM     20  O   UNL     1       1.356  -5.324   0.112  0.00  0.00    -0.458 OA
ENDBRANCH  13  16
ENDBRANCH  11  12
ENDBRANCH   1   9
BRANCH   3  21
ATOM     21  C   UNL     1      -2.563   3.804   0.216  0.00  0.00    +0.076 A 
ATOM     22  C   UNL     1      -3.642   3.178   0.823  0.00  0.00    +0.027 A 
ATOM     23  C   UNL     1      -4.841   3.850   0.964  0.00  0.00    +0.002 A 
ATOM     24  C   UNL     1      -4.973   5.143   0.493  0.00  0.00    +0.004 A 
ATOM     25  C   UNL     1      -3.904   5.772  -0.118  0.00  0.00    +0.048 A 
ATOM     26  C   UNL     1      -2.696   5.107  -0.259  0.00  0.00    +0.150 A 
BRANCH  26  27
ATOM     27  O   UNL     1      -1.645   5.725  -0.860  0.00  0.00    -0.454 OA
BRANCH  27  28
ATOM     28  C   UNL     1      -1.495   5.570  -2.201  0.00  0.00    +0.129 A 
ATOM     29  C   UNL     1      -2.454   4.885  -2.933  0.00  0.00    +0.046 A 
ATOM     30  C   UNL     1      -2.302   4.733  -4.298  0.00  0.00    +0.004 A 
ATOM     31  C   UNL     1      -1.191   5.255  -4.933  0.00  0.00    +0.000 A 
ATOM     32  C   UNL     1      -0.231   5.935  -4.205  0.00  0.00    +0.004 A 
ATOM     33  C   UNL     1      -0.381   6.093  -2.841  0.00  0.00    +0.046 A 
ENDBRANCH  27  28
ENDBRANCH  26  27
ENDBRANCH   3  21
TORSDOF 6
