REMARK  Name = ZINC01196773
REMARK  9 active torsions:
REMARK  status: ('A' for Active; 'I' for Inactive)
REMARK    1  A    between atoms: C_1  and  C_2
REMARK    2  A    between atoms: C_7  and  N_8
REMARK    3  A    between atoms: C_9  and  C_11
REMARK    4  A    between atoms: C_12  and  C_32
REMARK    5  A    between atoms: C_14  and  S_27
REMARK    6  A    between atoms: C_15  and  C_25
REMARK    7  A    between atoms: C_16  and  C_18
REMARK    8  A    between atoms: S_27  and  C_28
REMARK    9  A    between atoms: C_28  and  C_29
REMARK                            x       y       z     vdW  Elec       q    Type
REMARK                         _______ _______ _______ _____ _____    ______ ____
ROOT
ATOM      1  C   UNL     1       6.096   2.013  -0.074  0.00  0.00    +0.044 C 
ATOM      2  C   UNL     1       7.200   1.253  -0.145  0.00  0.00    +0.014 C 
ATOM      3  N   UNL     1       8.446   1.820  -0.173  0.00  0.00    -0.312 N 
ATOM      4  C   UNL     1       8.593   3.151  -0.490  0.00  0.00    +0.080 C 
ATOM      5  C   UNL     1       7.529   3.997  -0.432  0.00  0.00    +0.069 C 
ATOM      6  C   UNL     1       6.171   3.512  -0.018  0.00  0.00    +0.100 C 
ATOM      7  C   UNL     1       7.067  -0.247  -0.195  0.00  0.00    +0.061 C 
ATOM      8  H   UNL     1       9.332   1.211   0.059  0.00  0.00    +0.152 HD
ENDROOT
BRANCH   6   9
ATOM      9  C   UNL     1       5.894   3.970   1.391  0.00  0.00    -0.016 A 
ATOM     10  C   UNL     1       6.764   3.633   2.411  0.00  0.00    +0.006 A 
ATOM     11  C   UNL     1       6.513   4.057   3.702  0.00  0.00    +0.000 A 
ATOM     12  C   UNL     1       5.386   4.810   3.976  0.00  0.00    +0.001 A 
ATOM     13  C   UNL     1       4.513   5.143   2.958  0.00  0.00    +0.020 A 
ATOM     14  C   UNL     1       4.767   4.723   1.665  0.00  0.00    +0.045 A 
ATOM     15 CL   UNL     1       3.671   5.142   0.385  0.00  0.00    -0.083 Cl
ENDBRANCH   6   9
BRANCH   1  17
ATOM     16  N   UNL     1       4.312   0.939   1.107  0.00  0.00    -0.281 N 
ATOM     17  C   UNL     1       4.827   1.385  -0.056  0.00  0.00    +0.247 C 
ATOM     18  O   UNL     1       4.202   1.248  -1.092  0.00  0.00    -0.270 OA
ATOM     19  H   UNL     1       4.833   1.145   2.054  0.00  0.00    +0.155 HD
BRANCH  16  26
ATOM     20  C   UNL     1       2.740   0.952   3.479  0.00  0.00    +0.045 C 
ATOM     21  C   UNL     1       2.318   0.194   2.246  0.00  0.00    -0.029 A 
ATOM     22  C   UNL     1       1.136  -0.521   2.246  0.00  0.00    +0.005 A 
ATOM     23  C   UNL     1       0.748  -1.216   1.115  0.00  0.00    +0.000 A 
ATOM     24  C   UNL     1       1.540  -1.197  -0.018  0.00  0.00    +0.002 A 
ATOM     25  C   UNL     1       2.722  -0.483  -0.024  0.00  0.00    +0.023 A 
ATOM     26  C   UNL     1       3.115   0.216   1.110  0.00  0.00    +0.037 A 
ENDBRANCH  16  26
ENDBRANCH   1  17
BRANCH   5  27
ATOM     27  C   UNL     1       7.708   5.375  -0.776  0.00  0.00    +0.098 C 
ATOM     28  N   UNL     1       7.849   6.469  -1.049  0.00  0.00    -0.191 NA
ENDBRANCH   5  27
BRANCH   4  29
ATOM     29  S   UNL     1      10.172   3.765  -0.977  0.00  0.00    -0.100 S 
BRANCH  29  30
ATOM     30  C   UNL     1      11.146   2.243  -0.871  0.00  0.00    +0.171 C 
BRANCH  30  31
ATOM     31  C   UNL     1      12.575   2.534  -1.255  0.00  0.00    +0.221 C 
ATOM     32  O   UNL     1      12.901   3.658  -1.569  0.00  0.00    -0.275 OA
ATOM     33  N   UNL     1      13.489   1.543  -1.249  0.00  0.00    -0.329 N 
ATOM     34  H   UNL     1      14.531   1.755  -1.530  0.00  0.00    +0.145 HD
ATOM     35  H   UNL     1      13.192   0.523  -0.965  0.00  0.00    +0.145 HD
ENDBRANCH  30  31
ENDBRANCH  29  30
ENDBRANCH   4  29
TORSDOF 7
