REMARK  Name = ZINC66473399
REMARK  12 active torsions:
REMARK  status: ('A' for Active; 'I' for Inactive)
REMARK    1  A    between atoms: C_1  and  C_2
REMARK    2  A    between atoms: C_2  and  C_3
REMARK    3  A    between atoms: C_3  and  C_4
REMARK    4  A    between atoms: C_4  and  N_5
REMARK    5  A    between atoms: C_6  and  C_8
REMARK    6  A    between atoms: C_12  and  C_28
REMARK    7  A    between atoms: N_14  and  C_16
REMARK    8  A    between atoms: C_16  and  C_17
REMARK    9  A    between atoms: N_19  and  C_20
REMARK   10  A    between atoms: C_21  and  C_27
REMARK   11  A    between atoms: N_23  and  C_26
REMARK   12  A    between atoms: C_24  and  C_25
REMARK                            x       y       z     vdW  Elec       q    Type
REMARK                         _______ _______ _______ _____ _____    ______ ____
ROOT
ATOM      1  C   UNL     1      -1.690  -5.097   2.433  0.00  0.00    +0.058 C 
ATOM      2  C   UNL     1      -2.543  -4.715   3.647  0.00  0.00    +0.009 C 
ATOM      3  C   UNL     1      -2.889  -5.982   4.434  0.00  0.00    -0.015 C 
ATOM      4  C   UNL     1      -3.604  -6.971   3.511  0.00  0.00    -0.071 C 
ATOM      5  N   UNL     1      -2.728  -7.317   2.385  0.00  0.00    +0.388 N 
ATOM      6  C   UNL     1      -2.449  -6.118   1.583  0.00  0.00    -0.065 C 
ATOM      7  C   UNL     1      -3.951  -8.239   4.293  0.00  0.00    -0.013 C 
ATOM      8  H   UNL     1      -1.860  -7.692   2.739  0.00  0.00    -0.081 HD
ENDROOT
BRANCH   1  10
ATOM      9  N   UNL     1       0.448  -4.977   3.671  0.00  0.00    -0.315 N 
ATOM     10  C   UNL     1      -0.390  -5.699   2.901  0.00  0.00    +0.214 C 
ATOM     11  O   UNL     1      -0.098  -6.833   2.584  0.00  0.00    -0.276 OA
ATOM     12  H   UNL     1       0.214  -4.071   3.925  0.00  0.00    +0.149 HD
BRANCH   9  13
ATOM     13  C   UNL     1       1.712  -5.562   4.126  0.00  0.00    +0.104 C 
BRANCH  13  14
ATOM     14  C   UNL     1       2.469  -4.542   4.978  0.00  0.00    +0.018 C 
BRANCH  14  16
ATOM     15  C   UNL     1       4.546  -4.132   6.304  0.00  0.00    +0.004 C 
ATOM     16  C   UNL     1       3.789  -5.152   5.453  0.00  0.00    -0.002 C 
ENDBRANCH  14  16
ENDBRANCH  13  14
ENDBRANCH   9  13
ENDBRANCH   1  10
BRANCH   5  17
ATOM     17  C   UNL     1      -3.387  -8.324   1.544  0.00  0.00    +0.019 C 
BRANCH  17  18
ATOM     18  C   UNL     1      -2.442  -8.770   0.459  0.00  0.00    +0.201 C 
ATOM     19  O   UNL     1      -1.327  -8.295   0.393  0.00  0.00    -0.278 OA
ATOM     20  N   UNL     1      -2.834  -9.697  -0.438  0.00  0.00    -0.284 N 
ATOM     21  H   UNL     1      -3.702 -10.119  -0.350  0.00  0.00    +0.155 HD
BRANCH  20  22
ATOM     22  C   UNL     1      -1.982 -10.051  -1.501  0.00  0.00    +0.077 A 
ATOM     23  C   UNL     1      -1.495  -9.187  -2.493  0.00  0.00    +0.081 A 
ATOM     24  N   UNL     1      -0.737  -9.878  -3.305  0.00  0.00    -0.175 NA
ATOM     25  N   UNL     1      -0.712 -11.207  -2.862  0.00  0.00    -0.270 N 
ATOM     26  C   UNL     1      -1.482 -11.289  -1.747  0.00  0.00    +0.057 A 
ATOM     27  C   UNL     1      -1.738 -12.531  -0.931  0.00  0.00    +0.067 C 
ATOM     28  C   UNL     1       0.019 -12.311  -3.489  0.00  0.00    +0.172 C 
ATOM     29  C   UNL     1      -1.794  -7.714  -2.604  0.00  0.00    +0.069 C 
ENDBRANCH  20  22
ENDBRANCH  17  18
ENDBRANCH   5  17
TORSDOF 7
