REMARK  Name = ZINC04476870
REMARK  8 active torsions:
REMARK  status: ('A' for Active; 'I' for Inactive)
REMARK    1  A    between atoms: C_1  and  C_2
REMARK    2  A    between atoms: C_2  and  C_3
REMARK    3  A    between atoms: C_2  and  C_4
REMARK    4  A    between atoms: C_2  and  N_5
REMARK    5  A    between atoms: C_6  and  C_10
REMARK    6  A    between atoms: C_10  and  C_12
REMARK    7  A    between atoms: C_10  and  N_51
REMARK    8  A    between atoms: N_19  and  C_22
REMARK                            x       y       z     vdW  Elec       q    Type
REMARK                         _______ _______ _______ _____ _____    ______ ____
ROOT
ATOM      1  C   UNL     1       0.889   9.411  -1.410  0.00  0.00    +0.040 C 
ENDROOT
BRANCH   1   7
ATOM      2  C   UNL     1       1.779   7.737   0.097  0.00  0.00    -0.058 C 
ATOM      3  C   UNL     1       1.729   6.251   0.461  0.00  0.00    +0.088 C 
ATOM      4  N   UNL     1       0.365   5.897   0.876  0.00  0.00    -0.320 N 
ATOM      5  C   UNL     1      -0.598   6.168  -0.200  0.00  0.00    +0.088 C 
ATOM      6  C   UNL     1      -0.548   7.654  -0.564  0.00  0.00    -0.058 C 
ATOM      7  N   UNL     1       0.824   7.991  -1.001  0.00  0.00    +0.391 N 
ATOM      8  H   UNL     1       1.073   7.401  -1.804  0.00  0.00    -0.080 HD
BRANCH   4   9
ATOM      9  C   UNL     1       0.296   4.569   1.283  0.00  0.00    +0.099 A 
ATOM     10  C   UNL     1      -0.916   4.042   1.716  0.00  0.00    +0.042 A 
ATOM     11  C   UNL     1      -0.971   2.719   2.113  0.00  0.00    +0.005 A 
ATOM     12  C   UNL     1       0.196   1.966   2.074  0.00  0.00    +0.018 A 
ATOM     13  C   UNL     1       1.365   2.554   1.634  0.00  0.00    +0.084 A 
ATOM     14  N   UNL     1       1.454   3.850   1.231  0.00  0.00    -0.350 N 
ATOM     15  H   UNL     1       2.338   4.261   0.908  0.00  0.00    +0.166 HD
ENDBRANCH   4   9
ENDBRANCH   1   7
BRANCH   1  17
ATOM     16  N   UNL     1      -1.149  10.722  -2.205  0.00  0.00    -0.225 N 
ATOM     17  C   UNL     1      -0.265   9.714  -2.330  0.00  0.00    +0.143 A 
ATOM     18  N   UNL     1      -0.607   9.044  -3.403  0.00  0.00    -0.115 NA
ATOM     19  N   UNL     1      -1.643   9.614  -3.915  0.00  0.00    -0.023 NA
ATOM     20  N   UNL     1      -1.972  10.630  -3.195  0.00  0.00    -0.043 NA
BRANCH  16  22
ATOM     21  C   UNL     1       0.173  12.467  -1.115  0.00  0.00    +0.036 C 
ATOM     22  C   UNL     1      -1.170  11.735  -1.147  0.00  0.00    +0.059 C 
ATOM     23  C   UNL     1      -2.292  12.738  -1.424  0.00  0.00    +0.036 C 
ATOM     24  C   UNL     1      -1.415  11.057   0.203  0.00  0.00    +0.036 C 
ENDBRANCH  16  22
ENDBRANCH   1  17
BRANCH   1  25
ATOM     25  C   UNL     1       2.187   9.647  -2.137  0.00  0.00    -0.016 A 
ATOM     26  C   UNL     1       3.040  10.696  -2.043  0.00  0.00    +0.010 A 
ATOM     27  C   UNL     1       4.188  10.699  -2.813  0.00  0.00    +0.008 A 
ATOM     28  C   UNL     1       4.421   9.657  -3.648  0.00  0.00    +0.045 A 
ATOM     29  S   UNL     1       2.997   8.621  -3.354  0.00  0.00    -0.103 S 
ENDBRANCH   1  25
TORSDOF 5
