REMARK  Name = ZINC08743565
REMARK  4 active torsions:
REMARK  status: ('A' for Active; 'I' for Inactive)
REMARK    1  A    between atoms: C_8  and  O_26
REMARK    2  A    between atoms: N_13  and  C_14
REMARK    3  A    between atoms: C_14  and  C_15
REMARK    4  A    between atoms: N_17  and  C_18
REMARK                            x       y       z     vdW  Elec       q    Type
REMARK                         _______ _______ _______ _____ _____    ______ ____
ROOT
ATOM      1  C   UNL     1      -0.034   1.344  -0.051  0.00  0.00    +0.002 A 
ATOM      2  C   UNL     1       1.146   2.067  -0.055  0.00  0.00    +0.002 A 
ATOM      3  C   UNL     1       2.366   1.413  -0.059  0.00  0.00    +0.026 A 
ATOM      4  C   UNL     1       2.403   0.033  -0.059  0.00  0.00    +0.064 A 
ATOM      5  C   UNL     1       1.211  -0.707  -0.060  0.00  0.00    +0.089 A 
ATOM      6  C   UNL     1      -0.010  -0.037  -0.053  0.00  0.00    +0.030 A 
ATOM      7  N   UNL     1       1.264  -2.075  -0.074  0.00  0.00    -0.214 NA
ATOM      8  C   UNL     1       2.353  -2.719   0.203  0.00  0.00    +0.206 C 
ATOM      9  C   UNL     1       3.624  -1.999   0.573  0.00  0.00    +0.210 C 
ATOM     10  N   UNL     1       3.619  -0.667  -0.054  0.00  0.00    -0.245 N 
ATOM     11  C   UNL     1       4.734  -0.143  -0.600  0.00  0.00    +0.307 C 
ATOM     12  O   UNL     1       4.700   0.960  -1.111  0.00  0.00    -0.252 OA
ATOM     13  N   UNL     1       5.887  -0.840  -0.579  0.00  0.00    -0.290 N 
ATOM     14  H   UNL     1       5.914  -1.720  -0.171  0.00  0.00    +0.151 HD
ENDROOT
BRANCH   8  15
ATOM     15  O   UNL     1       2.349  -4.067   0.161  0.00  0.00    -0.494 OA
ATOM     16  H   UNL     1       1.495  -4.450  -0.084  0.00  0.00    +0.293 HD
ENDBRANCH   8  15
BRANCH  13  17
ATOM     17  C   UNL     1       7.099  -0.270  -1.172  0.00  0.00    +0.202 C 
BRANCH  17  18
ATOM     18  C   UNL     1       8.240  -1.244  -1.018  0.00  0.00    +0.234 C 
ATOM     19  O   UNL     1       8.058  -2.308  -0.467  0.00  0.00    -0.274 OA
ATOM     20  N   UNL     1       9.462  -0.930  -1.492  0.00  0.00    -0.283 N 
ATOM     21  H   UNL     1       9.593  -0.108  -1.990  0.00  0.00    +0.155 HD
BRANCH  20  22
ATOM     22  C   UNL     1      10.542  -1.792  -1.267  0.00  0.00    +0.052 A 
ATOM     23  C   UNL     1      10.343  -3.166  -1.244  0.00  0.00    +0.026 A 
ATOM     24  C   UNL     1      11.410  -4.014  -1.021  0.00  0.00    +0.022 A 
ATOM     25  C   UNL     1      12.678  -3.496  -0.821  0.00  0.00    +0.042 A 
ATOM     26  C   UNL     1      12.880  -2.127  -0.844  0.00  0.00    +0.041 A 
ATOM     27  C   UNL     1      11.817  -1.274  -1.072  0.00  0.00    +0.064 A 
ATOM     28 CL   UNL     1      12.072   0.443  -1.108  0.00  0.00    -0.082 Cl
ATOM     29 CL   UNL     1      14.016  -4.565  -0.540  0.00  0.00    -0.083 Cl
ENDBRANCH  20  22
ENDBRANCH  17  18
ENDBRANCH  13  17
TORSDOF 4
