REMARK  Name = ZINC09723373
REMARK  11 active torsions:
REMARK  status: ('A' for Active; 'I' for Inactive)
REMARK    1  A    between atoms: C_1  and  C_2
REMARK    2  A    between atoms: C_2  and  C_4
REMARK    3  A    between atoms: C_2  and  N_66
REMARK    4  A    between atoms: C_17  and  C_18
REMARK    5  A    between atoms: C_17  and  N_66
REMARK    6  A    between atoms: C_18  and  C_20
REMARK    7  A    between atoms: C_18  and  C_30
REMARK    8  A    between atoms: C_24  and  O_28
REMARK    9  A    between atoms: C_25  and  O_26
REMARK   10  A    between atoms: O_26  and  C_27
REMARK   11  A    between atoms: O_28  and  C_29
REMARK                            x       y       z     vdW  Elec       q    Type
REMARK                         _______ _______ _______ _____ _____    ______ ____
ROOT
ATOM      1  C   UNL     1       1.630   4.215   0.009  0.00  0.00    +0.038 C 
ENDROOT
BRANCH   1   2
ATOM      2  C   UNL     1       0.708   3.023  -0.003  0.00  0.00    -0.017 A 
ATOM      3  C   UNL     1       1.072   1.731  -0.022  0.00  0.00    +0.087 A 
ATOM      4  N   UNL     1      -0.039   0.933  -0.027  0.00  0.00    -0.360 N 
ATOM      5  H   UNL     1      -0.028  -0.037  -0.041  0.00  0.00    +0.165 HD
ATOM      6  C   UNL     1      -1.175   1.711  -0.017  0.00  0.00    +0.047 A 
ATOM      7  C   UNL     1      -0.757   3.054   0.004  0.00  0.00    +0.003 A 
ATOM      8  C   UNL     1      -1.706   4.078   0.022  0.00  0.00    +0.010 A 
ATOM      9  C   UNL     1      -3.037   3.770   0.024  0.00  0.00    +0.001 A 
ATOM     10  C   UNL     1      -3.454   2.446   0.008  0.00  0.00    +0.002 A 
ATOM     11  C   UNL     1      -2.535   1.420  -0.010  0.00  0.00    +0.026 A 
ENDBRANCH   1   2
BRANCH   1  12
ATOM     12  C   UNL     1       2.505   4.160   1.235  0.00  0.00    +0.004 A 
ATOM     13  C   UNL     1       3.348   3.083   1.436  0.00  0.00    +0.008 A 
ATOM     14  C   UNL     1       4.152   3.031   2.558  0.00  0.00    +0.004 A 
ATOM     15  C   UNL     1       4.117   4.055   3.487  0.00  0.00    +0.049 A 
ATOM     16  C   UNL     1       3.274   5.137   3.292  0.00  0.00    +0.162 A 
ATOM     17  C   UNL     1       2.468   5.192   2.159  0.00  0.00    +0.165 A 
BRANCH  17  18
ATOM     18  O   UNL     1       1.643   6.255   1.961  0.00  0.00    -0.491 OA
ATOM     19  C   UNL     1       0.323   6.161   2.501  0.00  0.00    +0.277 C 
ENDBRANCH  17  18
BRANCH  16  20
ATOM     20  O   UNL     1       3.238   6.145   4.204  0.00  0.00    -0.491 OA
ATOM     21  C   UNL     1       4.097   6.024   5.340  0.00  0.00    +0.277 C 
ENDBRANCH  16  20
ENDBRANCH   1  12
BRANCH   1  22
ATOM     22  C   UNL     1       2.506   4.194  -1.244  0.00  0.00    -0.069 C 
BRANCH  22  23
ATOM     23  N   UNL     1       1.653   4.369  -2.434  0.00  0.00    +0.387 N 
ATOM     24  H   UNL     1       0.968   3.604  -2.475  0.00  0.00    -0.085 HD
ATOM     25  H   UNL     1       1.159   5.267  -2.368  0.00  0.00    -0.085 HD
BRANCH  23  27
ATOM     26  C   UNL     1       3.022   5.756  -3.925  0.00  0.00    -0.004 C 
ATOM     27  C   UNL     1       2.473   4.353  -3.660  0.00  0.00    +0.013 C 
BRANCH  27  28
ATOM     28  C   UNL     1       1.617   3.920  -4.822  0.00  0.00    +0.206 C 
ATOM     29  O   UNL     1       0.416   4.083  -4.785  0.00  0.00    -0.277 OA
ATOM     30  N   UNL     1       2.187   3.352  -5.904  0.00  0.00    -0.262 N 
ATOM     31  C   UNL     1       3.627   3.058  -5.937  0.00  0.00    +0.209 C 
ATOM     32  C   UNL     1       4.177   3.425  -7.287  0.00  0.00    +0.235 C 
ATOM     33  O   UNL     1       5.336   3.766  -7.388  0.00  0.00    -0.274 OA
ATOM     34  N   UNL     1       3.398   3.383  -8.384  0.00  0.00    -0.283 N 
ATOM     35  C   UNL     1       2.045   3.041  -8.288  0.00  0.00    +0.055 A 
ATOM     36  C   UNL     1       1.425   3.027  -7.037  0.00  0.00    +0.058 A 
ATOM     37  C   UNL     1       0.086   2.698  -6.928  0.00  0.00    +0.025 A 
ATOM     38  C   UNL     1      -0.637   2.378  -8.064  0.00  0.00    +0.002 A 
ATOM     39  C   UNL     1      -0.025   2.388  -9.303  0.00  0.00    +0.002 A 
ATOM     40  C   UNL     1       1.313   2.718  -9.420  0.00  0.00    +0.025 A 
ATOM     41  H   UNL     1       3.779   3.592  -9.251  0.00  0.00    +0.155 HD
ENDBRANCH  27  28
ENDBRANCH  23  27
ENDBRANCH  22  23
ENDBRANCH   1  22
TORSDOF 8
