REMARK  Name = ZINC06499293
REMARK  9 active torsions:
REMARK  status: ('A' for Active; 'I' for Inactive)
REMARK    1  A    between atoms: C_1  and  C_2
REMARK    2  A    between atoms: C_2  and  C_3
REMARK    3  A    between atoms: C_3  and  C_4
REMARK    4  A    between atoms: C_7  and  C_18
REMARK    5  A    between atoms: C_13  and  N_17
REMARK    6  A    between atoms: C_14  and  C_15
REMARK    7  A    between atoms: C_18  and  C_19
REMARK    8  A    between atoms: C_18  and  C_20
REMARK    9  A    between atoms: C_18  and  C_21
REMARK                            x       y       z     vdW  Elec       q    Type
REMARK                         _______ _______ _______ _____ _____    ______ ____
ROOT
ATOM      1  C   UNL     1       0.831  -2.614   1.200  0.00  0.00    +0.071 C 
ATOM      2  C   UNL     1       1.843  -3.077   2.216  0.00  0.00    +0.046 A 
ATOM      3  C   UNL     1       3.202  -2.805   2.291  0.00  0.00    +0.076 A 
ATOM      4  N   UNL     1       3.684  -3.419   3.345  0.00  0.00    -0.175 NA
ATOM      5  N   UNL     1       2.634  -4.105   3.977  0.00  0.00    -0.246 N 
ATOM      6  H   UNL     1       2.705  -4.643   4.781  0.00  0.00    +0.192 HD
ATOM      7  C   UNL     1       1.514  -3.884   3.269  0.00  0.00    +0.222 A 
ATOM      8  O   UNL     1       0.253  -4.335   3.481  0.00  0.00    -0.423 OA
ATOM      9  C   UNL     1      -0.636  -4.197   2.476  0.00  0.00    +0.200 C 
ATOM     10  C   UNL     1      -0.431  -3.418   1.390  0.00  0.00    +0.094 C 
ENDROOT
BRANCH   3  11
ATOM     11  C   UNL     1       3.988  -1.953   1.327  0.00  0.00    +0.007 C 
ATOM     12  C   UNL     1       4.029  -0.511   1.838  0.00  0.00    +0.017 C 
ATOM     13  C   UNL     1       5.415  -2.494   1.214  0.00  0.00    +0.017 C 
ATOM     14  C   UNL     1       3.319  -1.988  -0.048  0.00  0.00    +0.017 C 
ENDBRANCH   3  11
BRANCH   9  15
ATOM     15  N   UNL     1      -1.819  -4.888   2.561  0.00  0.00    -0.328 N 
ATOM     16  H   UNL     1      -1.996  -5.455   3.328  0.00  0.00    +0.145 HD
ATOM     17  H   UNL     1      -2.479  -4.809   1.854  0.00  0.00    +0.145 HD
ENDBRANCH   9  15
BRANCH  10  18
ATOM     18  C   UNL     1      -1.447  -3.354   0.384  0.00  0.00    +0.100 C 
ATOM     19  N   UNL     1      -2.254  -3.304  -0.415  0.00  0.00    -0.191 NA
ENDBRANCH  10  18
BRANCH   1  20
ATOM     20  C   UNL     1       0.533  -1.128   1.408  0.00  0.00    +0.014 C 
BRANCH  20  22
ATOM     21  C   UNL     1      -0.709   0.848   0.516  0.00  0.00    +0.004 C 
ATOM     22  C   UNL     1      -0.410  -0.638   0.308  0.00  0.00    -0.002 C 
ENDBRANCH  20  22
ENDBRANCH   1  20
TORSDOF 5
