REMARK  Name = ZINC11592873
REMARK  11 active torsions:
REMARK  status: ('A' for Active; 'I' for Inactive)
REMARK    1  A    between atoms: C_1  and  C_2
REMARK    2  A    between atoms: C_15  and  O_36
REMARK    3  A    between atoms: C_18  and  C_35
REMARK    4  A    between atoms: C_23  and  C_24
REMARK    5  A    between atoms: C_23  and  O_34
REMARK    6  A    between atoms: C_24  and  C_26
REMARK    7  A    between atoms: C_26  and  O_27
REMARK    8  A    between atoms: O_27  and  C_28
REMARK    9  A    between atoms: C_28  and  C_30
REMARK   10  A    between atoms: C_30  and  C_31
REMARK   11  A    between atoms: C_31  and  C_32
REMARK                            x       y       z     vdW  Elec       q    Type
REMARK                         _______ _______ _______ _____ _____    ______ ____
ROOT
ATOM      1  C   UNL     1       1.467   3.605  -2.270  0.00  0.00    +0.016 C 
ATOM      2  C   UNL     1       0.573   4.026  -1.102  0.00  0.00    -0.005 C 
ATOM      3  C   UNL     1      -0.777   3.407  -1.364  0.00  0.00    +0.019 C 
ATOM      4  C   UNL     1      -1.923   4.247  -0.801  0.00  0.00    +0.080 C 
ATOM      5  C   UNL     1      -1.788   5.647  -1.370  0.00  0.00    +0.156 C 
ATOM      6  O   UNL     1      -2.707   6.205  -1.932  0.00  0.00    -0.293 OA
ATOM      7  C   UNL     1      -0.476   6.288  -1.199  0.00  0.00    +0.046 C 
ATOM      8  C   UNL     1       0.603   5.522  -1.060  0.00  0.00    -0.060 C 
ATOM      9  C   UNL     1       1.951   6.187  -0.839  0.00  0.00    +0.032 C 
ATOM     10  C   UNL     1       2.571   5.574   0.422  0.00  0.00    +0.008 C 
ATOM     11  C   UNL     1       2.643   4.053   0.280  0.00  0.00    -0.001 C 
ATOM     12  C   UNL     1       1.225   3.469   0.164  0.00  0.00    +0.031 C 
ATOM     13  C   UNL     1       1.249   1.945   0.098  0.00  0.00    +0.119 C 
ATOM     14  C   UNL     1       2.017   1.339   1.283  0.00  0.00    +0.041 C 
ATOM     15  C   UNL     1       3.418   1.920   1.254  0.00  0.00    +0.009 C 
ATOM     16  C   UNL     1       3.285   3.445   1.514  0.00  0.00    +0.002 C 
ATOM     17  C   UNL     1       4.743   3.843   1.772  0.00  0.00    +0.008 C 
ATOM     18  C   UNL     1       5.270   2.681   2.657  0.00  0.00    +0.043 C 
ATOM     19  C   UNL     1       4.368   1.458   2.354  0.00  0.00    +0.133 C 
ATOM     20  C   UNL     1       4.055   1.680  -0.116  0.00  0.00    +0.015 C 
ENDROOT
BRANCH  19  21
ATOM     21  C   UNL     1       3.593   1.063   3.585  0.00  0.00    +0.202 C 
ATOM     22  O   UNL     1       3.271   1.903   4.390  0.00  0.00    -0.291 OA
BRANCH  21  23
ATOM     23  C   UNL     1       3.221  -0.380   3.810  0.00  0.00    +0.309 C 
BRANCH  23  24
ATOM     24  O   UNL     1       2.484  -0.501   5.055  0.00  0.00    -0.457 OA
BRANCH  24  25
ATOM     25  C   UNL     1       2.076  -1.731   5.405  0.00  0.00    +0.308 C 
ATOM     26  O   UNL     1       2.327  -2.675   4.694  0.00  0.00    -0.251 OA
BRANCH  25  27
ATOM     27  C   UNL     1       1.306  -1.934   6.684  0.00  0.00    +0.132 C 
BRANCH  27  28
ATOM     28  C   UNL     1       0.964  -3.417   6.844  0.00  0.00    +0.136 C 
BRANCH  28  29
ATOM     29  C   UNL     1       0.194  -3.620   8.123  0.00  0.00    +0.357 C 
ATOM     30  O   UNL     1      -0.057  -2.675   8.833  0.00  0.00    -0.246 OA
ATOM     31  O   UNL     1      -0.214  -4.850   8.472  0.00  0.00    -0.246 OA
ENDBRANCH  28  29
ENDBRANCH  27  28
ENDBRANCH  25  27
ENDBRANCH  24  25
ENDBRANCH  23  24
ENDBRANCH  21  23
ENDBRANCH  19  21
BRANCH  19  32
ATOM     32  O   UNL     1       5.160   0.361   1.895  0.00  0.00    -0.380 OA
ATOM     33  H   UNL     1       5.812   0.050   2.539  0.00  0.00    +0.211 HD
ENDBRANCH  19  32
BRANCH  13  34
ATOM     34  O   UNL     1      -0.094   1.457   0.114  0.00  0.00    -0.391 OA
ATOM     35  H   UNL     1      -0.163   0.494   0.058  0.00  0.00    +0.210 HD
ENDBRANCH  13  34
TORSDOF 9
