REMARK  Name = ZINC62869910
REMARK  6 active torsions:
REMARK  status: ('A' for Active; 'I' for Inactive)
REMARK    1  A    between atoms: C_1  and  C_2
REMARK    2  A    between atoms: C_2  and  C_3
REMARK    3  A    between atoms: C_3  and  C_18
REMARK    4  A    between atoms: C_9  and  C_11
REMARK    5  A    between atoms: C_11  and  C_13
REMARK    6  A    between atoms: C_11  and  N_14
REMARK                            x       y       z     vdW  Elec       q    Type
REMARK                         _______ _______ _______ _____ _____    ______ ____
ROOT
ATOM      1  C   UNL     1       0.806  -0.130  -0.284  0.00  0.00    +0.087 C 
ATOM      2  C   UNL     1       2.265   0.327  -0.208  0.00  0.00    +0.021 C 
ATOM      3  C   UNL     1       3.012  -0.517   0.827  0.00  0.00    +0.020 C 
ATOM      4  C   UNL     1       2.988  -1.987   0.395  0.00  0.00    +0.108 C 
ATOM      5  N   UNL     1       1.593  -2.393   0.178  0.00  0.00    -0.299 N 
ATOM      6  C   UNL     1       0.757  -1.595  -0.729  0.00  0.00    +0.126 C 
ATOM      7  C   UNL     1       1.089  -3.477   0.800  0.00  0.00    +0.236 C 
ATOM      8  O   UNL     1       1.812  -4.182   1.472  0.00  0.00    -0.274 OA
ENDROOT
BRANCH   1   9
ATOM      9  C   UNL     1       0.063   0.723  -1.280  0.00  0.00    +0.364 C 
ATOM     10  O   UNL     1      -0.016   1.928  -1.111  0.00  0.00    -0.246 OA
ATOM     11  O   UNL     1      -0.459   0.209  -2.254  0.00  0.00    -0.246 OA
ENDBRANCH   1   9
BRANCH   1  13
ATOM     12  C   UNL     1       0.205   1.471   1.537  0.00  0.00    +0.005 C 
ATOM     13  C   UNL     1       0.155   0.008   1.093  0.00  0.00    +0.016 C 
ENDBRANCH   1  13
BRANCH   7  14
ATOM     14  C   UNL     1      -0.373  -3.815   0.660  0.00  0.00    +0.157 C 
ATOM     15  C   UNL     1      -0.597  -4.584  -0.643  0.00  0.00    +0.038 C 
BRANCH  14  16
ATOM     16  N   UNL     1      -0.794  -4.642   1.794  0.00  0.00    -0.289 N 
ATOM     17  C   UNL     1      -2.087  -4.656   2.174  0.00  0.00    +0.298 C 
ATOM     18  O   UNL     1      -2.904  -3.982   1.577  0.00  0.00    -0.253 OA
ATOM     19  N   UNL     1      -2.474  -5.417   3.217  0.00  0.00    -0.313 N 
ATOM     20  H   UNL     1      -0.142  -5.180   2.270  0.00  0.00    +0.151 HD
ATOM     21  H   UNL     1      -1.823  -5.955   3.693  0.00  0.00    +0.146 HD
ATOM     22  H   UNL     1      -3.405  -5.427   3.491  0.00  0.00    +0.146 HD
ENDBRANCH  14  16
ENDBRANCH   7  14
TORSDOF 4
