REMARK  Name = ZINC35993635
REMARK  9 active torsions:
REMARK  status: ('A' for Active; 'I' for Inactive)
REMARK    1  A    between atoms: C_1  and  C_2
REMARK    2  A    between atoms: C_3  and  C_16
REMARK    3  A    between atoms: C_8  and  C_10
REMARK    4  A    between atoms: C_16  and  C_17
REMARK    5  A    between atoms: C_17  and  C_19
REMARK    6  A    between atoms: C_17  and  C_20
REMARK    7  A    between atoms: N_22  and  N_23
REMARK    8  A    between atoms: C_24  and  C_25
REMARK    9  A    between atoms: C_28  and  O_31
REMARK                            x       y       z     vdW  Elec       q    Type
REMARK                         _______ _______ _______ _____ _____    ______ ____
ROOT
ATOM      1  C   UNL     1      -2.150   0.973  -0.058  0.00  0.00    +0.055 C 
ENDROOT
BRANCH   1   4
ATOM      2  C   UNL     1      -0.385   3.162   0.571  0.00  0.00    +0.066 C 
ATOM      3  C   UNL     1       0.183   1.819   0.192  0.00  0.00    +0.049 A 
ATOM      4  C   UNL     1      -0.655   0.785  -0.105  0.00  0.00    +0.039 A 
ATOM      5  C   UNL     1      -0.101  -0.462  -0.457  0.00  0.00    +0.255 A 
ATOM      6  O   UNL     1      -0.821  -1.408  -0.729  0.00  0.00    -0.268 OA
ATOM      7  N   UNL     1       1.243  -0.588  -0.487  0.00  0.00    -0.307 N 
ATOM      8  H   UNL     1       1.647  -1.436  -0.727  0.00  0.00    +0.170 HD
ATOM      9  C   UNL     1       2.030   0.482  -0.179  0.00  0.00    +0.141 A 
ATOM     10  N   UNL     1       1.502   1.645   0.143  0.00  0.00    -0.234 NA
BRANCH   9  11
ATOM     11  C   UNL     1       3.499   0.337  -0.214  0.00  0.00    +0.017 A 
ATOM     12  C   UNL     1       4.075  -0.886  -0.565  0.00  0.00    +0.011 A 
ATOM     13  C   UNL     1       5.448  -1.016  -0.595  0.00  0.00    +0.001 A 
ATOM     14  C   UNL     1       6.254   0.063  -0.279  0.00  0.00    +0.000 A 
ATOM     15  C   UNL     1       5.691   1.278   0.069  0.00  0.00    +0.001 A 
ATOM     16  C   UNL     1       4.319   1.423   0.098  0.00  0.00    +0.011 A 
ENDBRANCH   9  11
ENDBRANCH   1   4
BRANCH   1  17
ATOM     17  C   UNL     1      -2.666   1.309  -1.458  0.00  0.00    +0.078 C 
ATOM     18  C   UNL     1      -2.102   2.662  -1.898  0.00  0.00    +0.017 C 
BRANCH  17  19
ATOM     19  C   UNL     1      -4.172   1.376  -1.436  0.00  0.00    +0.235 C 
ATOM     20  O   UNL     1      -4.773   1.174  -0.402  0.00  0.00    -0.274 OA
ATOM     21  N   UNL     1      -4.850   1.660  -2.565  0.00  0.00    -0.207 N 
ATOM     22  H   UNL     1      -4.370   1.821  -3.392  0.00  0.00    +0.177 HD
BRANCH  21  23
ATOM     23  N   UNL     1      -6.250   1.722  -2.545  0.00  0.00    -0.188 NA
ATOM     24  C   UNL     1      -6.909   1.878  -3.652  0.00  0.00    +0.138 C 
BRANCH  24  25
ATOM     25  C   UNL     1      -6.283   1.523  -4.939  0.00  0.00    -0.005 A 
ATOM     26  C   UNL     1      -5.110   0.764  -4.962  0.00  0.00    +0.013 A 
ATOM     27  C   UNL     1      -4.529   0.434  -6.167  0.00  0.00    +0.046 A 
ATOM     28  C   UNL     1      -5.107   0.855  -7.357  0.00  0.00    +0.117 A 
ATOM     29  C   UNL     1      -6.273   1.611  -7.339  0.00  0.00    +0.046 A 
ATOM     30  C   UNL     1      -6.864   1.940  -6.139  0.00  0.00    +0.013 A 
BRANCH  28  31
ATOM     31  O   UNL     1      -4.531   0.528  -8.543  0.00  0.00    -0.507 OA
ATOM     32  H   UNL     1      -4.845  -0.308  -8.915  0.00  0.00    +0.292 HD
ENDBRANCH  28  31
ENDBRANCH  24  25
ENDBRANCH  21  23
ENDBRANCH  17  19
ENDBRANCH   1  17
TORSDOF 7
