REMARK  Name = ZINC39445978
REMARK  7 active torsions:
REMARK  status: ('A' for Active; 'I' for Inactive)
REMARK    1  A    between atoms: C_1  and  N_2
REMARK    2  A    between atoms: N_2  and  C_3
REMARK    3  A    between atoms: C_3  and  C_4
REMARK    4  A    between atoms: C_15  and  C_17
REMARK    5  A    between atoms: C_17  and  C_18
REMARK    6  A    between atoms: N_25  and  C_26
REMARK    7  A    between atoms: C_26  and  C_27
REMARK                            x       y       z     vdW  Elec       q    Type
REMARK                         _______ _______ _______ _____ _____    ______ ____
ROOT
ATOM      1  C   UNL     1       0.124  -0.078  -2.073  0.00  0.00    +0.124 C 
ENDROOT
BRANCH   1   2
ATOM      2  C   UNL     1       0.111  -0.869  -3.382  0.00  0.00    +0.152 C 
ATOM      3  C   UNL     1      -1.120  -1.729  -3.433  0.00  0.00    +0.231 C 
ATOM      4  O   UNL     1      -2.176  -1.254  -3.072  0.00  0.00    -0.274 OA
ATOM      5  N   UNL     1      -1.100  -2.996  -3.860  0.00  0.00    -0.313 N 
ATOM      6  C   UNL     1       0.123  -3.672  -4.283  0.00  0.00    +0.119 C 
ATOM      7  C   UNL     1       1.212  -2.642  -4.590  0.00  0.00    +0.104 C 
ATOM      8  N   UNL     1       1.312  -1.710  -3.456  0.00  0.00    -0.285 NA
ATOM      9  H   UNL     1      -1.935  -3.488  -3.890  0.00  0.00    +0.149 HD
BRANCH   8  10
ATOM     10  C   UNL     1       2.526  -0.888  -3.558  0.00  0.00    +0.120 C 
BRANCH  10  11
ATOM     11  C   UNL     1       3.733  -1.734  -3.247  0.00  0.00    -0.031 A 
ATOM     12  C   UNL     1       4.187  -1.838  -1.945  0.00  0.00    +0.005 A 
ATOM     13  C   UNL     1       5.294  -2.614  -1.657  0.00  0.00    +0.003 A 
ATOM     14  C   UNL     1       5.950  -3.285  -2.672  0.00  0.00    +0.038 A 
ATOM     15  C   UNL     1       5.497  -3.181  -3.976  0.00  0.00    +0.124 A 
ATOM     16  C   UNL     1       4.384  -2.409  -4.262  0.00  0.00    +0.043 A 
ATOM     17  F   UNL     1       6.138  -3.837  -4.968  0.00  0.00    -0.205 F 
ENDBRANCH  10  11
ENDBRANCH   8  10
ENDBRANCH   1   2
BRANCH   1  20
ATOM     18  C   UNL     1       0.202   0.887   0.591  0.00  0.00    +0.132 C 
ATOM     19  N   UNL     1       0.245  -0.557   0.351  0.00  0.00    -0.302 N 
ATOM     20  C   UNL     1       0.209  -1.032  -0.910  0.00  0.00    +0.217 C 
ATOM     21  O   UNL     1       0.244  -2.228  -1.109  0.00  0.00    -0.276 OA
BRANCH  19  22
ATOM     22  C   UNL     1       0.328  -1.486   1.481  0.00  0.00    +0.140 C 
BRANCH  22  23
ATOM     23  C   UNL     1      -1.083  -1.862   1.936  0.00  0.00    +0.173 C 
ATOM     24  C   UNL     1      -1.039  -2.663   3.210  0.00  0.00    -0.019 C 
ATOM     25  C   UNL     1      -1.702  -1.941   4.103  0.00  0.00    +0.065 C 
ATOM     26  C   UNL     1      -1.927  -2.374   5.545  0.00  0.00    +0.057 C 
ATOM     27  C   UNL     1      -2.801  -3.636   5.505  0.00  0.00    +0.006 C 
ATOM     28  C   UNL     1      -1.981  -4.862   5.192  0.00  0.00    +0.001 C 
ATOM     29  C   UNL     1      -1.497  -5.007   3.769  0.00  0.00    +0.004 C 
ATOM     30  C   UNL     1      -0.375  -3.998   3.471  0.00  0.00    +0.035 C 
ATOM     31  N   UNL     1      -2.136  -0.790   3.539  0.00  0.00    -0.158 NA
ATOM     32  N   UNL     1      -1.843  -0.661   2.340  0.00  0.00    -0.178 NA
ENDBRANCH  22  23
ENDBRANCH  19  22
ENDBRANCH   1  20
TORSDOF 6
