REMARK  Name = ZINC04196595
REMARK  11 active torsions:
REMARK  status: ('A' for Active; 'I' for Inactive)
REMARK    1  A    between atoms: C_1  and  C_2
REMARK    2  A    between atoms: C_2  and  O_3
REMARK    3  A    between atoms: O_3  and  C_4
REMARK    4  A    between atoms: C_6  and  C_21
REMARK    5  A    between atoms: C_9  and  O_10
REMARK    6  A    between atoms: O_10  and  C_11
REMARK    7  A    between atoms: C_11  and  C_12
REMARK    8  A    between atoms: C_12  and  O_13
REMARK    9  A    between atoms: O_13  and  C_14
REMARK   10  A    between atoms: C_17  and  C_20
REMARK   11  A    between atoms: N_22  and  N_23
REMARK                            x       y       z     vdW  Elec       q    Type
REMARK                         _______ _______ _______ _____ _____    ______ ____
ROOT
ATOM      1  C   UNL     1       0.720   7.769   2.589  0.00  0.00    +0.162 A 
ATOM      2  C   UNL     1       0.449   9.113   2.765  0.00  0.00    +0.059 A 
ATOM      3  C   UNL     1       0.782  10.027   1.762  0.00  0.00    -0.002 A 
ATOM      4  C   UNL     1       1.387   9.578   0.586  0.00  0.00    +0.013 A 
ATOM      5  C   UNL     1       1.659   8.236   0.419  0.00  0.00    +0.050 A 
ATOM      6  C   UNL     1       1.323   7.328   1.413  0.00  0.00    +0.162 A 
ENDROOT
BRANCH   3   7
ATOM      7  C   UNL     1       0.496  11.462   1.945  0.00  0.00    +0.138 C 
ATOM      8  N   UNL     1       0.806  12.309   1.012  0.00  0.00    -0.186 NA
BRANCH   8   9
ATOM      9  N   UNL     1       0.535  13.672   1.185  0.00  0.00    -0.191 N 
ATOM     10  C   UNL     1       0.857  14.552   0.217  0.00  0.00    +0.317 C 
ATOM     11  O   UNL     1       0.621  15.736   0.367  0.00  0.00    -0.251 OA
ATOM     12  N   UNL     1       1.440  14.121  -0.919  0.00  0.00    -0.312 N 
ATOM     13  H   UNL     1       0.115  13.983   2.003  0.00  0.00    +0.179 HD
ATOM     14  H   UNL     1       1.628  13.177  -1.039  0.00  0.00    +0.147 HD
ATOM     15  H   UNL     1       1.671  14.754  -1.616  0.00  0.00    +0.147 HD
ENDBRANCH   8   9
ENDBRANCH   3   7
BRANCH   1  16
ATOM     16  O   UNL     1       0.397   6.877   3.563  0.00  0.00    -0.489 OA
BRANCH  16  18
ATOM     17  C   UNL     1      -0.506   6.255   5.717  0.00  0.00    +0.048 C 
ATOM     18  C   UNL     1      -0.219   7.399   4.742  0.00  0.00    +0.226 C 
ENDBRANCH  16  18
ENDBRANCH   1  16
BRANCH   6  19
ATOM     19  O   UNL     1       1.588   6.006   1.242  0.00  0.00    -0.485 OA
BRANCH  19  20
ATOM     20  C   UNL     1       2.208   5.623   0.012  0.00  0.00    +0.270 C 
BRANCH  20  21
ATOM     21  C   UNL     1       2.426   4.108   0.001  0.00  0.00    +0.270 C 
BRANCH  21  22
ATOM     22  O   UNL     1       1.160   3.445   0.010  0.00  0.00    -0.489 OA
BRANCH  22  23
ATOM     23  C   UNL     1       1.176   2.086   0.002  0.00  0.00    +0.121 A 
ATOM     24  C   UNL     1      -0.017   1.377   0.010  0.00  0.00    +0.046 A 
ATOM     25  C   UNL     1       0.002  -0.004   0.002  0.00  0.00    +0.007 A 
ATOM     26  C   UNL     1       1.208  -0.680  -0.013  0.00  0.00    -0.050 A 
ATOM     27  C   UNL     1       2.398   0.024  -0.021  0.00  0.00    +0.007 A 
ATOM     28  C   UNL     1       2.385   1.405  -0.013  0.00  0.00    +0.046 A 
ATOM     29  C   UNL     1       1.226  -2.187  -0.021  0.00  0.00    +0.044 C 
ENDBRANCH  22  23
ENDBRANCH  21  22
ENDBRANCH  20  21
ENDBRANCH  19  20
ENDBRANCH   6  19
TORSDOF 9
