REMARK  Name = ZINC04450170
REMARK  4 active torsions:
REMARK  status: ('A' for Active; 'I' for Inactive)
REMARK    1  A    between atoms: C_1  and  C_2
REMARK    2  A    between atoms: C_4  and  N_25
REMARK    3  A    between atoms: C_7  and  C_8
REMARK    4  A    between atoms: C_16  and  C_19
REMARK                            x       y       z     vdW  Elec       q    Type
REMARK                         _______ _______ _______ _____ _____    ______ ____
ROOT
ATOM      1  C   UNL     1       0.111   1.501   0.011  0.00  0.00    +0.044 C 
ATOM      2  C   UNL     1       0.064  -0.005   0.003  0.00  0.00    -0.045 A 
ATOM      3  C   UNL     1       0.067  -0.688  -1.200  0.00  0.00    +0.038 A 
ATOM      4  C   UNL     1       0.017  -2.067  -1.205  0.00  0.00    +0.147 A 
ATOM      5  C   UNL     1      -0.035  -2.768  -0.005  0.00  0.00    +0.062 A 
ATOM      6  C   UNL     1      -0.025  -2.086   1.202  0.00  0.00    -0.014 A 
ATOM      7  C   UNL     1       0.023  -0.699   1.195  0.00  0.00    -0.042 A 
ATOM      8  C   UNL     1       0.024   0.056   2.499  0.00  0.00    +0.044 C 
ATOM      9  C   UNL     1      -0.040  -2.803   2.509  0.00  0.00    +0.049 C 
ATOM     10  C   UNL     1      -1.395  -2.755   3.168  0.00  0.00    -0.023 C 
ATOM     11  C   UNL     1      -1.635  -3.881   3.792  0.00  0.00    -0.030 C 
ATOM     12  C   UNL     1      -0.479  -4.844   3.634  0.00  0.00    +0.033 C 
ATOM     13  C   UNL     1       0.301  -4.290   2.420  0.00  0.00    +0.030 C 
ATOM     14  C   UNL     1      -0.229  -4.963   1.171  0.00  0.00    +0.123 C 
ATOM     15  N   UNL     1      -0.104  -4.156  -0.026  0.00  0.00    -0.333 N 
ATOM     16  H   UNL     1      -0.091  -4.605  -0.885  0.00  0.00    +0.147 HD
ENDROOT
BRANCH  14  17
ATOM     17  C   UNL     1       0.548  -6.235   0.946  0.00  0.00    +0.062 A 
ATOM     18  C   UNL     1      -0.127  -7.434   0.818  0.00  0.00    +0.025 A 
ATOM     19  C   UNL     1       0.597  -8.598   0.612  0.00  0.00    +0.003 A 
ATOM     20  C   UNL     1       1.979  -8.512   0.542  0.00  0.00    +0.020 A 
ATOM     21  C   UNL     1       2.585  -7.278   0.679  0.00  0.00    +0.111 A 
ATOM     22  N   UNL     1       1.864  -6.190   0.869  0.00  0.00    -0.258 NA
ENDBRANCH  14  17
BRANCH   4  23
ATOM     23  N   UNL     1       0.018  -2.801  -2.490  0.00  0.00    +0.058 N 
ATOM     24  O   UNL     1       0.627  -3.841  -2.591  0.00  0.00    -0.126 OA
ATOM     25  O   UNL     1      -0.590  -2.362  -3.438  0.00  0.00    -0.126 OA
ENDBRANCH   4  23
TORSDOF 2
