REMARK  Name = ZINC03232721
REMARK  6 active torsions:
REMARK  status: ('A' for Active; 'I' for Inactive)
REMARK    1  A    between atoms: C_9  and  C_12
REMARK    2  A    between atoms: C_15  and  S_27
REMARK    3  A    between atoms: N_16  and  C_17
REMARK    4  A    between atoms: S_27  and  C_28
REMARK    5  A    between atoms: C_28  and  C_29
REMARK    6  A    between atoms: C_29  and  C_31
REMARK                            x       y       z     vdW  Elec       q    Type
REMARK                         _______ _______ _______ _____ _____    ______ ____
ROOT
ATOM      1  C   UNL     1       4.898  -2.639  -0.050  0.00  0.00    +0.183 A 
ATOM      2  N   UNL     1       5.543  -2.496   1.074  0.00  0.00    -0.129 NA
ATOM      3  N   UNL     1       6.626  -3.188   1.054  0.00  0.00    -0.122 NA
ATOM      4  C   UNL     1       6.734  -3.817  -0.094  0.00  0.00    +0.197 A 
ATOM      5  N   UNL     1       5.630  -3.491  -0.834  0.00  0.00    -0.271 N 
ENDROOT
BRANCH   1  14
ATOM      6  C   UNL     1      -0.017   1.378   0.010  0.00  0.00    +0.004 A 
ATOM      7  C   UNL     1       1.170   2.088   0.002  0.00  0.00    +0.004 A 
ATOM      8  C   UNL     1       2.378   1.418  -0.012  0.00  0.00    +0.049 A 
ATOM      9  C   UNL     1       2.404   0.031  -0.019  0.00  0.00    +0.163 A 
ATOM     10  C   UNL     1       1.212  -0.683  -0.014  0.00  0.00    +0.162 A 
ATOM     11  C   UNL     1       0.002  -0.004   0.002  0.00  0.00    +0.049 A 
ATOM     12  O   UNL     1       1.214  -2.043  -0.029  0.00  0.00    -0.484 OA
ATOM     13  C   UNL     1       2.441  -2.689   0.331  0.00  0.00    +0.281 C 
ATOM     14  C   UNL     1       3.587  -1.993  -0.416  0.00  0.00    +0.278 C 
ATOM     15  O   UNL     1       3.602  -0.615  -0.029  0.00  0.00    -0.474 OA
ENDBRANCH   1  14
BRANCH   5  16
ATOM     16  C   UNL     1       5.316  -3.934  -2.128  0.00  0.00    +0.054 A 
ATOM     17  C   UNL     1       4.194  -4.723  -2.338  0.00  0.00    +0.030 A 
ATOM     18  C   UNL     1       3.884  -5.161  -3.611  0.00  0.00    +0.051 A 
ATOM     19  C   UNL     1       4.692  -4.813  -4.683  0.00  0.00    +0.162 A 
ATOM     20  C   UNL     1       5.816  -4.021  -4.476  0.00  0.00    +0.164 A 
ATOM     21  C   UNL     1       6.123  -3.579  -3.199  0.00  0.00    +0.075 A 
ATOM     22  O   UNL     1       6.617  -3.663  -5.517  0.00  0.00    -0.485 OA
ATOM     23  C   UNL     1       6.486  -4.424  -6.722  0.00  0.00    +0.270 C 
ATOM     24  C   UNL     1       4.990  -4.580  -7.031  0.00  0.00    +0.270 C 
ATOM     25  O   UNL     1       4.373  -5.257  -5.931  0.00  0.00    -0.485 OA
ENDBRANCH   5  16
BRANCH   4  26
ATOM     26  S   UNL     1       8.047  -4.884  -0.585  0.00  0.00    -0.078 S 
BRANCH  26  27
ATOM     27  C   UNL     1       9.165  -4.890   0.844  0.00  0.00    +0.157 C 
BRANCH  27  28
ATOM     28  C   UNL     1      10.347  -5.778   0.552  0.00  0.00    +0.175 C 
ATOM     29  O   UNL     1      10.428  -6.349  -0.514  0.00  0.00    -0.291 OA
BRANCH  28  30
ATOM     30  C   UNL     1      11.403  -5.950   1.561  0.00  0.00    +0.037 A 
ATOM     31  C   UNL     1      11.310  -5.297   2.795  0.00  0.00    +0.014 A 
ATOM     32  C   UNL     1      12.303  -5.463   3.735  0.00  0.00    +0.021 A 
ATOM     33  C   UNL     1      13.393  -6.276   3.462  0.00  0.00    +0.042 A 
ATOM     34  C   UNL     1      13.493  -6.926   2.244  0.00  0.00    +0.040 A 
ATOM     35  C   UNL     1      12.503  -6.774   1.294  0.00  0.00    +0.053 A 
ATOM     36 CL   UNL     1      12.626  -7.596  -0.230  0.00  0.00    -0.083 Cl
ATOM     37 CL   UNL     1      14.639  -6.478   4.654  0.00  0.00    -0.083 Cl
ENDBRANCH  28  30
ENDBRANCH  27  28
ENDBRANCH  26  27
ENDBRANCH   4  26
TORSDOF 6
