REMARK  Name = ZINC14413012
REMARK  9 active torsions:
REMARK  status: ('A' for Active; 'I' for Inactive)
REMARK    1  A    between atoms: C_1  and  C_2
REMARK    2  A    between atoms: C_4  and  C_27
REMARK    3  A    between atoms: C_5  and  N_9
REMARK    4  A    between atoms: C_6  and  C_8
REMARK    5  A    between atoms: C_10  and  C_12
REMARK    6  A    between atoms: C_12  and  N_13
REMARK    7  A    between atoms: C_14  and  C_16
REMARK    8  A    between atoms: C_18  and  C_26
REMARK    9  A    between atoms: C_22  and  C_25
REMARK                            x       y       z     vdW  Elec       q    Type
REMARK                         _______ _______ _______ _____ _____    ______ ____
ROOT
ATOM      1  N   UNL     1       1.453  -7.389   1.847  0.00  0.00    -0.303 N 
ATOM      2  C   UNL     1       1.418  -8.697   2.172  0.00  0.00    +0.245 C 
ATOM      3  O   UNL     1       1.050  -9.517   1.354  0.00  0.00    -0.270 OA
ATOM      4  H   UNL     1       1.746  -6.735   2.500  0.00  0.00    +0.150 HD
ENDROOT
BRANCH   2   5
ATOM      5  C   UNL     1       1.828  -9.134   3.525  0.00  0.00    +0.053 A 
ATOM      6  C   UNL     1       2.891  -8.522   4.189  0.00  0.00    +0.037 A 
ATOM      7  C   UNL     1       3.241  -8.963   5.455  0.00  0.00    +0.043 A 
ATOM      8  N   UNL     1       2.597  -9.945   6.047  0.00  0.00    -0.215 NA
ATOM      9  C   UNL     1       1.580 -10.567   5.469  0.00  0.00    +0.259 A 
ATOM     10  C   UNL     1       1.154 -10.178   4.187  0.00  0.00    +0.076 A 
ATOM     11  C   UNL     1       0.025 -11.040   3.842  0.00  0.00    +0.091 A 
ATOM     12  N   UNL     1      -0.173 -11.840   4.845  0.00  0.00    -0.080 NA
ATOM     13  O   UNL     1       0.777 -11.577   5.859  0.00  0.00    -0.334 OA
ATOM     14  C   UNL     1      -0.765 -11.005   2.559  0.00  0.00    +0.070 C 
ATOM     15  C   UNL     1       4.390  -8.300   6.171  0.00  0.00    +0.066 C 
ENDBRANCH   2   5
BRANCH   1  16
ATOM     16  C   UNL     1       1.047  -6.957   0.507  0.00  0.00    +0.200 C 
BRANCH  16  18
ATOM     17  N   UNL     1       0.857  -4.834  -0.748  0.00  0.00    -0.284 N 
ATOM     18  C   UNL     1       1.177  -5.459   0.402  0.00  0.00    +0.234 C 
ATOM     19  O   UNL     1       1.571  -4.816   1.353  0.00  0.00    -0.274 OA
ATOM     20  H   UNL     1       0.467  -5.336  -1.481  0.00  0.00    +0.155 HD
BRANCH  17  25
ATOM     21  C   UNL     1       1.786   0.735  -1.305  0.00  0.00    +0.044 C 
ATOM     22  C   UNL     1       1.540  -0.744  -1.157  0.00  0.00    -0.050 A 
ATOM     23  C   UNL     1       2.097  -1.630  -2.060  0.00  0.00    +0.008 A 
ATOM     24  C   UNL     1       1.873  -2.987  -1.927  0.00  0.00    -0.029 A 
ATOM     25  C   UNL     1       1.087  -3.460  -0.885  0.00  0.00    +0.039 A 
ATOM     26  C   UNL     1       0.528  -2.567   0.021  0.00  0.00    -0.029 A 
ATOM     27  C   UNL     1       0.760  -1.213  -0.115  0.00  0.00    +0.008 A 
ATOM     28  C   UNL     1      -0.326  -3.077   1.153  0.00  0.00    +0.045 C 
ATOM     29  C   UNL     1       2.480  -3.952  -2.912  0.00  0.00    +0.045 C 
ENDBRANCH  17  25
ENDBRANCH  16  18
ENDBRANCH   1  16
TORSDOF 4
