REMARK  Name = ZINC00527006
REMARK  5 active torsions:
REMARK  status: ('A' for Active; 'I' for Inactive)
REMARK    1  A    between atoms: C_1  and  C_2
REMARK    2  A    between atoms: C_5  and  C_8
REMARK    3  A    between atoms: C_11  and  C_20
REMARK    4  A    between atoms: C_23  and  O_26
REMARK    5  A    between atoms: O_26  and  C_27
REMARK                            x       y       z     vdW  Elec       q    Type
REMARK                         _______ _______ _______ _____ _____    ______ ____
ROOT
ATOM      1  C   UNL     1       0.059  -4.275  -0.021  0.00  0.00    +0.143 C 
ATOM      2  C   UNL     1      -1.178  -4.809   0.711  0.00  0.00    +0.058 C 
ATOM      3  C   UNL     1      -1.029  -6.317   0.947  0.00  0.00    +0.106 C 
ATOM      4  N   UNL     1       0.141  -6.544   1.817  0.00  0.00    -0.307 N 
ATOM      5  C   UNL     1       1.280  -5.807   1.518  0.00  0.00    +0.216 A 
ATOM      6  N   UNL     1       1.260  -4.754   0.664  0.00  0.00    -0.224 N 
ATOM      7  N   UNL     1       2.565  -4.264   0.599  0.00  0.00    -0.132 NA
ATOM      8  C   UNL     1       3.293  -5.019   1.392  0.00  0.00    +0.233 A 
ATOM      9  N   UNL     1       2.503  -5.954   1.952  0.00  0.00    -0.180 NA
ATOM     10  N   UNL     1       4.662  -4.870   1.619  0.00  0.00    -0.326 N 
ATOM     11  H   UNL     1       0.117  -7.172   2.555  0.00  0.00    +0.149 HD
ATOM     12  H   UNL     1       5.154  -4.163   1.173  0.00  0.00    +0.145 HD
ATOM     13  H   UNL     1       5.121  -5.475   2.223  0.00  0.00    +0.145 HD
ENDROOT
BRANCH   1  18
ATOM     14  C   UNL     1      -0.018   1.503   0.010  0.00  0.00    +0.044 C 
ATOM     15  C   UNL     1       0.002  -0.004   0.002  0.00  0.00    -0.050 A 
ATOM     16  C   UNL     1       0.006  -0.689  -1.199  0.00  0.00    +0.004 A 
ATOM     17  C   UNL     1       0.025  -2.071  -1.206  0.00  0.00    +0.006 A 
ATOM     18  C   UNL     1       0.040  -2.768  -0.013  0.00  0.00    -0.023 A 
ATOM     19  C   UNL     1       0.037  -2.084   1.188  0.00  0.00    +0.006 A 
ATOM     20  C   UNL     1       0.023  -0.702   1.195  0.00  0.00    +0.004 A 
ENDBRANCH   1  18
BRANCH   3  21
ATOM     21  C   UNL     1      -0.828  -7.018  -0.372  0.00  0.00    -0.027 A 
ATOM     22  C   UNL     1       0.422  -7.029  -0.964  0.00  0.00    +0.009 A 
ATOM     23  C   UNL     1       0.609  -7.671  -2.173  0.00  0.00    +0.046 A 
ATOM     24  C   UNL     1      -0.458  -8.305  -2.792  0.00  0.00    +0.120 A 
ATOM     25  C   UNL     1      -1.711  -8.293  -2.196  0.00  0.00    +0.046 A 
ATOM     26  C   UNL     1      -1.891  -7.654  -0.985  0.00  0.00    +0.009 A 
BRANCH  24  27
ATOM     27  O   UNL     1      -0.277  -8.936  -3.982  0.00  0.00    -0.495 OA
ATOM     28  C   UNL     1      -1.420  -9.568  -4.562  0.00  0.00    +0.277 C 
ENDBRANCH  24  27
ENDBRANCH   3  21
TORSDOF 3
