REMARK  Name = ZINC66234334
REMARK  9 active torsions:
REMARK  status: ('A' for Active; 'I' for Inactive)
REMARK    1  A    between atoms: C_3  and  C_8
REMARK    2  A    between atoms: C_5  and  O_7
REMARK    3  A    between atoms: C_8  and  C_9
REMARK    4  A    between atoms: C_9  and  N_10
REMARK    5  A    between atoms: N_13  and  N_14
REMARK    6  A    between atoms: C_15  and  C_17
REMARK    7  A    between atoms: C_17  and  C_18
REMARK    8  A    between atoms: C_18  and  S_19
REMARK    9  A    between atoms: S_19  and  C_20
REMARK                            x       y       z     vdW  Elec       q    Type
REMARK                         _______ _______ _______ _____ _____    ______ ____
ROOT
ATOM      1  N   UNL     1       5.378   3.199   1.411  0.00  0.00    -0.298 N 
ATOM      2  C   UNL     1       5.967   3.539   2.574  0.00  0.00    +0.316 C 
ATOM      3  O   UNL     1       5.456   3.221   3.630  0.00  0.00    -0.251 OA
ATOM      4  N   UNL     1       7.123   4.233   2.567  0.00  0.00    -0.218 N 
ATOM      5  H   UNL     1       5.786   3.453   0.568  0.00  0.00    +0.150 HD
ATOM      6  H   UNL     1       7.546   4.478   3.404  0.00  0.00    +0.174 HD
ENDROOT
BRANCH   4   7
ATOM      7  N   UNL     1       7.712   4.600   1.350  0.00  0.00    -0.233 N 
ATOM      8  C   UNL     1       8.867   5.294   1.342  0.00  0.00    +0.230 C 
ATOM      9  O   UNL     1       9.397   5.600   2.389  0.00  0.00    -0.274 OA
ATOM     10  H   UNL     1       7.288   4.355   0.512  0.00  0.00    +0.173 HD
BRANCH   8  11
ATOM     11  C   UNL     1       9.501   5.689   0.033  0.00  0.00    +0.108 C 
BRANCH  11  12
ATOM     12  C   UNL     1      10.793   6.461   0.305  0.00  0.00    +0.083 C 
BRANCH  12  13
ATOM     13  S   UNL     1      11.556   6.936  -1.271  0.00  0.00    -0.125 S 
BRANCH  13  14
ATOM     14  C   UNL     1      13.013   7.806  -0.795  0.00  0.00    +0.008 A 
ATOM     15  C   UNL     1      13.318   7.967   0.551  0.00  0.00    +0.017 A 
ATOM     16  C   UNL     1      14.460   8.648   0.922  0.00  0.00    +0.039 A 
ATOM     17  C   UNL     1      15.302   9.170  -0.046  0.00  0.00    +0.123 A 
ATOM     18  C   UNL     1      15.000   9.010  -1.388  0.00  0.00    +0.039 A 
ATOM     19  C   UNL     1      13.861   8.325  -1.764  0.00  0.00    +0.017 A 
ATOM     20  F   UNL     1      16.419   9.836   0.319  0.00  0.00    -0.205 F 
ENDBRANCH  13  14
ENDBRANCH  12  13
ENDBRANCH  11  12
ENDBRANCH   8  11
ENDBRANCH   4   7
BRANCH   1  21
ATOM     21  C   UNL     1       4.122   2.445   1.419  0.00  0.00    +0.110 C 
BRANCH  21  22
ATOM     22  C   UNL     1       3.671   2.190  -0.021  0.00  0.00    +0.054 C 
BRANCH  22  25
ATOM     23  C   UNL     1      -0.017   1.377   0.010  0.00  0.00    +0.004 A 
ATOM     24  C   UNL     1       1.171   2.086   0.002  0.00  0.00    +0.004 A 
ATOM     25  C   UNL     1       2.379   1.415  -0.013  0.00  0.00    -0.042 A 
ATOM     26  C   UNL     1       2.403   0.033  -0.021  0.00  0.00    +0.049 A 
ATOM     27  C   UNL     1       1.214  -0.680  -0.013  0.00  0.00    +0.117 A 
ATOM     28  C   UNL     1       0.002  -0.004   0.002  0.00  0.00    +0.045 A 
BRANCH  27  29
ATOM     29  O   UNL     1       1.235  -2.039  -0.021  0.00  0.00    -0.507 OA
ATOM     30  H   UNL     1       1.249  -2.437   0.860  0.00  0.00    +0.292 HD
ENDBRANCH  27  29
ENDBRANCH  22  25
ENDBRANCH  21  22
ENDBRANCH   1  21
TORSDOF 9
