REMARK  Name = ZINC06984684
REMARK  6 active torsions:
REMARK  status: ('A' for Active; 'I' for Inactive)
REMARK    1  A    between atoms: C_1  and  C_2
REMARK    2  A    between atoms: C_2  and  C_4
REMARK    3  A    between atoms: C_2  and  O_22
REMARK    4  A    between atoms: N_6  and  N_7
REMARK    5  A    between atoms: C_8  and  C_10
REMARK    6  A    between atoms: O_22  and  C_23
REMARK                            x       y       z     vdW  Elec       q    Type
REMARK                         _______ _______ _______ _____ _____    ______ ____
ROOT
ATOM      1  N   UNL     1      -2.582   2.639   2.675  0.00  0.00    -0.229 N 
ATOM      2  C   UNL     1      -3.916   2.581   2.858  0.00  0.00    +0.281 C 
ATOM      3  O   UNL     1      -4.632   2.134   1.983  0.00  0.00    -0.267 OA
ATOM      4  H   UNL     1      -2.012   2.995   3.373  0.00  0.00    +0.173 HD
ENDROOT
BRANCH   2   5
ATOM      5  C   UNL     1      -4.509   3.062   4.122  0.00  0.00    +0.155 A 
ATOM      6  C   UNL     1      -5.965   3.009   4.330  0.00  0.00    +0.020 A 
ATOM      7  C   UNL     1      -6.844   2.506   3.376  0.00  0.00    +0.011 A 
ATOM      8  C   UNL     1      -8.196   2.484   3.647  0.00  0.00    +0.001 A 
ATOM      9  C   UNL     1      -8.686   2.953   4.858  0.00  0.00    +0.001 A 
ATOM     10  C   UNL     1      -7.832   3.450   5.819  0.00  0.00    +0.014 A 
ATOM     11  C   UNL     1      -6.464   3.480   5.566  0.00  0.00    +0.050 A 
ATOM     12  C   UNL     1      -5.484   3.994   6.533  0.00  0.00    +0.272 A 
ATOM     13  O   UNL     1      -5.842   4.421   7.615  0.00  0.00    -0.266 OA
ATOM     14  N   UNL     1      -4.179   3.981   6.193  0.00  0.00    -0.242 N 
ATOM     15  H   UNL     1      -3.514   4.332   6.854  0.00  0.00    +0.192 HD
ATOM     16  N   UNL     1      -3.745   3.545   5.072  0.00  0.00    -0.166 NA
ENDBRANCH   2   5
BRANCH   1  19
ATOM     17  C   UNL     1      -0.686   2.240   1.292  0.00  0.00    +0.270 C 
ATOM     18  O   UNL     1       0.028   2.686   2.165  0.00  0.00    -0.270 OA
ATOM     19  N   UNL     1      -2.020   2.183   1.475  0.00  0.00    -0.231 N 
ATOM     20  H   UNL     1      -2.591   1.826   0.777  0.00  0.00    +0.173 HD
BRANCH  17  22
ATOM     21  C   UNL     1      -0.310   0.243  -0.129  0.00  0.00    +0.062 C 
ATOM     22  C   UNL     1      -0.081   1.750   0.002  0.00  0.00    +0.257 C 
BRANCH  22  23
ATOM     23  O   UNL     1       1.322   2.020   0.000  0.00  0.00    -0.477 OA
BRANCH  23  24
ATOM     24  C   UNL     1       1.926   2.142  -1.212  0.00  0.00    +0.157 A 
ATOM     25  C   UNL     1       1.210   1.891  -2.373  0.00  0.00    +0.048 A 
ATOM     26  C   UNL     1       1.826   2.015  -3.603  0.00  0.00    +0.004 A 
ATOM     27  C   UNL     1       3.155   2.389  -3.679  0.00  0.00    +0.003 A 
ATOM     28  C   UNL     1       3.872   2.640  -2.524  0.00  0.00    +0.042 A 
ATOM     29  C   UNL     1       3.260   2.522  -1.290  0.00  0.00    +0.165 A 
ATOM     30  F   UNL     1       3.959   2.772  -0.161  0.00  0.00    -0.202 F 
ENDBRANCH  23  24
ENDBRANCH  22  23
ENDBRANCH  17  22
ENDBRANCH   1  19
TORSDOF 5
