REMARK  Name = ZINC43554062
REMARK  6 active torsions:
REMARK  status: ('A' for Active; 'I' for Inactive)
REMARK    1  A    between atoms: C_1  and  C_2
REMARK    2  A    between atoms: C_2  and  C_3
REMARK    3  A    between atoms: C_3  and  C_5
REMARK    4  A    between atoms: C_3  and  S_7
REMARK    5  A    between atoms: S_7  and  C_8
REMARK    6  A    between atoms: C_12  and  N_17
REMARK                            x       y       z     vdW  Elec       q    Type
REMARK                         _______ _______ _______ _____ _____    ______ ____
ROOT
ATOM      1  C   UNL     1       0.774  -0.523  -4.074  0.00  0.00    +0.259 A 
ATOM      2  N   UNL     1       0.471  -0.366  -5.338  0.00  0.00    -0.203 NA
ATOM      3  C   UNL     1       1.484  -0.868  -6.096  0.00  0.00    +0.112 A 
ATOM      4  C   UNL     1       1.697  -0.969  -7.471  0.00  0.00    +0.054 A 
ATOM      5  C   UNL     1       2.862  -1.549  -7.943  0.00  0.00    +0.027 A 
ATOM      6  C   UNL     1       3.817  -2.030  -7.051  0.00  0.00    +0.026 A 
ATOM      7  C   UNL     1       3.612  -1.933  -5.690  0.00  0.00    +0.050 A 
ATOM      8  C   UNL     1       2.451  -1.355  -5.204  0.00  0.00    +0.156 A 
ATOM      9  O   UNL     1       1.976  -1.117  -3.958  0.00  0.00    -0.431 OA
ENDROOT
BRANCH   5  10
ATOM     10  N   UNL     1       3.080  -1.653  -9.321  0.00  0.00    -0.358 N 
ATOM     11  H   UNL     1       2.416  -1.319  -9.944  0.00  0.00    +0.142 HD
ATOM     12  H   UNL     1       3.896  -2.059  -9.654  0.00  0.00    +0.142 HD
ENDBRANCH   5  10
BRANCH   1  13
ATOM     13  S   UNL     1      -0.239  -0.022  -2.723  0.00  0.00    -0.049 S 
BRANCH  13  14
ATOM     14  C   UNL     1       0.718  -0.497  -1.257  0.00  0.00    +0.157 C 
BRANCH  14  16
ATOM     15  C   UNL     1      -0.019   1.526   0.010  0.00  0.00    +0.006 C 
ATOM     16  C   UNL     1       0.002  -0.004   0.002  0.00  0.00    +0.026 C 
ENDBRANCH  14  16
BRANCH  14  17
ATOM     17  C   UNL     1       0.844  -1.963  -1.207  0.00  0.00    +0.077 C 
ATOM     18  N   UNL     1       0.942  -3.094  -1.168  0.00  0.00    -0.195 NA
ENDBRANCH  14  17
ENDBRANCH  13  14
ENDBRANCH   1  13
TORSDOF 5
