REMARK  Name = ZINC35843317
REMARK  5 active torsions:
REMARK  status: ('A' for Active; 'I' for Inactive)
REMARK    1  A    between atoms: C_1  and  C_2
REMARK    2  A    between atoms: C_5  and  N_11
REMARK    3  A    between atoms: C_7  and  N_8
REMARK    4  A    between atoms: C_29  and  C_37
REMARK    5  A    between atoms: C_31  and  C_36
REMARK                            x       y       z     vdW  Elec       q    Type
REMARK                         _______ _______ _______ _____ _____    ______ ____
ROOT
ATOM      1  N   UNL     1      -0.153  -4.133   0.431  0.00  0.00    -0.210 N 
ATOM      2  C   UNL     1      -0.077  -4.677   1.651  0.00  0.00    +0.232 C 
ATOM      3  O   UNL     1       0.074  -4.063   2.685  0.00  0.00    -0.274 OA
ATOM      4  C   UNL     1      -0.208  -6.179   1.539  0.00  0.00    +0.107 C 
ATOM      5  C   UNL     1       1.130  -6.840   1.919  0.00  0.00    +0.071 C 
ATOM      6  C   UNL     1       0.947  -7.652   3.213  0.00  0.00    +0.021 C 
ATOM      7  C   UNL     1       0.561  -9.073   2.758  0.00  0.00    +0.017 C 
ATOM      8  C   UNL     1       0.513  -9.003   1.218  0.00  0.00    +0.086 C 
ATOM      9  N   UNL     1       1.393  -7.840   0.840  0.00  0.00    -0.281 NA
ATOM     10  C   UNL     1       0.901  -7.192  -0.388  0.00  0.00    +0.138 C 
ATOM     11  C   UNL     1      -0.374  -6.412   0.012  0.00  0.00    +0.123 C 
ATOM     12  C   UNL     1      -0.325  -5.014  -0.561  0.00  0.00    +0.233 C 
ATOM     13  O   UNL     1      -0.425  -4.734  -1.736  0.00  0.00    -0.274 OA
ATOM     14  C   UNL     1       1.940  -6.286  -0.987  0.00  0.00    +0.004 A 
ATOM     15  C   UNL     1       2.617  -5.181  -0.520  0.00  0.00    +0.011 A 
ATOM     16  C   UNL     1       3.538  -4.540  -1.329  0.00  0.00    -0.050 A 
ATOM     17  C   UNL     1       3.777  -5.011  -2.608  0.00  0.00    +0.008 A 
ATOM     18  C   UNL     1       3.102  -6.118  -3.079  0.00  0.00    -0.029 A 
ATOM     19  C   UNL     1       2.173  -6.769  -2.271  0.00  0.00    +0.042 A 
ATOM     20  N   UNL     1       1.377  -7.890  -2.517  0.00  0.00    -0.283 N 
ATOM     21  C   UNL     1       0.602  -8.204  -1.461  0.00  0.00    +0.243 C 
ATOM     22  O   UNL     1      -0.185  -9.124  -1.389  0.00  0.00    -0.273 OA
ATOM     23  C   UNL     1       3.370  -6.623  -4.473  0.00  0.00    +0.045 C 
ATOM     24  C   UNL     1       4.279  -3.332  -0.819  0.00  0.00    +0.044 C 
ATOM     25  H   UNL     1       1.381  -8.385  -3.351  0.00  0.00    +0.155 HD
ENDROOT
BRANCH   1  30
ATOM     26  C   UNL     1       0.203   1.461  -0.461  0.00  0.00    +0.046 C 
ATOM     27  C   UNL     1       0.109  -0.024  -0.224  0.00  0.00    -0.020 A 
ATOM     28  C   UNL     1       1.179  -0.705   0.326  0.00  0.00    +0.007 A 
ATOM     29  C   UNL     1       1.096  -2.066   0.544  0.00  0.00    +0.024 A 
ATOM     30  C   UNL     1      -0.065  -2.751   0.211  0.00  0.00    +0.046 A 
ATOM     31  C   UNL     1      -1.138  -2.065  -0.340  0.00  0.00    +0.057 A 
ATOM     32  C   UNL     1      -1.051  -0.702  -0.551  0.00  0.00    +0.131 A 
BRANCH  32  33
ATOM     33  N   UNL     1      -2.197   0.031  -1.134  0.00  0.00    +0.057 N 
ATOM     34  O   UNL     1      -2.457   1.149  -0.752  0.00  0.00    -0.126 OA
ATOM     35  O   UNL     1      -2.874  -0.488  -1.991  0.00  0.00    -0.126 OA
ENDBRANCH  32  33
ENDBRANCH   1  30
TORSDOF 2
