REMARK  Name = ZINC49932840
REMARK  4 active torsions:
REMARK  status: ('A' for Active; 'I' for Inactive)
REMARK    1  A    between atoms: C_4  and  N_16
REMARK    2  A    between atoms: C_5  and  C_7
REMARK    3  A    between atoms: C_9  and  C_12
REMARK    4  A    between atoms: C_12  and  C_13
REMARK                            x       y       z     vdW  Elec       q    Type
REMARK                         _______ _______ _______ _____ _____    ______ ____
ROOT
ATOM      1  C   UNL     1       2.071   1.410  -0.812  0.00  0.00    +0.001 A 
ATOM      2  C   UNL     1       1.345   2.072   0.163  0.00  0.00    +0.002 A 
ATOM      3  C   UNL     1       0.468   1.377   0.972  0.00  0.00    +0.023 A 
ATOM      4  C   UNL     1       0.311   0.006   0.811  0.00  0.00    +0.035 A 
ATOM      5  C   UNL     1       1.044  -0.665  -0.175  0.00  0.00    +0.043 A 
ATOM      6  C   UNL     1       1.926   0.049  -0.985  0.00  0.00    +0.013 A 
ENDROOT
BRANCH   5   7
ATOM      7  C   UNL     1       0.885  -2.128  -0.355  0.00  0.00    +0.204 A 
ATOM      8  N   UNL     1      -0.286  -2.787  -0.426  0.00  0.00    -0.191 NA
ATOM      9  C   UNL     1      -0.071  -4.061  -0.587  0.00  0.00    +0.228 A 
ATOM     10  O   UNL     1       1.252  -4.268  -0.625  0.00  0.00    -0.338 OA
ATOM     11  N   UNL     1       1.861  -2.994  -0.478  0.00  0.00    -0.056 NA
BRANCH   9  12
ATOM     12  C   UNL     1      -1.132  -5.125  -0.708  0.00  0.00    +0.102 C 
BRANCH  12  13
ATOM     13  C   UNL     1      -1.506  -5.306  -2.181  0.00  0.00    -0.002 C 
ATOM     14  C   UNL     1      -2.940  -4.968  -2.593  0.00  0.00    +0.004 C 
ATOM     15  C   UNL     1      -2.487  -6.428  -2.528  0.00  0.00    +0.004 C 
ENDBRANCH  12  13
ENDBRANCH   9  12
ENDBRANCH   5   7
BRANCH   4  16
ATOM     16  N   UNL     1      -0.573  -0.697   1.626  0.00  0.00    -0.357 N 
ATOM     17  H   UNL     1      -1.146  -0.219   2.245  0.00  0.00    +0.142 HD
ATOM     18  H   UNL     1      -0.614  -1.665   1.575  0.00  0.00    +0.142 HD
ENDBRANCH   4  16
TORSDOF 4
