REMARK  Name = ZINC62386977
REMARK  9 active torsions:
REMARK  status: ('A' for Active; 'I' for Inactive)
REMARK    1  A    between atoms: C_1  and  C_2
REMARK    2  A    between atoms: C_2  and  N_3
REMARK    3  A    between atoms: C_11  and  C_12
REMARK    4  A    between atoms: C_12  and  C_13
REMARK    5  A    between atoms: C_12  and  N_14
REMARK    6  A    between atoms: N_17  and  C_18
REMARK    7  A    between atoms: C_23  and  C_24
REMARK    8  A    between atoms: C_24  and  C_25
REMARK    9  A    between atoms: N_27  and  C_28
REMARK                            x       y       z     vdW  Elec       q    Type
REMARK                         _______ _______ _______ _____ _____    ______ ____
ROOT
ATOM      1  N   UNL     1      -2.100  -1.778  -3.296  0.00  0.00    -0.290 N 
ATOM      2  C   UNL     1      -1.413  -2.108  -4.407  0.00  0.00    +0.304 C 
ATOM      3  O   UNL     1      -0.472  -1.427  -4.765  0.00  0.00    -0.252 OA
ATOM      4  N   UNL     1      -1.769  -3.194  -5.122  0.00  0.00    -0.269 N 
ATOM      5  H   UNL     1      -2.851  -2.321  -3.010  0.00  0.00    +0.151 HD
ATOM      6  H   UNL     1      -2.466  -3.784  -4.793  0.00  0.00    +0.156 HD
ENDROOT
BRANCH   4   7
ATOM      7  C   UNL     1      -1.133  -3.471  -6.337  0.00  0.00    +0.038 A 
ATOM      8  C   UNL     1      -0.544  -2.445  -7.064  0.00  0.00    +0.023 A 
ATOM      9  C   UNL     1       0.083  -2.722  -8.263  0.00  0.00    +0.002 A 
ATOM     10  C   UNL     1       0.125  -4.020  -8.739  0.00  0.00    +0.000 A 
ATOM     11  C   UNL     1      -0.461  -5.043  -8.018  0.00  0.00    +0.006 A 
ATOM     12  C   UNL     1      -1.085  -4.774  -6.816  0.00  0.00    -0.017 A 
BRANCH  12  13
ATOM     13  C   UNL     1      -1.718  -5.891  -6.027  0.00  0.00    +0.132 C 
BRANCH  13  14
ATOM     14  C   UNL     1      -3.184  -5.976  -6.364  0.00  0.00    +0.217 C 
ATOM     15  O   UNL     1      -3.668  -5.205  -7.165  0.00  0.00    -0.275 OA
ATOM     16  N   UNL     1      -3.958  -6.909  -5.774  0.00  0.00    -0.318 N 
ATOM     17  C   UNL     1      -5.384  -6.991  -6.101  0.00  0.00    +0.128 C 
ATOM     18  H   UNL     1      -3.571  -7.525  -5.133  0.00  0.00    +0.148 HD
ENDBRANCH  13  14
ENDBRANCH  12  13
ENDBRANCH   4   7
BRANCH   1  19
ATOM     19  C   UNL     1      -1.714  -0.597  -2.519  0.00  0.00    +0.138 C 
ATOM     20  C   UNL     1      -2.372   0.646  -3.119  0.00  0.00    +0.036 C 
BRANCH  19  29
ATOM     21  N   UNL     1      -1.406  -0.489   0.004  0.00  0.00    -0.326 N 
ATOM     22  C   UNL     1      -2.175  -0.766   1.116  0.00  0.00    +0.069 A 
ATOM     23  C   UNL     1      -1.960  -0.681   2.485  0.00  0.00    +0.028 A 
ATOM     24  C   UNL     1      -2.964  -1.045   3.358  0.00  0.00    +0.002 A 
ATOM     25  C   UNL     1      -4.186  -1.494   2.876  0.00  0.00    +0.002 A 
ATOM     26  C   UNL     1      -4.415  -1.584   1.533  0.00  0.00    +0.030 A 
ATOM     27  C   UNL     1      -3.412  -1.220   0.630  0.00  0.00    +0.089 A 
ATOM     28  N   UNL     1      -3.336  -1.198  -0.726  0.00  0.00    -0.230 NA
ATOM     29  C   UNL     1      -2.165  -0.765  -1.091  0.00  0.00    +0.131 A 
BRANCH  21  31
ATOM     30  C   UNL     1      -0.047   1.544   0.004  0.00  0.00    +0.027 C 
ATOM     31  C   UNL     1      -0.030   0.014   0.002  0.00  0.00    +0.120 C 
ENDBRANCH  21  31
ENDBRANCH  19  29
ENDBRANCH   1  19
TORSDOF 6
