REMARK  Name = ZINC44981965
REMARK  3 active torsions:
REMARK  status: ('A' for Active; 'I' for Inactive)
REMARK    1  A    between atoms: C_2  and  N_8
REMARK    2  A    between atoms: N_8  and  C_9
REMARK    3  A    between atoms: C_9  and  C_10
REMARK                            x       y       z     vdW  Elec       q    Type
REMARK                         _______ _______ _______ _____ _____    ______ ____
ROOT
ATOM      1  C   UNL     1      -0.016   1.357   0.009  0.00  0.00    +0.129 A 
ATOM      2  C   UNL     1       1.270   1.785  -0.001  0.00  0.00    +0.087 A 
ATOM      3  C   UNL     1       2.102   0.650  -0.015  0.00  0.00    +0.159 A 
ATOM      4  N   UNL     1       1.340  -0.418  -0.013  0.00  0.00    -0.157 NA
ATOM      5  N   UNL     1       0.002  -0.004   0.002  0.00  0.00    -0.281 N 
ATOM      6  H   UNL     1      -0.775  -0.585   0.007  0.00  0.00    +0.188 HD
ATOM      7  N   UNL     1       3.503   0.659  -0.028  0.00  0.00    -0.340 N 
ATOM      8  H   UNL     1       3.983   1.502  -0.029  0.00  0.00    +0.144 HD
ATOM      9  H   UNL     1       3.994  -0.177  -0.037  0.00  0.00    +0.144 HD
ENDROOT
BRANCH   2  10
ATOM     10  N   UNL     1       1.697   3.128   0.002  0.00  0.00    -0.340 N 
ATOM     11  H   UNL     1       2.645   3.336  -0.006  0.00  0.00    +0.146 HD
BRANCH  10  12
ATOM     12  C   UNL     1       0.710   4.211   0.017  0.00  0.00    +0.107 C 
BRANCH  12  13
ATOM     13  C   UNL     1       1.433   5.560   0.017  0.00  0.00    +0.032 C 
ATOM     14  C   UNL     1       0.408   6.690   0.155  0.00  0.00    +0.009 C 
ATOM     15  C   UNL     1       1.135   8.036   0.075  0.00  0.00    +0.028 C 
ATOM     16  C   UNL     1       1.909   8.112  -1.244  0.00  0.00    +0.160 C 
ATOM     17  O   UNL     1       2.822   7.015  -1.322  0.00  0.00    -0.379 OA
ATOM     18  C   UNL     1       2.197   5.731  -1.299  0.00  0.00    +0.164 C 
ENDBRANCH  12  13
ENDBRANCH  10  12
ENDBRANCH   2  10
TORSDOF 3
