REMARK  Name = ZINC52886213
REMARK  9 active torsions:
REMARK  status: ('A' for Active; 'I' for Inactive)
REMARK    1  A    between atoms: C_1  and  N_2
REMARK    2  A    between atoms: N_5  and  C_8
REMARK    3  A    between atoms: C_8  and  C_9
REMARK    4  A    between atoms: C_9  and  O_10
REMARK    5  A    between atoms: O_10  and  C_11
REMARK    6  A    between atoms: C_14  and  C_17
REMARK    7  A    between atoms: C_18  and  C_19
REMARK    8  A    between atoms: C_19  and  C_20
REMARK    9  A    between atoms: C_20  and  O_21
REMARK                            x       y       z     vdW  Elec       q    Type
REMARK                         _______ _______ _______ _____ _____    ______ ____
ROOT
ATOM      1  C   UNL     1       3.205  -2.529  -3.403  0.00  0.00    +0.121 A 
ATOM      2  C   UNL     1       2.976  -3.735  -4.051  0.00  0.00    +0.047 A 
ATOM      3  C   UNL     1       3.352  -3.895  -5.367  0.00  0.00    +0.020 A 
ATOM      4  C   UNL     1       3.964  -2.842  -6.049  0.00  0.00    +0.025 A 
ATOM      5  C   UNL     1       4.192  -1.631  -5.394  0.00  0.00    +0.020 A 
ATOM      6  C   UNL     1       3.808  -1.477  -4.080  0.00  0.00    +0.047 A 
ENDROOT
BRANCH   4   7
ATOM      7  C   UNL     1       4.357  -3.004  -7.417  0.00  0.00    -0.066 C 
ATOM      8  C   UNL     1       4.679  -3.137  -8.538  0.00  0.00    -0.095 C 
BRANCH   8   9
ATOM      9  C   UNL     1       5.082  -3.304  -9.944  0.00  0.00    +0.117 C 
BRANCH   9  10
ATOM     10  C   UNL     1       5.724  -2.009 -10.447  0.00  0.00    +0.168 C 
BRANCH  10  11
ATOM     11  O   UNL     1       6.116  -2.171 -11.811  0.00  0.00    -0.394 OA
ATOM     12  H   UNL     1       6.531  -1.387 -12.197  0.00  0.00    +0.209 HD
ENDBRANCH  10  11
ENDBRANCH   9  10
ENDBRANCH   8   9
ENDBRANCH   4   7
BRANCH   1  13
ATOM     13  O   UNL     1       2.832  -2.375  -2.105  0.00  0.00    -0.490 OA
BRANCH  13  14
ATOM     14  C   UNL     1       2.217  -3.497  -1.470  0.00  0.00    +0.248 C 
BRANCH  14  15
ATOM     15  C   UNL     1       1.870  -3.137  -0.024  0.00  0.00    +0.150 C 
BRANCH  15  20
ATOM     16  C   UNL     1      -0.018   1.461   0.010  0.00  0.00    +0.133 C 
ATOM     17  N   UNL     1       0.002  -0.004   0.002  0.00  0.00    -0.287 N 
ATOM     18  C   UNL     1      -1.185  -0.872   0.003  0.00  0.00    +0.128 C 
ATOM     19  C   UNL     1      -0.599  -2.298  -0.008  0.00  0.00    +0.128 C 
ATOM     20  N   UNL     1       0.855  -2.081  -0.013  0.00  0.00    -0.281 N 
ATOM     21  C   UNL     1       1.104  -0.765  -0.013  0.00  0.00    +0.305 C 
ATOM     22  O   UNL     1       2.229  -0.303  -0.022  0.00  0.00    -0.252 OA
ENDBRANCH  15  20
ENDBRANCH  14  15
ENDBRANCH  13  14
ENDBRANCH   1  13
TORSDOF 8
