REMARK  Name = ZINC61639163
REMARK  4 active torsions:
REMARK  status: ('A' for Active; 'I' for Inactive)
REMARK    1  A    between atoms: N_6  and  C_8
REMARK    2  A    between atoms: C_8  and  C_9
REMARK    3  A    between atoms: C_13  and  N_15
REMARK    4  A    between atoms: N_15  and  N_16
REMARK                            x       y       z     vdW  Elec       q    Type
REMARK                         _______ _______ _______ _____ _____    ______ ____
ROOT
ATOM      1  C   UNL     1       1.263  -2.625   1.397  0.00  0.00    +0.081 A 
ATOM      2  C   UNL     1       2.477  -2.818   2.029  0.00  0.00    +0.064 A 
ATOM      3  C   UNL     1       2.495  -3.288   3.336  0.00  0.00    +0.025 A 
ATOM      4  C   UNL     1       1.289  -3.547   3.962  0.00  0.00    +0.046 A 
ATOM      5  C   UNL     1       0.105  -3.330   3.265  0.00  0.00    +0.132 A 
ATOM      6  N   UNL     1       0.128  -2.876   2.021  0.00  0.00    -0.233 NA
ATOM      7 CL   UNL     1       3.963  -2.478   1.198  0.00  0.00    -0.082 Cl
ENDROOT
BRANCH   5   8
ATOM      8  N   UNL     1      -1.115  -3.587   3.882  0.00  0.00    -0.268 N 
ATOM      9  H   UNL     1      -1.137  -3.916   4.794  0.00  0.00    +0.167 HD
BRANCH   8  10
ATOM     10  N   UNL     1      -2.281  -3.375   3.203  0.00  0.00    -0.255 NA
ATOM     11  H   UNL     1      -3.079  -3.604   3.776  0.00  0.00    +0.140 HD
ATOM     12  H   UNL     1      -2.337  -2.425   2.868  0.00  0.00    +0.140 HD
ENDBRANCH   8  10
ENDBRANCH   5   8
BRANCH   1  13
ATOM     13  C   UNL     1       1.236  -2.115  -0.021  0.00  0.00    +0.183 C 
BRANCH  13  19
ATOM     14  C   UNL     1      -0.016   1.356   0.009  0.00  0.00    +0.038 A 
ATOM     15  C   UNL     1       1.196   2.052   0.002  0.00  0.00    +0.118 A 
ATOM     16  N   UNL     1       2.333   1.387  -0.013  0.00  0.00    -0.201 NA
ATOM     17  C   UNL     1       2.345   0.052  -0.020  0.00  0.00    +0.349 A 
ATOM     18  O   UNL     1       3.412  -0.539  -0.033  0.00  0.00    -0.244 OA
ATOM     19  N   UNL     1       1.197  -0.650  -0.012  0.00  0.00    -0.293 N 
ATOM     20  C   UNL     1       0.002  -0.004   0.002  0.00  0.00    +0.092 A 
ENDBRANCH  13  19
ENDBRANCH   1  13
TORSDOF 4
