REMARK  Name = ZINC35969544
REMARK  10 active torsions:
REMARK  status: ('A' for Active; 'I' for Inactive)
REMARK    1  A    between atoms: C_1  and  C_2
REMARK    2  A    between atoms: C_3  and  C_31
REMARK    3  A    between atoms: C_4  and  C_25
REMARK    4  A    between atoms: C_7  and  C_12
REMARK    5  A    between atoms: C_13  and  N_15
REMARK    6  A    between atoms: C_31  and  O_33
REMARK    7  A    between atoms: O_33  and  C_34
REMARK    8  A    between atoms: C_34  and  C_35
REMARK    9  A    between atoms: C_35  and  O_36
REMARK   10  A    between atoms: O_36  and  C_37
REMARK                            x       y       z     vdW  Elec       q    Type
REMARK                         _______ _______ _______ _____ _____    ______ ____
ROOT
ATOM      1  C   UNL     1       0.108   1.318  -0.120  0.00  0.00    +0.066 C 
ATOM      2  C   UNL     1       0.122  -0.189  -0.088  0.00  0.00    +0.053 C 
ATOM      3  C   UNL     1      -1.069  -0.884  -0.001  0.00  0.00    +0.082 C 
ATOM      4  C   UNL     1      -1.003  -2.395   0.027  0.00  0.00    +0.150 C 
ATOM      5  N   UNL     1       0.347  -3.014  -0.041  0.00  0.00    -0.267 N 
ATOM      6  C   UNL     1       0.644  -4.363  -0.031  0.00  0.00    +0.048 C 
ATOM      7  C   UNL     1       1.946  -4.718  -0.102  0.00  0.00    +0.072 C 
ATOM      8  S   UNL     1       2.757  -3.134  -0.185  0.00  0.00    -0.060 S 
ATOM      9  C   UNL     1       1.401  -2.147  -0.123  0.00  0.00    +0.166 C 
ATOM     10  N   UNL     1       1.274  -0.837  -0.149  0.00  0.00    -0.230 NA
ENDROOT
BRANCH   4  11
ATOM     11  C   UNL     1      -1.811  -2.916  -1.133  0.00  0.00    -0.022 A 
ATOM     12  C   UNL     1      -1.317  -2.816  -2.420  0.00  0.00    +0.006 A 
ATOM     13  C   UNL     1      -2.058  -3.295  -3.484  0.00  0.00    +0.000 A 
ATOM     14  C   UNL     1      -3.294  -3.873  -3.261  0.00  0.00    +0.000 A 
ATOM     15  C   UNL     1      -3.788  -3.974  -1.974  0.00  0.00    +0.000 A 
ATOM     16  C   UNL     1      -3.044  -3.500  -0.910  0.00  0.00    +0.006 A 
ENDBRANCH   4  11
BRANCH   6  17
ATOM     17  C   UNL     1      -0.418  -5.375   0.055  0.00  0.00    +0.091 C 
ATOM     18  C   UNL     1      -0.099  -6.675   0.210  0.00  0.00    +0.242 C 
ATOM     19  O   UNL     1       1.191  -7.035   0.419  0.00  0.00    -0.271 OA
BRANCH  18  20
ATOM     20  N   UNL     1      -1.088  -7.642   0.155  0.00  0.00    -0.293 N 
ATOM     21  C   UNL     1      -0.804  -9.000  -0.337  0.00  0.00    +0.113 C 
ATOM     22  C   UNL     1      -1.015  -9.973   0.822  0.00  0.00    +0.054 C 
ATOM     23  C   UNL     1      -2.320  -9.697   1.523  0.00  0.00    -0.041 A 
ATOM     24  C   UNL     1      -2.864 -10.716   2.295  0.00  0.00    +0.004 A 
ATOM     25  C   UNL     1      -4.051 -10.527   2.970  0.00  0.00    +0.000 A 
ATOM     26  C   UNL     1      -4.707  -9.313   2.881  0.00  0.00    +0.000 A 
ATOM     27  C   UNL     1      -4.170  -8.300   2.112  0.00  0.00    +0.005 A 
ATOM     28  C   UNL     1      -2.978  -8.492   1.427  0.00  0.00    -0.027 A 
ATOM     29  C   UNL     1      -2.459  -7.356   0.590  0.00  0.00    +0.143 C 
ENDBRANCH  18  20
ENDBRANCH   6  17
BRANCH   3  30
ATOM     30  C   UNL     1      -2.296  -0.212   0.059  0.00  0.00    +0.339 C 
ATOM     31  O   UNL     1      -2.326   1.006   0.035  0.00  0.00    -0.245 OA
BRANCH  30  32
ATOM     32  O   UNL     1      -3.447  -0.915   0.143  0.00  0.00    -0.459 OA
BRANCH  32  33
ATOM     33  C   UNL     1      -4.662  -0.165   0.201  0.00  0.00    +0.260 C 
BRANCH  33  34
ATOM     34  C   UNL     1      -5.851  -1.124   0.293  0.00  0.00    +0.200 C 
BRANCH  34  35
ATOM     35  O   UNL     1      -5.789  -1.841   1.528  0.00  0.00    -0.380 OA
ATOM     36  C   UNL     1      -6.859  -2.769   1.715  0.00  0.00    +0.194 C 
ENDBRANCH  34  35
ENDBRANCH  33  34
ENDBRANCH  32  33
ENDBRANCH  30  32
ENDBRANCH   3  30
TORSDOF 8
