REMARK  Name = ZINC03900051
REMARK  7 active torsions:
REMARK  status: ('A' for Active; 'I' for Inactive)
REMARK    1  A    between atoms: C_1  and  C_2
REMARK    2  A    between atoms: C_5  and  N_11
REMARK    3  A    between atoms: C_7  and  N_8
REMARK    4  A    between atoms: N_11  and  C_12
REMARK    5  A    between atoms: C_14  and  O_24
REMARK    6  A    between atoms: C_16  and  O_23
REMARK    7  A    between atoms: C_18  and  O_22
REMARK                            x       y       z     vdW  Elec       q    Type
REMARK                         _______ _______ _______ _____ _____    ______ ____
ROOT
ATOM      1  N   UNL     1       2.236   1.196  -3.579  0.00  0.00    -0.317 N 
ATOM      2  H   UNL     1       2.194   0.262  -3.836  0.00  0.00    +0.149 HD
ENDROOT
BRANCH   1   7
ATOM      3  C   UNL     1       6.174   4.589  -5.846  0.00  0.00    +0.046 C 
ATOM      4  C   UNL     1       5.127   3.687  -5.243  0.00  0.00    -0.020 A 
ATOM      5  C   UNL     1       4.228   4.194  -4.323  0.00  0.00    +0.007 A 
ATOM      6  C   UNL     1       3.267   3.370  -3.769  0.00  0.00    +0.023 A 
ATOM      7  C   UNL     1       3.206   2.032  -4.137  0.00  0.00    +0.031 A 
ATOM      8  C   UNL     1       4.114   1.526  -5.057  0.00  0.00    +0.056 A 
ATOM      9  C   UNL     1       5.069   2.356  -5.612  0.00  0.00    +0.131 A 
BRANCH   9  10
ATOM     10  N   UNL     1       6.033   1.819  -6.597  0.00  0.00    +0.057 N 
ATOM     11  O   UNL     1       5.914   0.678  -7.007  0.00  0.00    -0.126 OA
ATOM     12  O   UNL     1       6.947   2.517  -6.999  0.00  0.00    -0.126 OA
ENDBRANCH   9  10
ENDBRANCH   1   7
BRANCH   1  13
ATOM     13  C   UNL     1       1.282   1.731  -2.603  0.00  0.00    +0.235 C 
ATOM     14  C   UNL     1      -0.074   1.044  -2.786  0.00  0.00    +0.192 C 
ATOM     15  C   UNL     1      -1.048   1.564  -1.724  0.00  0.00    +0.178 C 
ATOM     16  C   UNL     1      -0.453   1.316  -0.335  0.00  0.00    +0.171 C 
ATOM     17  C   UNL     1       0.918   1.993  -0.248  0.00  0.00    +0.196 C 
ATOM     18  O   UNL     1       1.765   1.486  -1.281  0.00  0.00    -0.354 OA
BRANCH  16  19
ATOM     19  O   UNL     1      -1.319   1.862   0.661  0.00  0.00    -0.387 OA
ATOM     20  H   UNL     1      -1.002   1.743   1.567  0.00  0.00    +0.210 HD
ENDBRANCH  16  19
BRANCH  15  21
ATOM     21  O   UNL     1      -1.256   2.965  -1.913  0.00  0.00    -0.386 OA
ATOM     22  H   UNL     1      -1.858   3.363  -1.269  0.00  0.00    +0.210 HD
ENDBRANCH  15  21
BRANCH  14  23
ATOM     23  O   UNL     1      -0.586   1.335  -4.088  0.00  0.00    -0.385 OA
ATOM     24  H   UNL     1      -0.016   1.037  -4.810  0.00  0.00    +0.210 HD
ENDBRANCH  14  23
ENDBRANCH   1  13
TORSDOF 6
