REMARK  Name = ZINC18054276
REMARK  7 active torsions:
REMARK  status: ('A' for Active; 'I' for Inactive)
REMARK    1  A    between atoms: C_1  and  C_2
REMARK    2  A    between atoms: C_2  and  C_4
REMARK    3  A    between atoms: C_2  and  O_21
REMARK    4  A    between atoms: N_6  and  N_7
REMARK    5  A    between atoms: C_8  and  C_10
REMARK    6  A    between atoms: C_19  and  O_20
REMARK    7  A    between atoms: O_21  and  C_22
REMARK                            x       y       z     vdW  Elec       q    Type
REMARK                         _______ _______ _______ _____ _____    ______ ____
ROOT
ATOM      1  N   UNL     1      -3.742   3.466   0.572  0.00  0.00    -0.230 N 
ATOM      2  C   UNL     1      -3.688   2.119   0.603  0.00  0.00    +0.264 C 
ATOM      3  O   UNL     1      -4.700   1.466   0.441  0.00  0.00    -0.269 OA
ATOM      4  H   UNL     1      -2.934   3.987   0.701  0.00  0.00    +0.173 HD
ENDROOT
BRANCH   2   5
ATOM      5  C   UNL     1      -2.399   1.438   0.833  0.00  0.00    +0.080 A 
ATOM      6  C   UNL     1      -1.249   2.187   1.023  0.00  0.00    +0.025 A 
ATOM      7  C   UNL     1      -0.026   1.534   1.236  0.00  0.00    -0.017 A 
ATOM      8  C   UNL     1       1.162   2.263   1.427  0.00  0.00    +0.008 A 
ATOM      9  C   UNL     1       2.332   1.601   1.637  0.00  0.00    +0.001 A 
ATOM     10  C   UNL     1       2.373   0.208   1.665  0.00  0.00    +0.001 A 
ATOM     11  C   UNL     1       1.244  -0.531   1.485  0.00  0.00    +0.008 A 
ATOM     12  C   UNL     1       0.015   0.116   1.265  0.00  0.00    -0.014 A 
ATOM     13  C   UNL     1      -1.166  -0.620   1.076  0.00  0.00    +0.054 A 
ATOM     14  C   UNL     1      -2.347   0.029   0.865  0.00  0.00    +0.130 A 
BRANCH  14  15
ATOM     15  O   UNL     1      -3.484  -0.689   0.683  0.00  0.00    -0.506 OA
ATOM     16  H   UNL     1      -3.962  -0.884   1.501  0.00  0.00    +0.292 HD
ENDBRANCH  14  15
ENDBRANCH   2   5
BRANCH   1  19
ATOM     17  C   UNL     1      -5.020   5.459   0.323  0.00  0.00    +0.270 C 
ATOM     18  O   UNL     1      -4.010   6.110   0.484  0.00  0.00    -0.270 OA
ATOM     19  N   UNL     1      -4.966   4.112   0.354  0.00  0.00    -0.231 N 
ATOM     20  H   UNL     1      -5.774   3.591   0.224  0.00  0.00    +0.173 HD
BRANCH  17  22
ATOM     21  C   UNL     1      -7.280   5.870   1.258  0.00  0.00    +0.062 C 
ATOM     22  C   UNL     1      -6.336   6.154   0.087  0.00  0.00    +0.257 C 
BRANCH  22  23
ATOM     23  O   UNL     1      -6.119   7.563  -0.017  0.00  0.00    -0.477 OA
BRANCH  23  24
ATOM     24  C   UNL     1      -7.037   8.279  -0.719  0.00  0.00    +0.157 A 
ATOM     25  C   UNL     1      -8.182   7.660  -1.198  0.00  0.00    +0.048 A 
ATOM     26  C   UNL     1      -9.114   8.389  -1.911  0.00  0.00    +0.004 A 
ATOM     27  C   UNL     1      -8.908   9.736  -2.146  0.00  0.00    +0.003 A 
ATOM     28  C   UNL     1      -7.768  10.357  -1.669  0.00  0.00    +0.042 A 
ATOM     29  C   UNL     1      -6.834   9.633  -0.952  0.00  0.00    +0.165 A 
ATOM     30  F   UNL     1      -5.722  10.241  -0.482  0.00  0.00    -0.202 F 
ENDBRANCH  23  24
ENDBRANCH  22  23
ENDBRANCH  17  22
ENDBRANCH   1  19
TORSDOF 6
