REMARK  Name = ZINC44272514
REMARK  1 active torsions:
REMARK  status: ('A' for Active; 'I' for Inactive)
REMARK    1  A    between atoms: C_5  and  N_8
REMARK                            x       y       z     vdW  Elec       q    Type
REMARK                         _______ _______ _______ _____ _____    ______ ____
ROOT
ATOM      1  C   UNL     1       0.149   1.382   0.582  0.00  0.00    +0.048 A 
ATOM      2  C   UNL     1       1.172   2.085  -0.033  0.00  0.00    +0.077 A 
ATOM      3  C   UNL     1       2.220   1.402  -0.647  0.00  0.00    +0.144 A 
ATOM      4  C   UNL     1       2.239   0.018  -0.643  0.00  0.00    +0.072 A 
ATOM      5  C   UNL     1       1.212  -0.685  -0.026  0.00  0.00    +0.057 A 
ATOM      6  C   UNL     1       0.168  -0.001   0.585  0.00  0.00    +0.064 A 
ATOM      7 CL   UNL     1      -1.113  -0.884   1.354  0.00  0.00    -0.082 Cl
ATOM      8  O   UNL     1       3.216   2.106  -1.249  0.00  0.00    -0.481 OA
ATOM      9  C   UNL     1       2.851   3.349  -1.853  0.00  0.00    +0.325 C 
ATOM     10  C   UNL     1       1.985   4.138  -0.904  0.00  0.00    +0.255 C 
ATOM     11  O   UNL     1       2.021   5.351  -0.912  0.00  0.00    -0.272 OA
ATOM     12  N   UNL     1       1.169   3.489  -0.045  0.00  0.00    -0.280 N 
ATOM     13  H   UNL     1       0.589   3.986   0.553  0.00  0.00    +0.155 HD
ENDROOT
BRANCH   5  14
ATOM     14  N   UNL     1       1.229  -2.086  -0.021  0.00  0.00    -0.268 N 
ATOM     15  C   UNL     1       2.398  -2.747  -0.137  0.00  0.00    +0.306 C 
ATOM     16  O   UNL     1       3.446  -2.131  -0.144  0.00  0.00    -0.252 OA
ATOM     17  N   UNL     1       2.405  -4.090  -0.246  0.00  0.00    -0.285 N 
ATOM     18  C   UNL     1       1.216  -4.955  -0.258  0.00  0.00    +0.109 C 
ATOM     19  C   UNL     1       1.710  -6.412  -0.373  0.00  0.00    +0.020 C 
ATOM     20  C   UNL     1       3.169  -6.327   0.149  0.00  0.00    +0.020 C 
ATOM     21  C   UNL     1       3.605  -4.935  -0.379  0.00  0.00    +0.109 C 
ATOM     22  H   UNL     1       0.399  -2.581   0.067  0.00  0.00    +0.156 HD
ENDBRANCH   5  14
TORSDOF 1
