REMARK  Name = ZINC41247854
REMARK  9 active torsions:
REMARK  status: ('A' for Active; 'I' for Inactive)
REMARK    1  A    between atoms: C_1  and  C_2
REMARK    2  A    between atoms: C_2  and  C_4
REMARK    3  A    between atoms: C_2  and  N_12
REMARK    4  A    between atoms: N_12  and  S_13
REMARK    5  A    between atoms: S_13  and  C_16
REMARK    6  A    between atoms: C_19  and  O_22
REMARK    7  A    between atoms: O_22  and  C_23
REMARK    8  A    between atoms: C_23  and  C_24
REMARK    9  A    between atoms: C_23  and  C_25
REMARK                            x       y       z     vdW  Elec       q    Type
REMARK                         _______ _______ _______ _____ _____    ______ ____
ROOT
ATOM      1  S   UNL     1      -1.931  -0.794  -1.225  0.00  0.00    +0.059 S 
ATOM      2  O   UNL     1      -3.035  -1.494  -0.668  0.00  0.00    -0.153 OA
ATOM      3  O   UNL     1      -2.079   0.148  -2.279  0.00  0.00    -0.153 OA
ENDROOT
BRANCH   1   4
ATOM      4  C   UNL     1      -0.797  -2.015  -1.797  0.00  0.00    +0.105 A 
ATOM      5  C   UNL     1       0.111  -1.702  -2.792  0.00  0.00    +0.032 A 
ATOM      6  C   UNL     1       1.001  -2.658  -3.242  0.00  0.00    +0.047 A 
ATOM      7  C   UNL     1       0.983  -3.933  -2.695  0.00  0.00    +0.121 A 
ATOM      8  C   UNL     1       0.072  -4.244  -1.697  0.00  0.00    +0.047 A 
ATOM      9  C   UNL     1      -0.813  -3.283  -1.246  0.00  0.00    +0.032 A 
BRANCH   7  10
ATOM     10  O   UNL     1       1.857  -4.875  -3.137  0.00  0.00    -0.489 OA
BRANCH  10  11
ATOM     11  C   UNL     1       2.846  -4.452  -4.078  0.00  0.00    +0.167 C 
ATOM     12  C   UNL     1       4.061  -5.378  -3.992  0.00  0.00    +0.051 C 
ATOM     13  C   UNL     1       2.262  -4.508  -5.491  0.00  0.00    +0.051 C 
ENDBRANCH  10  11
ENDBRANCH   7  10
ENDBRANCH   1   4
BRANCH   1  14
ATOM     14  N   UNL     1      -1.199   0.007   0.025  0.00  0.00    -0.178 NA
ATOM     15  H   UNL     1      -1.564  -0.056   0.922  0.00  0.00    +0.149 HD
BRANCH  14  17
ATOM     16  C   UNL     1      -0.399   2.271  -0.441  0.00  0.00    +0.035 C 
ATOM     17  C   UNL     1       0.001   0.810  -0.222  0.00  0.00    +0.159 C 
BRANCH  17  18
ATOM     18  C   UNL     1       0.923   0.715   0.967  0.00  0.00    +0.234 C 
ATOM     19  O   UNL     1       0.474   0.461   2.064  0.00  0.00    -0.274 OA
ATOM     20  N   UNL     1       2.247   0.912   0.810  0.00  0.00    -0.300 N 
ATOM     21  C   UNL     1       2.793   1.332  -0.488  0.00  0.00    +0.108 C 
ATOM     22  C   UNL     1       3.639   2.592  -0.282  0.00  0.00    +0.019 C 
ATOM     23  C   UNL     1       4.700   2.321   0.787  0.00  0.00    +0.003 C 
ATOM     24  C   UNL     1       4.014   1.978   2.112  0.00  0.00    +0.019 C 
ATOM     25  C   UNL     1       3.172   0.716   1.935  0.00  0.00    +0.108 C 
ENDBRANCH  17  18
ENDBRANCH  14  17
ENDBRANCH   1  14
TORSDOF 6
