REMARK  Name = ZINC67384306
REMARK  6 active torsions:
REMARK  status: ('A' for Active; 'I' for Inactive)
REMARK    1  A    between atoms: C_3  and  C_8
REMARK    2  A    between atoms: C_11  and  N_13
REMARK    3  A    between atoms: N_13  and  C_14
REMARK    4  A    between atoms: C_17  and  N_24
REMARK    5  A    between atoms: C_19  and  S_20
REMARK    6  A    between atoms: S_20  and  N_23
REMARK                            x       y       z     vdW  Elec       q    Type
REMARK                         _______ _______ _______ _____ _____    ______ ____
ROOT
ATOM      1  C   UNL     1       4.757   1.116   3.471  0.00  0.00    +0.054 A 
ATOM      2  C   UNL     1       5.653   2.133   3.775  0.00  0.00    +0.027 A 
ATOM      3  C   UNL     1       6.166   2.241   5.052  0.00  0.00    +0.034 A 
ATOM      4  C   UNL     1       5.788   1.337   6.029  0.00  0.00    +0.128 A 
ATOM      5  C   UNL     1       4.897   0.323   5.730  0.00  0.00    +0.063 A 
ATOM      6  C   UNL     1       4.376   0.213   4.455  0.00  0.00    +0.128 A 
ENDROOT
BRANCH   6   7
ATOM      7  S   UNL     1       3.235  -1.075   4.077  0.00  0.00    +0.058 S 
ATOM      8  O   UNL     1       3.699  -1.691   2.884  0.00  0.00    -0.153 OA
ATOM      9  O   UNL     1       3.030  -1.802   5.281  0.00  0.00    -0.153 OA
BRANCH   7  10
ATOM     10  N   UNL     1       1.790  -0.355   3.707  0.00  0.00    -0.203 NA
ATOM     11  H   UNL     1       1.182  -0.781   3.081  0.00  0.00    +0.144 HD
ATOM     12  H   UNL     1       1.550   0.491   4.116  0.00  0.00    +0.144 HD
ENDBRANCH   7  10
ENDBRANCH   6   7
BRANCH   4  13
ATOM     13  N   UNL     1       6.340   1.455   7.397  0.00  0.00    +0.056 N 
ATOM     14  O   UNL     1       7.120   2.341   7.660  0.00  0.00    -0.126 OA
ATOM     15  O   UNL     1       6.011   0.666   8.252  0.00  0.00    -0.126 OA
ENDBRANCH   4  13
BRANCH   1  16
ATOM     16  N   UNL     1       4.235   1.005   2.180  0.00  0.00    -0.339 N 
ATOM     17  H   UNL     1       3.607   0.297   1.970  0.00  0.00    +0.146 HD
BRANCH  16  20
ATOM     18  C   UNL     1       3.672   2.186  -0.021  0.00  0.00    +0.041 C 
ATOM     19  C   UNL     1       4.964   1.398  -0.244  0.00  0.00    +0.032 C 
ATOM     20  C   UNL     1       4.638   1.958   1.143  0.00  0.00    +0.078 C 
BRANCH  18  23
ATOM     21  C   UNL     1      -0.017   1.377   0.010  0.00  0.00    +0.003 A 
ATOM     22  C   UNL     1       1.171   2.086   0.002  0.00  0.00    +0.004 A 
ATOM     23  C   UNL     1       2.378   1.413  -0.013  0.00  0.00    -0.040 A 
ATOM     24  C   UNL     1       2.399   0.030  -0.021  0.00  0.00    +0.042 A 
ATOM     25  C   UNL     1       1.211  -0.679  -0.013  0.00  0.00    +0.124 A 
ATOM     26  C   UNL     1       0.002  -0.004   0.002  0.00  0.00    +0.038 A 
ATOM     27  F   UNL     1       1.230  -2.030  -0.022  0.00  0.00    -0.205 F 
ENDBRANCH  18  23
ENDBRANCH  16  20
ENDBRANCH   1  16
TORSDOF 6
