REMARK  Name = ZINC14455983
REMARK  7 active torsions:
REMARK  status: ('A' for Active; 'I' for Inactive)
REMARK    1  A    between atoms: C_1  and  C_2
REMARK    2  A    between atoms: C_2  and  O_3
REMARK    3  A    between atoms: O_3  and  C_4
REMARK    4  A    between atoms: C_7  and  N_10
REMARK    5  A    between atoms: C_11  and  C_13
REMARK    6  A    between atoms: C_20  and  C_29
REMARK    7  A    between atoms: C_30  and  C_34
REMARK                            x       y       z     vdW  Elec       q    Type
REMARK                         _______ _______ _______ _____ _____    ______ ____
ROOT
ATOM      1  C   UNL     1       1.158   1.775   0.202  0.00  0.00    +0.058 A 
ATOM      2  C   UNL     1      -0.018   1.065  -0.045  0.00  0.00    +0.015 A 
ATOM      3  C   UNL     1      -1.226   1.727  -0.040  0.00  0.00    +0.001 A 
ATOM      4  C   UNL     1      -1.276   3.084   0.220  0.00  0.00    +0.006 A 
ATOM      5  C   UNL     1      -0.118   3.808   0.468  0.00  0.00    -0.019 A 
ATOM      6  C   UNL     1       1.105   3.159   0.459  0.00  0.00    +0.044 A 
ATOM      7  N   UNL     1       2.299   3.824   0.691  0.00  0.00    -0.335 N 
ATOM      8  C   UNL     1       2.117   5.029   1.499  0.00  0.00    +0.112 C 
ATOM      9  C   UNL     1       1.129   5.967   0.801  0.00  0.00    +0.029 C 
ATOM     10  C   UNL     1      -0.252   5.277   0.739  0.00  0.00    +0.049 C 
ATOM     11  C   UNL     1      -0.845   5.516   2.108  0.00  0.00    -0.023 C 
ATOM     12  C   UNL     1      -0.262   6.536   2.688  0.00  0.00    -0.030 C 
ATOM     13  C   UNL     1       0.800   7.127   1.783  0.00  0.00    +0.033 C 
ATOM     14  H   UNL     1       2.980   3.208   1.108  0.00  0.00    +0.147 HD
ENDROOT
BRANCH   8  15
ATOM     15  C   UNL     1       1.577   4.649   2.854  0.00  0.00    +0.013 A 
ATOM     16  C   UNL     1       1.962   5.083   4.079  0.00  0.00    -0.038 A 
ATOM     17  C   UNL     1       1.316   4.592   5.198  0.00  0.00    +0.011 A 
ATOM     18  C   UNL     1       0.316   3.690   5.037  0.00  0.00    +0.046 A 
ATOM     19  S   UNL     1       0.259   3.516   3.261  0.00  0.00    -0.099 S 
ATOM     20  C   UNL     1       3.077   6.087   4.219  0.00  0.00    +0.044 C 
ENDBRANCH   8  15
BRANCH   1  22
ATOM     21  N   UNL     1       2.498  -0.266   0.080  0.00  0.00    -0.281 N 
ATOM     22  C   UNL     1       2.456   1.077   0.193  0.00  0.00    +0.250 C 
ATOM     23  O   UNL     1       3.489   1.712   0.287  0.00  0.00    -0.270 OA
ATOM     24  H   UNL     1       1.680  -0.766  -0.064  0.00  0.00    +0.155 HD
BRANCH  21  28
ATOM     25  C   UNL     1       6.146  -2.267   0.349  0.00  0.00    +0.121 A 
ATOM     26  C   UNL     1       4.995  -2.851   0.859  0.00  0.00    +0.047 A 
ATOM     27  C   UNL     1       3.787  -2.189   0.770  0.00  0.00    +0.027 A 
ATOM     28  C   UNL     1       3.724  -0.938   0.171  0.00  0.00    +0.034 A 
ATOM     29  C   UNL     1       4.875  -0.356  -0.344  0.00  0.00    +0.027 A 
ATOM     30  C   UNL     1       6.083  -1.018  -0.250  0.00  0.00    +0.047 A 
BRANCH  25  31
ATOM     31  O   UNL     1       7.335  -2.921   0.436  0.00  0.00    -0.492 OA
BRANCH  31  33
ATOM     32  C   UNL     1       9.715  -3.142   0.081  0.00  0.00    +0.048 C 
ATOM     33  C   UNL     1       8.479  -2.261  -0.110  0.00  0.00    +0.225 C 
ENDBRANCH  31  33
ENDBRANCH  25  31
ENDBRANCH  21  28
ENDBRANCH   1  22
TORSDOF 5
