REMARK  Name = ZINC40399747
REMARK  7 active torsions:
REMARK  status: ('A' for Active; 'I' for Inactive)
REMARK    1  A    between atoms: C_1  and  C_2
REMARK    2  A    between atoms: N_6  and  C_25
REMARK    3  A    between atoms: N_11  and  S_14
REMARK    4  A    between atoms: S_14  and  C_17
REMARK    5  A    between atoms: C_25  and  C_26
REMARK    6  A    between atoms: C_26  and  O_27
REMARK    7  A    between atoms: O_27  and  C_28
REMARK                            x       y       z     vdW  Elec       q    Type
REMARK                         _______ _______ _______ _____ _____    ______ ____
ROOT
ATOM      1  C   UNL     1       0.279   1.241   0.845  0.00  0.00    -0.004 C 
ATOM      2  C   UNL     1       0.232  -0.263   0.567  0.00  0.00    +0.016 C 
ATOM      3  C   UNL     1       0.886  -0.573  -0.762  0.00  0.00    +0.200 C 
ATOM      4  O   UNL     1       0.721   0.042  -1.794  0.00  0.00    -0.277 OA
ATOM      5  N   UNL     1       1.685  -1.650  -0.605  0.00  0.00    -0.312 N 
ATOM      6  C   UNL     1       1.613  -2.114   0.783  0.00  0.00    +0.006 C 
ATOM      7  N   UNL     1       1.040  -0.999   1.570  0.00  0.00    +0.401 N 
ATOM      8  C   UNL     1       3.010  -2.447   1.302  0.00  0.00    +0.023 C 
ATOM      9  C   UNL     1       3.609  -3.578   0.458  0.00  0.00    +0.109 C 
ATOM     10  N   UNL     1       2.671  -4.709   0.451  0.00  0.00    -0.177 NA
ATOM     11  C   UNL     1       1.281  -4.473   0.038  0.00  0.00    +0.109 C 
ATOM     12  C   UNL     1       0.702  -3.336   0.886  0.00  0.00    +0.023 C 
ATOM     13  H   UNL     1       1.772  -0.410   1.939  0.00  0.00    -0.082 HD
ATOM     14  H   UNL     1       0.453  -1.349   2.312  0.00  0.00    -0.082 HD
ENDROOT
BRANCH  10  15
ATOM     15  S   UNL     1       3.173  -6.223   0.899  0.00  0.00    +0.061 S 
ATOM     16  O   UNL     1       2.286  -7.144   0.280  0.00  0.00    -0.153 OA
ATOM     17  O   UNL     1       4.578  -6.263   0.693  0.00  0.00    -0.153 OA
BRANCH  15  18
ATOM     18  C   UNL     1       2.914  -6.364   2.636  0.00  0.00    +0.107 A 
ATOM     19  C   UNL     1       3.913  -5.990   3.516  0.00  0.00    +0.030 A 
ATOM     20  C   UNL     1       3.712  -6.101   4.879  0.00  0.00    +0.023 A 
ATOM     21  C   UNL     1       2.510  -6.586   5.363  0.00  0.00    +0.059 A 
ATOM     22  C   UNL     1       1.510  -6.960   4.482  0.00  0.00    +0.061 A 
ATOM     23  C   UNL     1       1.711  -6.843   3.119  0.00  0.00    +0.050 A 
ATOM     24 CL   UNL     1       0.001  -7.569   5.089  0.00  0.00    -0.082 Cl
ATOM     25 CL   UNL     1       2.256  -6.726   7.075  0.00  0.00    -0.082 Cl
ENDBRANCH  15  18
ENDBRANCH  10  15
BRANCH   5  26
ATOM     26  C   UNL     1       2.497  -2.261  -1.660  0.00  0.00    +0.134 C 
BRANCH  26  27
ATOM     27  C   UNL     1       3.816  -1.497  -1.794  0.00  0.00    +0.178 C 
BRANCH  27  28
ATOM     28  O   UNL     1       4.519  -1.538  -0.551  0.00  0.00    -0.381 OA
ATOM     29  C   UNL     1       5.772  -0.850  -0.569  0.00  0.00    +0.194 C 
ENDBRANCH  27  28
ENDBRANCH  26  27
ENDBRANCH   5  26
TORSDOF 5
