REMARK  Name = ZINC67310821
REMARK  11 active torsions:
REMARK  status: ('A' for Active; 'I' for Inactive)
REMARK    1  A    between atoms: C_1  and  C_2
REMARK    2  A    between atoms: C_2  and  O_3
REMARK    3  A    between atoms: O_3  and  C_4
REMARK    4  A    between atoms: C_4  and  C_5
REMARK    5  A    between atoms: C_5  and  C_6
REMARK    6  A    between atoms: C_6  and  N_7
REMARK    7  A    between atoms: N_10  and  N_11
REMARK    8  A    between atoms: C_12  and  C_14
REMARK    9  A    between atoms: C_15  and  C_25
REMARK   10  A    between atoms: C_17  and  C_19
REMARK   11  A    between atoms: C_22  and  C_24
REMARK                            x       y       z     vdW  Elec       q    Type
REMARK                         _______ _______ _______ _____ _____    ______ ____
ROOT
ATOM      1  N   UNL     1       3.567  -4.778  -6.221  0.00  0.00    -0.229 N 
ATOM      2  C   UNL     1       4.212  -5.110  -7.357  0.00  0.00    +0.269 C 
ATOM      3  O   UNL     1       4.383  -6.282  -7.639  0.00  0.00    -0.268 OA
ATOM      4  H   UNL     1       3.430  -3.844  -5.997  0.00  0.00    +0.173 HD
ENDROOT
BRANCH   1   8
ATOM      5  N   UNL     1       2.259  -4.151  -3.917  0.00  0.00    -0.298 N 
ATOM      6  C   UNL     1       2.449  -5.448  -4.229  0.00  0.00    +0.316 C 
ATOM      7  O   UNL     1       2.038  -6.318  -3.486  0.00  0.00    -0.251 OA
ATOM      8  N   UNL     1       3.094  -5.781  -5.365  0.00  0.00    -0.218 N 
ATOM      9  H   UNL     1       2.587  -3.456  -4.510  0.00  0.00    +0.150 HD
ATOM     10  H   UNL     1       3.230  -6.714  -5.590  0.00  0.00    +0.174 HD
BRANCH   5  11
ATOM     11  C   UNL     1       1.558  -3.789  -2.683  0.00  0.00    +0.108 C 
BRANCH  11  12
ATOM     12  C   UNL     1       1.478  -2.265  -2.569  0.00  0.00    +0.047 C 
BRANCH  12  13
ATOM     13  C   UNL     1       0.746  -1.888  -1.280  0.00  0.00    +0.161 C 
BRANCH  13  14
ATOM     14  O   UNL     1       0.671  -0.465  -1.174  0.00  0.00    -0.380 OA
BRANCH  14  16
ATOM     15  C   UNL     1      -0.019   1.526   0.010  0.00  0.00    +0.034 C 
ATOM     16  C   UNL     1       0.002  -0.004   0.002  0.00  0.00    +0.156 C 
ENDBRANCH  14  16
ENDBRANCH  13  14
ENDBRANCH  12  13
ENDBRANCH  11  12
ENDBRANCH   5  11
ENDBRANCH   1   8
BRANCH   2  17
ATOM     17  C   UNL     1       4.706  -4.062  -8.252  0.00  0.00    +0.098 A 
ATOM     18  C   UNL     1       5.383  -4.173  -9.460  0.00  0.00    +0.058 A 
ATOM     19  N   UNL     1       5.732  -3.090 -10.096  0.00  0.00    -0.240 NA
ATOM     20  C   UNL     1       5.455  -1.879  -9.614  0.00  0.00    +0.144 A 
ATOM     21  S   UNL     1       4.600  -2.283  -8.097  0.00  0.00    -0.059 S 
ATOM     22  C   UNL     1       5.711  -5.530 -10.029  0.00  0.00    +0.067 C 
BRANCH  20  23
ATOM     23  C   UNL     1       5.765  -0.561 -10.182  0.00  0.00    +0.160 A 
ATOM     24  C   UNL     1       5.453   0.645  -9.626  0.00  0.00    +0.052 A 
ATOM     25  C   UNL     1       5.936   1.632 -10.503  0.00  0.00    +0.045 A 
ATOM     26  C   UNL     1       6.514   0.992 -11.541  0.00  0.00    +0.103 A 
ATOM     27  O   UNL     1       6.414  -0.331 -11.342  0.00  0.00    -0.458 OA
ATOM     28  C   UNL     1       7.169   1.654 -12.726  0.00  0.00    +0.086 C 
ENDBRANCH  20  23
ENDBRANCH   2  17
TORSDOF 8
