REMARK  Name = ZINC63836087
REMARK  8 active torsions:
REMARK  status: ('A' for Active; 'I' for Inactive)
REMARK    1  A    between atoms: C_1  and  N_2
REMARK    2  A    between atoms: N_2  and  C_3
REMARK    3  A    between atoms: N_2  and  C_4
REMARK    4  A    between atoms: C_4  and  C_9
REMARK    5  A    between atoms: C_9  and  N_10
REMARK    6  A    between atoms: C_11  and  C_13
REMARK    7  A    between atoms: C_13  and  N_14
REMARK    8  A    between atoms: N_17  and  C_18
REMARK                            x       y       z     vdW  Elec       q    Type
REMARK                         _______ _______ _______ _____ _____    ______ ____
ROOT
ATOM      1  N   UNL     1      -2.411   1.335   0.974  0.00  0.00    -0.315 N 
ATOM      2  C   UNL     1      -3.220   1.980   1.837  0.00  0.00    +0.230 C 
ATOM      3  O   UNL     1      -3.761   1.369   2.734  0.00  0.00    -0.274 OA
ATOM      4  H   UNL     1      -1.978   1.825   0.257  0.00  0.00    +0.149 HD
ENDROOT
BRANCH   1   5
ATOM      5  C   UNL     1      -2.184  -0.105   1.120  0.00  0.00    +0.092 C 
BRANCH   5   6
ATOM      6  C   UNL     1      -1.327  -0.606  -0.044  0.00  0.00    -0.050 C 
ATOM      7  C   UNL     1      -2.083  -0.423  -1.376  0.00  0.00    -0.010 C 
ATOM      8  C   UNL     1      -1.699  -1.674  -2.205  0.00  0.00    -0.001 C 
ATOM      9  C   UNL     1      -1.666  -2.795  -1.137  0.00  0.00    -0.001 C 
ATOM     10  C   UNL     1      -1.061  -2.114   0.107  0.00  0.00    -0.010 C 
BRANCH   6  12
ATOM     11  C   UNL     1       0.690  -0.115   1.160  0.00  0.00    -0.096 C 
ATOM     12  N   UNL     1      -0.054   0.127  -0.084  0.00  0.00    +0.381 N 
ATOM     13  C   UNL     1       0.742  -0.334  -1.228  0.00  0.00    -0.096 C 
ATOM     14  H   UNL     1      -0.238   1.115  -0.178  0.00  0.00    -0.082 HD
ENDBRANCH   6  12
ENDBRANCH   5   6
ENDBRANCH   1   5
BRANCH   2  15
ATOM     15  C   UNL     1      -3.454   3.462   1.688  0.00  0.00    +0.201 C 
BRANCH  15  16
ATOM     16  N   UNL     1      -4.364   3.921   2.740  0.00  0.00    -0.291 N 
ATOM     17  C   UNL     1      -4.718   5.220   2.805  0.00  0.00    +0.300 C 
ATOM     18  O   UNL     1      -4.282   6.010   1.990  0.00  0.00    -0.253 OA
ATOM     19  N   UNL     1      -5.556   5.643   3.773  0.00  0.00    -0.297 N 
ATOM     20  H   UNL     1      -4.712   3.291   3.390  0.00  0.00    +0.151 HD
ATOM     21  H   UNL     1      -5.904   5.012   4.422  0.00  0.00    +0.151 HD
BRANCH  19  22
ATOM     22  C   UNL     1      -5.940   7.054   3.843  0.00  0.00    +0.074 C 
ATOM     23  C   UNL     1      -4.880   7.834   4.624  0.00  0.00    +0.022 C 
ATOM     24  C   UNL     1      -5.282   9.308   4.697  0.00  0.00    +0.002 C 
ATOM     25  C   UNL     1      -6.632   9.434   5.406  0.00  0.00    +0.000 C 
ATOM     26  C   UNL     1      -7.692   8.655   4.625  0.00  0.00    +0.002 C 
ATOM     27  C   UNL     1      -7.291   7.180   4.552  0.00  0.00    +0.022 C 
ENDBRANCH  19  22
ENDBRANCH  15  16
ENDBRANCH   2  15
TORSDOF 6
