REMARK  Name = ZINC20166053
REMARK  5 active torsions:
REMARK  status: ('A' for Active; 'I' for Inactive)
REMARK    1  A    between atoms: C_1  and  O_2
REMARK    2  A    between atoms: O_2  and  C_3
REMARK    3  A    between atoms: N_10  and  C_11
REMARK    4  A    between atoms: C_14  and  C_17
REMARK    5  A    between atoms: C_21  and  C_23
REMARK                            x       y       z     vdW  Elec       q    Type
REMARK                         _______ _______ _______ _____ _____    ______ ____
ROOT
ATOM      1  C   UNL     1       1.497  11.443  -0.279  0.00  0.00    +0.121 A 
ATOM      2  C   UNL     1       0.287  12.124  -0.367  0.00  0.00    +0.049 A 
ATOM      3  C   UNL     1      -0.908  11.437  -0.355  0.00  0.00    +0.050 A 
ATOM      4  C   UNL     1      -0.911  10.051  -0.255  0.00  0.00    +0.138 A 
ATOM      5  C   UNL     1       0.309   9.364  -0.166  0.00  0.00    +0.044 A 
ATOM      6  C   UNL     1       1.512  10.064  -0.179  0.00  0.00    +0.059 A 
ATOM      7  C   UNL     1       0.280   7.889  -0.061  0.00  0.00    +0.054 A 
ATOM      8  N   UNL     1       1.399   7.181   0.025  0.00  0.00    -0.354 N 
ATOM      9  C   UNL     1      -0.992   7.261  -0.061  0.00  0.00    +0.073 A 
ATOM     10  C   UNL     1      -2.114   8.023  -0.147  0.00  0.00    +0.138 A 
ATOM     11  O   UNL     1      -2.073   9.362  -0.242  0.00  0.00    -0.455 OA
ATOM     12  H   UNL     1       2.368   7.694   0.109  0.00  0.00    +0.166 HD
ENDROOT
BRANCH   8  13
ATOM     13  C   UNL     1       1.347   5.824   0.011  0.00  0.00    +0.040 A 
ATOM     14  C   UNL     1       1.318   5.137  -1.211  0.00  0.00    +0.026 A 
ATOM     15  C   UNL     1       1.266   3.775  -1.225  0.00  0.00    +0.017 A 
ATOM     16  C   UNL     1       1.241   3.062  -0.020  0.00  0.00    +0.063 A 
ATOM     17  C   UNL     1       1.264   3.748   1.201  0.00  0.00    +0.017 A 
ATOM     18  C   UNL     1       1.322   5.110   1.217  0.00  0.00    +0.026 A 
BRANCH  16  19
ATOM     19  C   UNL     1       1.184   1.591  -0.036  0.00  0.00    +0.387 C 
ATOM     20  O   UNL     1       1.159   0.996  -1.095  0.00  0.00    -0.241 OA
ATOM     21  O   UNL     1       1.160   0.905   1.124  0.00  0.00    -0.241 OA
ENDBRANCH  16  19
ENDBRANCH   8  13
BRANCH  10  22
ATOM     22  C   UNL     1      -3.429   7.351  -0.140  0.00  0.00    +0.017 A 
ATOM     23  C   UNL     1      -3.506   5.960  -0.049  0.00  0.00    +0.011 A 
ATOM     24  C   UNL     1      -4.738   5.340  -0.037  0.00  0.00    +0.001 A 
ATOM     25  C   UNL     1      -5.896   6.093  -0.128  0.00  0.00    +0.000 A 
ATOM     26  C   UNL     1      -5.827   7.472  -0.225  0.00  0.00    +0.001 A 
ATOM     27  C   UNL     1      -4.601   8.105  -0.232  0.00  0.00    +0.011 A 
ENDBRANCH  10  22
BRANCH   1  29
ATOM     28  C   UNL     1       2.579  13.558  -0.397  0.00  0.00    +0.277 C 
ATOM     29  O   UNL     1       2.668  12.135  -0.291  0.00  0.00    -0.495 OA
ENDBRANCH   1  29
TORSDOF 4
