REMARK  Name = ZINC21839605
REMARK  9 active torsions:
REMARK  status: ('A' for Active; 'I' for Inactive)
REMARK    1  A    between atoms: C_1  and  O_2
REMARK    2  A    between atoms: O_2  and  C_3
REMARK    3  A    between atoms: C_3  and  C_5
REMARK    4  A    between atoms: C_9  and  N_11
REMARK    5  A    between atoms: C_12  and  C_14
REMARK    6  A    between atoms: C_14  and  O_15
REMARK    7  A    between atoms: O_15  and  C_16
REMARK    8  A    between atoms: C_16  and  C_18
REMARK    9  A    between atoms: C_23  and  N_24
REMARK                            x       y       z     vdW  Elec       q    Type
REMARK                         _______ _______ _______ _____ _____    ______ ____
ROOT
ATOM      1  N   UNL     1      -1.810   7.508   0.322  0.00  0.00    -0.283 N 
ATOM      2  C   UNL     1      -1.569   6.183   0.294  0.00  0.00    +0.255 C 
ATOM      3  O   UNL     1      -2.489   5.397   0.392  0.00  0.00    -0.272 OA
ATOM      4  H   UNL     1      -0.987   8.220   0.161  0.00  0.00    +0.155 HD
ENDROOT
BRANCH   1   9
ATOM      5  C   UNL     1      -5.488   7.754   0.303  0.00  0.00    +0.061 A 
ATOM      6  C   UNL     1      -5.672   8.931   1.034  0.00  0.00    +0.015 A 
ATOM      7  C   UNL     1      -4.579   9.619   1.518  0.00  0.00    +0.003 A 
ATOM      8  C   UNL     1      -3.300   9.149   1.284  0.00  0.00    +0.023 A 
ATOM      9  C   UNL     1      -3.106   7.980   0.558  0.00  0.00    +0.034 A 
ATOM     10  C   UNL     1      -4.197   7.283   0.061  0.00  0.00    +0.038 A 
BRANCH   5  11
ATOM     11  C   UNL     1      -6.657   7.015  -0.216  0.00  0.00    +0.339 C 
ATOM     12  O   UNL     1      -6.495   5.992  -0.852  0.00  0.00    -0.245 OA
BRANCH  11  14
ATOM     13  C   UNL     1      -9.002   6.697  -0.526  0.00  0.00    +0.280 C 
ATOM     14  O   UNL     1      -7.902   7.474   0.014  0.00  0.00    -0.464 OA
ENDBRANCH  11  14
ENDBRANCH   5  11
ENDBRANCH   1   9
BRANCH   2  15
ATOM     15  C   UNL     1      -0.159   5.676   0.140  0.00  0.00    +0.328 C 
BRANCH  15  16
ATOM     16  O   UNL     1      -0.164   4.224   0.137  0.00  0.00    -0.452 OA
BRANCH  16  17
ATOM     17  C   UNL     1       1.028   3.608   0.007  0.00  0.00    +0.341 C 
ATOM     18  O   UNL     1       2.044   4.267  -0.102  0.00  0.00    -0.245 OA
BRANCH  17  19
ATOM     19  C   UNL     1       1.100   2.137  -0.004  0.00  0.00    +0.081 A 
ATOM     20  C   UNL     1      -0.073   1.375   0.007  0.00  0.00    +0.017 A 
ATOM     21  C   UNL     1       0.001   0.000  -0.004  0.00  0.00    +0.002 A 
ATOM     22  C   UNL     1       1.232  -0.636  -0.025  0.00  0.00    +0.022 A 
ATOM     23  C   UNL     1       2.399   0.101  -0.035  0.00  0.00    +0.062 A 
ATOM     24  C   UNL     1       2.346   1.491  -0.025  0.00  0.00    +0.057 A 
ATOM     25 CL   UNL     1       3.935  -0.707  -0.061  0.00  0.00    -0.082 Cl
BRANCH  24  26
ATOM     26  N   UNL     1       3.518   2.235  -0.036  0.00  0.00    -0.356 N 
ATOM     27  H   UNL     1       4.493   1.725  -0.053  0.00  0.00    +0.142 HD
ATOM     28  H   UNL     1       3.472   3.334  -0.027  0.00  0.00    +0.142 HD
ENDBRANCH  24  26
ENDBRANCH  17  19
ENDBRANCH  16  17
ENDBRANCH  15  16
ENDBRANCH   2  15
TORSDOF 8
