REMARK  Name = ZINC42085202
REMARK  7 active torsions:
REMARK  status: ('A' for Active; 'I' for Inactive)
REMARK    1  A    between atoms: C_1  and  C_2
REMARK    2  A    between atoms: C_8  and  N_10
REMARK    3  A    between atoms: N_10  and  C_11
REMARK    4  A    between atoms: C_11  and  N_13
REMARK    5  A    between atoms: N_13  and  N_14
REMARK    6  A    between atoms: C_15  and  C_17
REMARK    7  A    between atoms: C_21  and  N_23
REMARK                            x       y       z     vdW  Elec       q    Type
REMARK                         _______ _______ _______ _____ _____    ______ ____
ROOT
ATOM      1  N   UNL     1      -1.257   0.843   4.663  0.00  0.00    -0.231 N 
ATOM      2  C   UNL     1      -1.888   1.278   5.772  0.00  0.00    +0.260 C 
ATOM      3  O   UNL     1      -1.273   1.396   6.814  0.00  0.00    -0.269 OA
ATOM      4  H   UNL     1      -1.748   0.748   3.831  0.00  0.00    +0.173 HD
ENDROOT
BRANCH   2   5
ATOM      5  C   UNL     1      -3.328   1.610   5.721  0.00  0.00    +0.040 A 
ATOM      6  C   UNL     1      -4.037   1.469   4.527  0.00  0.00    +0.013 A 
ATOM      7  C   UNL     1      -5.381   1.780   4.482  0.00  0.00    +0.003 A 
ATOM      8  C   UNL     1      -6.029   2.231   5.618  0.00  0.00    +0.028 A 
ATOM      9  C   UNL     1      -5.332   2.374   6.810  0.00  0.00    +0.069 A 
ATOM     10  C   UNL     1      -3.983   2.060   6.867  0.00  0.00    +0.041 A 
BRANCH   9  11
ATOM     11  N   UNL     1      -5.994   2.832   7.959  0.00  0.00    -0.200 N 
ATOM     12  C   UNL     1      -7.314   3.080   8.101  0.00  0.00    +0.250 A 
ATOM     13  N   UNL     1      -7.502   3.489   9.328  0.00  0.00    -0.116 NA
ATOM     14  N   UNL     1      -6.392   3.515   9.972  0.00  0.00    -0.023 NA
ATOM     15  N   UNL     1      -5.426   3.125   9.212  0.00  0.00    -0.039 NA
ENDBRANCH   9  11
ENDBRANCH   2   5
BRANCH   1  16
ATOM     16  N   UNL     1       0.107   0.528   4.711  0.00  0.00    -0.246 N 
ATOM     17  H   UNL     1       0.598   0.623   5.542  0.00  0.00    +0.172 HD
BRANCH  16  18
ATOM     18  C   UNL     1       0.738   0.093   3.602  0.00  0.00    +0.147 C 
ATOM     19  S   UNL     1       2.405  -0.292   3.661  0.00  0.00    -0.017 S 
BRANCH  18  20
ATOM     20  N   UNL     1       0.056  -0.038   2.447  0.00  0.00    -0.322 N 
ATOM     21  H   UNL     1      -0.888   0.180   2.413  0.00  0.00    +0.148 HD
BRANCH  20  28
ATOM     22  C   UNL     1      -0.019   1.526   0.010  0.00  0.00    +0.009 C 
ATOM     23  C   UNL     1       0.002  -0.004   0.002  0.00  0.00    +0.006 C 
ATOM     24  C   UNL     1       0.718  -0.497  -1.257  0.00  0.00    +0.005 C 
ATOM     25  C   UNL     1       0.739  -2.027  -1.265  0.00  0.00    +0.000 C 
ATOM     26  C   UNL     1       1.479  -2.534  -0.026  0.00  0.00    +0.002 C 
ATOM     27  C   UNL     1       0.763  -2.041   1.233  0.00  0.00    +0.022 C 
ATOM     28  C   UNL     1       0.742  -0.511   1.242  0.00  0.00    +0.075 C 
ENDBRANCH  20  28
ENDBRANCH  18  20
ENDBRANCH  16  18
ENDBRANCH   1  16
TORSDOF 6
