REMARK  Name = ZINC33476172
REMARK  11 active torsions:
REMARK  status: ('A' for Active; 'I' for Inactive)
REMARK    1  A    between atoms: C_1  and  O_2
REMARK    2  A    between atoms: O_2  and  C_3
REMARK    3  A    between atoms: C_3  and  C_5
REMARK    4  A    between atoms: C_8  and  C_11
REMARK    5  A    between atoms: N_19  and  C_22
REMARK    6  A    between atoms: C_22  and  C_23
REMARK    7  A    between atoms: C_29  and  C_31
REMARK    8  A    between atoms: C_29  and  C_38
REMARK    9  A    between atoms: C_31  and  C_32
REMARK   10  A    between atoms: C_32  and  C_33
REMARK   11  A    between atoms: C_33  and  N_34
REMARK                            x       y       z     vdW  Elec       q    Type
REMARK                         _______ _______ _______ _____ _____    ______ ____
ROOT
ATOM      1  C   UNL     1       0.851  -6.357   1.260  0.00  0.00    -0.027 C 
ATOM      2  C   UNL     1      -0.111  -6.881   2.314  0.00  0.00    +0.077 C 
ATOM      3  C   UNL     1       0.837  -6.770   3.569  0.00  0.00    +0.086 C 
ATOM      4  C   UNL     1      -0.104  -6.873   4.656  0.00  0.00    +0.225 C 
ATOM      5  O   UNL     1       0.073  -7.388   5.739  0.00  0.00    -0.275 OA
ATOM      6  N   UNL     1      -1.244  -6.258   4.200  0.00  0.00    -0.237 N 
ATOM      7  C   UNL     1      -1.227  -6.035   2.841  0.00  0.00    +0.225 C 
ATOM      8  O   UNL     1      -1.956  -5.306   2.203  0.00  0.00    -0.275 OA
ATOM      9  C   UNL     1       2.070  -7.410   3.079  0.00  0.00    +0.048 C 
ATOM     10  N   UNL     1       2.209  -6.803   1.697  0.00  0.00    +0.395 N 
ATOM     11  H   UNL     1       2.563  -7.498   1.057  0.00  0.00    -0.083 HD
ATOM     12  H   UNL     1       2.835  -6.013   1.725  0.00  0.00    -0.083 HD
ENDROOT
BRANCH   1  16
ATOM     13  C   UNL     1       0.680  -2.088   1.091  0.00  0.00    +0.059 A 
ATOM     14  C   UNL     1       1.485  -2.720   2.040  0.00  0.00    +0.015 A 
ATOM     15  C   UNL     1       1.536  -4.098   2.089  0.00  0.00    +0.003 A 
ATOM     16  C   UNL     1       0.791  -4.853   1.200  0.00  0.00    -0.061 A 
ATOM     17  C   UNL     1      -0.009  -4.233   0.257  0.00  0.00    +0.003 A 
ATOM     18  C   UNL     1      -0.074  -2.856   0.201  0.00  0.00    +0.015 A 
BRANCH  13  19
ATOM     19  C   UNL     1       0.620  -0.613   1.032  0.00  0.00    +0.339 C 
ATOM     20  O   UNL     1      -0.085  -0.066   0.209  0.00  0.00    -0.245 OA
BRANCH  19  22
ATOM     21  C   UNL     1       1.243   1.546   1.779  0.00  0.00    +0.280 C 
ATOM     22  O   UNL     1       1.349   0.125   1.892  0.00  0.00    -0.464 OA
ENDBRANCH  19  22
ENDBRANCH  13  19
ENDBRANCH   1  16
BRANCH   9  23
ATOM     23  C   UNL     1       1.906  -8.906   3.011  0.00  0.00    +0.346 C 
ATOM     24  O   UNL     1       2.030  -9.486   1.946  0.00  0.00    -0.248 OA
ATOM     25  O   UNL     1       1.651  -9.538   4.023  0.00  0.00    -0.248 OA
ENDBRANCH   9  23
BRANCH   6  26
ATOM     26  C   UNL     1      -2.368  -5.889   5.064  0.00  0.00    +0.151 C 
BRANCH  26  27
ATOM     27  C   UNL     1      -2.160  -4.491   5.589  0.00  0.00    -0.030 A 
ATOM     28  C   UNL     1      -1.477  -4.292   6.774  0.00  0.00    +0.005 A 
ATOM     29  C   UNL     1      -1.287  -3.010   7.255  0.00  0.00    +0.000 A 
ATOM     30  C   UNL     1      -1.779  -1.928   6.550  0.00  0.00    +0.000 A 
ATOM     31  C   UNL     1      -2.461  -2.127   5.365  0.00  0.00    +0.000 A 
ATOM     32  C   UNL     1      -2.648  -3.408   4.881  0.00  0.00    +0.005 A 
ENDBRANCH  26  27
ENDBRANCH   6  26
BRANCH   9  33
ATOM     33  C   UNL     1       3.265  -7.030   3.954  0.00  0.00    +0.001 C 
BRANCH  33  34
ATOM     34  C   UNL     1       4.546  -7.607   3.347  0.00  0.00    +0.018 C 
BRANCH  34  35
ATOM     35  C   UNL     1       5.741  -7.228   4.223  0.00  0.00    +0.105 C 
BRANCH  35  36
ATOM     36  N   UNL     1       6.967  -7.780   3.642  0.00  0.00    -0.300 N 
ATOM     37  C   UNL     1       8.153  -7.572   4.247  0.00  0.00    +0.297 C 
ATOM     38  O   UNL     1       8.206  -6.925   5.275  0.00  0.00    -0.253 OA
ATOM     39  N   UNL     1       9.281  -8.080   3.712  0.00  0.00    -0.313 N 
ATOM     40  H   UNL     1       6.925  -8.296   2.822  0.00  0.00    +0.150 HD
ATOM     41  H   UNL     1       9.239  -8.596   2.892  0.00  0.00    +0.146 HD
ATOM     42  H   UNL     1      10.135  -7.930   4.148  0.00  0.00    +0.146 HD
ENDBRANCH  35  36
ENDBRANCH  34  35
ENDBRANCH  33  34
ENDBRANCH   9  33
TORSDOF 10
