REMARK  Name = ZINC16612535
REMARK  12 active torsions:
REMARK  status: ('A' for Active; 'I' for Inactive)
REMARK    1  A    between atoms: C_1  and  C_2
REMARK    2  A    between atoms: C_5  and  N_9
REMARK    3  A    between atoms: C_6  and  C_8
REMARK    4  A    between atoms: N_12  and  C_13
REMARK    5  A    between atoms: C_16  and  C_19
REMARK    6  A    between atoms: C_21  and  C_29
REMARK    7  A    between atoms: C_22  and  C_28
REMARK    8  A    between atoms: N_23  and  C_27
REMARK    9  A    between atoms: C_29  and  O_31
REMARK   10  A    between atoms: O_31  and  C_32
REMARK   11  A    between atoms: C_32  and  C_33
REMARK   12  A    between atoms: C_32  and  C_34
REMARK                            x       y       z     vdW  Elec       q    Type
REMARK                         _______ _______ _______ _____ _____    ______ ____
ROOT
ATOM      1  C   UNL     1      -0.177   3.329   7.251  0.00  0.00    +0.035 A 
ATOM      2  C   UNL     1      -1.264   4.098   6.856  0.00  0.00    +0.024 A 
ATOM      3  C   UNL     1      -1.848   3.883   5.623  0.00  0.00    +0.007 A 
ATOM      4  C   UNL     1      -1.351   2.905   4.782  0.00  0.00    -0.022 A 
ATOM      5  C   UNL     1      -0.272   2.134   5.175  0.00  0.00    +0.007 A 
ATOM      6  C   UNL     1       0.320   2.347   6.404  0.00  0.00    +0.024 A 
ENDROOT
BRANCH   4   7
ATOM      7  C   UNL     1      -1.990   2.674   3.437  0.00  0.00    +0.141 C 
ATOM      8  C   UNL     1      -1.248   3.513   2.417  0.00  0.00    +0.078 C 
ATOM      9  C   UNL     1      -0.680   2.875   1.371  0.00  0.00    +0.021 C 
ATOM     10  N   UNL     1      -0.780   1.521   1.233  0.00  0.00    -0.289 N 
ATOM     11  C   UNL     1      -1.422   0.731   2.103  0.00  0.00    +0.137 C 
ATOM     12  S   UNL     1      -1.466  -0.956   1.814  0.00  0.00    -0.018 S 
ATOM     13  N   UNL     1      -2.035   1.221   3.199  0.00  0.00    -0.315 N 
ATOM     14  C   UNL     1      -0.144   0.895   0.071  0.00  0.00    +0.137 C 
ATOM     15  C   UNL     1       0.073   3.671   0.336  0.00  0.00    +0.061 C 
ATOM     16  H   UNL     1      -2.494   0.630   3.817  0.00  0.00    +0.149 HD
BRANCH   8  17
ATOM     17  C   UNL     1      -1.150   4.917   2.557  0.00  0.00    +0.339 C 
ATOM     18  O   UNL     1      -0.550   5.572   1.726  0.00  0.00    -0.245 OA
BRANCH  17  19
ATOM     19  O   UNL     1      -1.723   5.531   3.614  0.00  0.00    -0.459 OA
BRANCH  19  20
ATOM     20  C   UNL     1      -1.584   6.951   3.693  0.00  0.00    +0.171 C 
ATOM     21  C   UNL     1      -2.801   7.543   4.407  0.00  0.00    +0.052 C 
ATOM     22  C   UNL     1      -0.316   7.297   4.475  0.00  0.00    +0.052 C 
ENDBRANCH  19  20
ENDBRANCH  17  19
ENDBRANCH   8  17
ENDBRANCH   4   7
BRANCH   1  26
ATOM     23  N   UNL     1       0.244   4.229  10.725  0.00  0.00    -0.269 N 
ATOM     24  C   UNL     1      -0.340   3.922   9.550  0.00  0.00    +0.308 C 
ATOM     25  O   UNL     1      -1.549   3.985   9.437  0.00  0.00    -0.252 OA
ATOM     26  N   UNL     1       0.417   3.544   8.500  0.00  0.00    -0.269 N 
ATOM     27  H   UNL     1       1.211   4.243  10.797  0.00  0.00    +0.156 HD
ATOM     28  H   UNL     1       1.373   3.422   8.610  0.00  0.00    +0.156 HD
BRANCH  23  33
ATOM     29  C   UNL     1      -2.956   5.440  15.251  0.00  0.00    +0.044 C 
ATOM     30  C   UNL     1      -2.106   5.119  14.048  0.00  0.00    -0.050 A 
ATOM     31  C   UNL     1      -2.546   5.456  12.782  0.00  0.00    +0.005 A 
ATOM     32  C   UNL     1      -1.769   5.163  11.678  0.00  0.00    +0.024 A 
ATOM     33  C   UNL     1      -0.545   4.528  11.841  0.00  0.00    +0.038 A 
ATOM     34  C   UNL     1      -0.108   4.185  13.114  0.00  0.00    -0.029 A 
ATOM     35  C   UNL     1      -0.887   4.486  14.214  0.00  0.00    +0.008 A 
ATOM     36  C   UNL     1       1.217   3.490  13.295  0.00  0.00    +0.045 C 
ENDBRANCH  23  33
ENDBRANCH   1  26
TORSDOF 6
