REMARK  Name = ZINC48166915
REMARK  10 active torsions:
REMARK  status: ('A' for Active; 'I' for Inactive)
REMARK    1  A    between atoms: C_1  and  C_2
REMARK    2  A    between atoms: C_2  and  C_3
REMARK    3  A    between atoms: C_2  and  C_4
REMARK    4  A    between atoms: C_4  and  C_5
REMARK    5  A    between atoms: N_7  and  C_8
REMARK    6  A    between atoms: C_8  and  C_10
REMARK    7  A    between atoms: C_8  and  C_13
REMARK    8  A    between atoms: C_10  and  C_11
REMARK    9  A    between atoms: C_10  and  C_12
REMARK   10  A    between atoms: C_13  and  N_15
REMARK                            x       y       z     vdW  Elec       q    Type
REMARK                         _______ _______ _______ _____ _____    ______ ____
ROOT
ATOM      1  C   UNL     1       0.621  -0.041   6.076  0.00  0.00    +0.260 C 
ATOM      2  O   UNL     1       1.803  -0.283   5.924  0.00  0.00    -0.272 OA
ENDROOT
BRANCH   1   3
ATOM      3  N   UNL     1       0.160   0.296   7.277  0.00  0.00    -0.145 NA
ATOM      4  C   UNL     1       0.970   0.267   8.332  0.00  0.00    +0.198 A 
ATOM      5  N   UNL     1       2.306   0.025   8.292  0.00  0.00    -0.326 N 
ATOM      6  H   UNL     1       2.828  -0.155   7.494  0.00  0.00    +0.169 HD
ATOM      7  C   UNL     1       2.798   0.080   9.592  0.00  0.00    +0.065 A 
ATOM      8  C   UNL     1       4.065  -0.086  10.133  0.00  0.00    +0.028 A 
ATOM      9  C   UNL     1       4.252   0.031  11.496  0.00  0.00    +0.002 A 
ATOM     10  C   UNL     1       3.180   0.312  12.326  0.00  0.00    +0.002 A 
ATOM     11  C   UNL     1       1.915   0.478  11.798  0.00  0.00    +0.028 A 
ATOM     12  C   UNL     1       1.717   0.364  10.430  0.00  0.00    +0.065 A 
ATOM     13  N   UNL     1       0.592   0.480   9.620  0.00  0.00    -0.326 N 
ATOM     14  H   UNL     1      -0.308   0.678   9.922  0.00  0.00    +0.169 HD
ENDBRANCH   1   3
BRANCH   1  15
ATOM     15  C   UNL     1      -0.321  -0.122   4.902  0.00  0.00    +0.164 C 
BRANCH  15  18
ATOM     16  C   UNL     1      -0.039  -0.173   2.483  0.00  0.00    +0.214 C 
ATOM     17  O   UNL     1      -1.075   0.449   2.378  0.00  0.00    -0.276 OA
ATOM     18  N   UNL     1       0.425  -0.509   3.703  0.00  0.00    -0.304 N 
ATOM     19  H   UNL     1       1.253  -1.007   3.786  0.00  0.00    +0.149 HD
BRANCH  16  20
ATOM     20  C   UNL     1       0.729  -0.572   1.249  0.00  0.00    +0.098 C 
BRANCH  20  22
ATOM     21  C   UNL     1      -0.020   1.459  -0.001  0.00  0.00    +0.008 C 
ATOM     22  C   UNL     1      -0.009  -0.071   0.005  0.00  0.00    -0.008 C 
ATOM     23  C   UNL     1       0.702  -0.582  -1.250  0.00  0.00    +0.008 C 
ENDBRANCH  20  22
ENDBRANCH  16  20
ENDBRANCH  15  18
BRANCH  15  24
ATOM     24  C   UNL     1      -1.403  -1.165   5.189  0.00  0.00    +0.012 C 
ATOM     25  C   UNL     1      -2.183  -0.760   6.442  0.00  0.00    +0.009 C 
ATOM     26  C   UNL     1      -2.360  -1.247   3.998  0.00  0.00    +0.009 C 
ENDBRANCH  15  24
ENDBRANCH   1  15
TORSDOF 6
