REMARK  Name = ZINC36640289
REMARK  7 active torsions:
REMARK  status: ('A' for Active; 'I' for Inactive)
REMARK    1  A    between atoms: C_1  and  C_2
REMARK    2  A    between atoms: C_2  and  C_4
REMARK    3  A    between atoms: C_2  and  S_16
REMARK    4  A    between atoms: N_6  and  C_7
REMARK    5  A    between atoms: S_16  and  C_17
REMARK    6  A    between atoms: C_20  and  C_23
REMARK    7  A    between atoms: N_21  and  N_22
REMARK                            x       y       z     vdW  Elec       q    Type
REMARK                         _______ _______ _______ _____ _____    ______ ____
ROOT
ATOM      1  C   UNL     1      -0.001   1.509   0.012  0.00  0.00    +0.029 C 
ATOM      2  C   UNL     1       0.008  -0.021   0.004  0.00  0.00    +0.137 C 
ENDROOT
BRANCH   2   3
ATOM      3  C   UNL     1      -1.410  -0.532   0.013  0.00  0.00    +0.230 C 
ATOM      4  O   UNL     1      -1.927  -0.904  -1.018  0.00  0.00    -0.274 OA
ATOM      5  N   UNL     1      -2.103  -0.575   1.169  0.00  0.00    -0.283 N 
ATOM      6  H   UNL     1      -1.669  -0.339   2.004  0.00  0.00    +0.155 HD
BRANCH   5   7
ATOM      7  C   UNL     1      -3.449  -0.960   1.163  0.00  0.00    +0.053 A 
ATOM      8  C   UNL     1      -3.893  -1.924   0.268  0.00  0.00    +0.046 A 
ATOM      9  C   UNL     1      -5.223  -2.302   0.265  0.00  0.00    +0.061 A 
ATOM     10  C   UNL     1      -6.112  -1.721   1.154  0.00  0.00    +0.061 A 
ATOM     11  C   UNL     1      -5.672  -0.760   2.047  0.00  0.00    +0.043 A 
ATOM     12  C   UNL     1      -4.342  -0.383   2.058  0.00  0.00    +0.064 A 
ATOM     13 CL   UNL     1      -3.789   0.817   3.184  0.00  0.00    -0.082 Cl
ATOM     14 CL   UNL     1      -7.781  -2.198   1.147  0.00  0.00    -0.082 Cl
ATOM     15 CL   UNL     1      -5.779  -3.507  -0.855  0.00  0.00    -0.082 Cl
ENDBRANCH   5   7
ENDBRANCH   2   3
BRANCH   2  16
ATOM     16  S   UNL     1       0.854  -0.614  -1.487  0.00  0.00    -0.072 S 
BRANCH  16  17
ATOM     17  C   UNL     1       2.516  -0.066  -1.280  0.00  0.00    +0.209 A 
ATOM     18  N   UNL     1       2.994   0.609  -0.261  0.00  0.00    -0.121 NA
ATOM     19  N   UNL     1       4.246   0.841  -0.439  0.00  0.00    -0.123 NA
ATOM     20  C   UNL     1       4.638   0.333  -1.573  0.00  0.00    +0.255 A 
ATOM     21  N   UNL     1       3.551  -0.268  -2.147  0.00  0.00    -0.220 N 
BRANCH  20  22
ATOM     22  C   UNL     1       6.031   0.391  -2.144  0.00  0.00    +0.454 C 
ATOM     23  F   UNL     1       6.930   0.769  -1.141  0.00  0.00    -0.163 F 
ATOM     24  F   UNL     1       6.386  -0.869  -2.638  0.00  0.00    -0.163 F 
ATOM     25  F   UNL     1       6.071   1.328  -3.183  0.00  0.00    -0.163 F 
ENDBRANCH  20  22
BRANCH  21  26
ATOM     26  N   UNL     1       3.510  -0.931  -3.341  0.00  0.00    -0.295 N 
ATOM     27  H   UNL     1       3.289  -0.300  -4.097  0.00  0.00    +0.163 HD
ATOM     28  H   UNL     1       4.378  -1.415  -3.516  0.00  0.00    +0.163 HD
ENDBRANCH  21  26
ENDBRANCH  16  17
ENDBRANCH   2  16
TORSDOF 6
