REMARK  Name = ZINC67173094
REMARK  6 active torsions:
REMARK  status: ('A' for Active; 'I' for Inactive)
REMARK    1  A    between atoms: C_1  and  C_2
REMARK    2  A    between atoms: C_2  and  C_3
REMARK    3  A    between atoms: C_2  and  C_4
REMARK    4  A    between atoms: C_4  and  C_5
REMARK    5  A    between atoms: N_8  and  C_12
REMARK    6  A    between atoms: C_16  and  C_18
REMARK                            x       y       z     vdW  Elec       q    Type
REMARK                         _______ _______ _______ _____ _____    ______ ____
ROOT
ATOM      1  C   UNL     1      -1.411  -2.064   0.014  0.00  0.00    -0.054 C 
ATOM      2  C   UNL     1      -2.837  -2.565  -0.236  0.00  0.00    +0.089 C 
ATOM      3  N   UNL     1      -2.846  -4.030  -0.109  0.00  0.00    -0.333 N 
ATOM      4  C   UNL     1      -2.241  -4.626   1.092  0.00  0.00    +0.086 C 
ATOM      5  C   UNL     1      -0.842  -4.029   1.278  0.00  0.00    -0.063 C 
ATOM      6  N   UNL     1      -0.937  -2.564   1.311  0.00  0.00    +0.383 N 
ATOM      7  H   UNL     1      -0.028  -2.173   1.509  0.00  0.00    -0.085 HD
ATOM      8  H   UNL     1      -1.585  -2.286   2.033  0.00  0.00    -0.085 HD
ENDROOT
BRANCH   3   9
ATOM      9  C   UNL     1      -3.414  -4.833  -1.102  0.00  0.00    +0.030 A 
ATOM     10  C   UNL     1      -3.310  -6.218  -1.019  0.00  0.00    +0.023 A 
ATOM     11  C   UNL     1      -3.870  -7.017  -1.998  0.00  0.00    +0.003 A 
ATOM     12  C   UNL     1      -4.535  -6.447  -3.065  0.00  0.00    +0.015 A 
ATOM     13  C   UNL     1      -4.644  -5.058  -3.158  0.00  0.00    +0.065 A 
ATOM     14  C   UNL     1      -4.084  -4.250  -2.165  0.00  0.00    +0.038 A 
BRANCH  13  15
ATOM     15  C   UNL     1      -5.354  -4.446  -4.297  0.00  0.00    +0.387 C 
ATOM     16  O   UNL     1      -5.848  -5.155  -5.163  0.00  0.00    -0.241 OA
ATOM     17  O   UNL     1      -5.449  -3.229  -4.376  0.00  0.00    -0.241 OA
ENDBRANCH  13  15
ENDBRANCH   3   9
BRANCH   1  18
ATOM     18  C   UNL     1      -1.401  -0.534   0.022  0.00  0.00    -0.011 C 
BRANCH  18  20
ATOM     19  C   UNL     1       0.825  -0.423  -1.108  0.00  0.00    +0.007 C 
ATOM     20  C   UNL     1       0.040  -0.034   0.146  0.00  0.00    -0.019 C 
ATOM     21  C   UNL     1       0.040   1.488   0.296  0.00  0.00    +0.007 C 
ENDBRANCH  18  20
ENDBRANCH   1  18
TORSDOF 4
