REMARK  Name = ZINC15865265
REMARK  5 active torsions:
REMARK  status: ('A' for Active; 'I' for Inactive)
REMARK    1  A    between atoms: C_1  and  C_2
REMARK    2  A    between atoms: C_3  and  C_11
REMARK    3  A    between atoms: C_7  and  N_8
REMARK    4  A    between atoms: N_13  and  C_14
REMARK    5  A    between atoms: C_15  and  C_25
REMARK                            x       y       z     vdW  Elec       q    Type
REMARK                         _______ _______ _______ _____ _____    ______ ____
ROOT
ATOM      1  C   UNL     1       1.686  -4.855  -0.269  0.00  0.00    +0.249 C 
ATOM      2  O   UNL     1       2.838  -4.470  -0.326  0.00  0.00    -0.270 OA
ATOM      3  N   UNL     1       0.682  -3.962  -0.162  0.00  0.00    -0.276 N 
ATOM      4  H   UNL     1      -0.227  -4.269  -0.019  0.00  0.00    +0.155 HD
ENDROOT
BRANCH   3   5
ATOM      5  C   UNL     1       0.953  -2.588  -0.257  0.00  0.00    +0.121 A 
ATOM      6  C   UNL     1       0.325  -1.810  -1.217  0.00  0.00    +0.067 A 
ATOM      7  N   UNL     1       0.589  -0.515  -1.296  0.00  0.00    -0.232 NA
ATOM      8  C   UNL     1       1.452   0.070  -0.469  0.00  0.00    +0.141 A 
ATOM      9  C   UNL     1       1.701   1.450  -0.590  0.00  0.00    +0.047 A 
ATOM     10  C   UNL     1       2.584   2.048   0.257  0.00  0.00    +0.005 A 
ATOM     11  C   UNL     1       3.232   1.282   1.237  0.00  0.00    +0.018 A 
ATOM     12  C   UNL     1       2.981  -0.042   1.339  0.00  0.00    +0.096 A 
ATOM     13  N   UNL     1       2.099  -0.651   0.497  0.00  0.00    -0.267 N 
ATOM     14  C   UNL     1       1.864  -1.976   0.620  0.00  0.00    +0.280 A 
ATOM     15  O   UNL     1       2.436  -2.630   1.478  0.00  0.00    -0.265 OA
ATOM     16  C   UNL     1      -0.658  -2.439  -2.171  0.00  0.00    +0.068 C 
ENDBRANCH   3   5
BRANCH   1  19
ATOM     17  C   UNL     1       3.820  -6.741  -0.782  0.00  0.00    +0.047 C 
ATOM     18  C   UNL     1       2.407  -7.221  -0.566  0.00  0.00    -0.008 A 
ATOM     19  C   UNL     1       1.386  -6.301  -0.319  0.00  0.00    +0.042 A 
ATOM     20  C   UNL     1       0.080  -6.753  -0.126  0.00  0.00    +0.013 A 
ATOM     21  C   UNL     1      -0.193  -8.105  -0.174  0.00  0.00    +0.003 A 
ATOM     22  C   UNL     1       0.824  -9.011  -0.413  0.00  0.00    +0.033 A 
ATOM     23  C   UNL     1       2.122  -8.570  -0.605  0.00  0.00    +0.130 A 
BRANCH  23  24
ATOM     24  N   UNL     1       3.204  -9.547  -0.860  0.00  0.00    +0.057 N 
ATOM     25  O   UNL     1       2.937 -10.724  -1.019  0.00  0.00    -0.126 OA
ATOM     26  O   UNL     1       4.362  -9.173  -0.910  0.00  0.00    -0.126 OA
ENDBRANCH  23  24
ENDBRANCH   1  19
TORSDOF 3
