REMARK  Name = ZINC21739988
REMARK  6 active torsions:
REMARK  status: ('A' for Active; 'I' for Inactive)
REMARK    1  A    between atoms: C_4  and  C_7
REMARK    2  A    between atoms: C_16  and  O_18
REMARK    3  A    between atoms: O_18  and  C_19
REMARK    4  A    between atoms: C_19  and  C_20
REMARK    5  A    between atoms: N_22  and  C_23
REMARK    6  A    between atoms: C_24  and  C_28
REMARK                            x       y       z     vdW  Elec       q    Type
REMARK                         _______ _______ _______ _____ _____    ______ ____
ROOT
ATOM      1  C   UNL     1      -2.507   4.533   0.051  0.00  0.00    -0.000 A 
ATOM      2  C   UNL     1      -2.450   5.913   0.059  0.00  0.00    +0.101 A 
ATOM      3  C   UNL     1      -1.201   6.555   0.051  0.00  0.00    +0.338 A 
ATOM      4  O   UNL     1      -1.160   7.773   0.058  0.00  0.00    -0.245 OA
ATOM      5  O   UNL     1      -0.050   5.864   0.035  0.00  0.00    -0.422 OA
ATOM      6  C   UNL     1      -0.029   4.514   0.027  0.00  0.00    +0.143 A 
ATOM      7  C   UNL     1      -1.235   3.792   0.034  0.00  0.00    +0.027 A 
ATOM      8  C   UNL     1      -1.216   2.395   0.021  0.00  0.00    +0.035 A 
ATOM      9  C   UNL     1      -0.021   1.732   0.012  0.00  0.00    +0.083 A 
ATOM     10  C   UNL     1       1.178   2.441   0.004  0.00  0.00    +0.143 A 
ATOM     11  C   UNL     1       1.176   3.826   0.012  0.00  0.00    +0.094 A 
ATOM     12 CL   UNL     1       0.002  -0.004   0.002  0.00  0.00    -0.080 Cl
ENDROOT
BRANCH   1  16
ATOM     13  C   UNL     1      -6.233   2.491   0.074  0.00  0.00    +0.000 A 
ATOM     14  C   UNL     1      -5.991   3.493   0.997  0.00  0.00    +0.001 A 
ATOM     15  C   UNL     1      -4.783   4.159   0.996  0.00  0.00    +0.008 A 
ATOM     16  C   UNL     1      -3.804   3.821   0.059  0.00  0.00    -0.017 A 
ATOM     17  C   UNL     1      -4.057   2.814  -0.873  0.00  0.00    +0.008 A 
ATOM     18  C   UNL     1      -5.267   2.151  -0.856  0.00  0.00    +0.001 A 
ENDBRANCH   1  16
BRANCH  10  19
ATOM     19  O   UNL     1       2.358   1.770  -0.011  0.00  0.00    -0.481 OA
BRANCH  19  20
ATOM     20  C   UNL     1       3.552   2.555  -0.018  0.00  0.00    +0.325 C 
BRANCH  20  21
ATOM     21  C   UNL     1       4.752   1.645  -0.035  0.00  0.00    +0.255 C 
ATOM     22  O   UNL     1       4.601   0.441  -0.040  0.00  0.00    -0.272 OA
ATOM     23  N   UNL     1       5.995   2.167  -0.043  0.00  0.00    -0.277 N 
ATOM     24  H   UNL     1       6.132   3.259  -0.039  0.00  0.00    +0.155 HD
BRANCH  23  25
ATOM     25  C   UNL     1       7.099   1.329  -0.059  0.00  0.00    +0.084 A 
ATOM     26  C   UNL     1       8.445   1.675  -0.075  0.00  0.00    +0.065 A 
ATOM     27  C   UNL     1       9.395   0.588  -0.085  0.00  0.00    +0.022 A 
ATOM     28  C   UNL     1       8.898  -0.661  -0.087  0.00  0.00    +0.048 A 
ATOM     29  S   UNL     1       7.136  -0.402  -0.069  0.00  0.00    -0.081 S 
BRANCH  26  30
ATOM     30  C   UNL     1       8.879   3.076  -0.079  0.00  0.00    +0.244 C 
ATOM     31  O   UNL     1       8.053   3.969  -0.067  0.00  0.00    -0.270 OA
ATOM     32  N   UNL     1      10.194   3.374  -0.095  0.00  0.00    -0.325 N 
ATOM     33  H   UNL     1      10.519   4.425  -0.098  0.00  0.00    +0.145 HD
ATOM     34  H   UNL     1      10.941   2.567  -0.106  0.00  0.00    +0.145 HD
ENDBRANCH  26  30
ENDBRANCH  23  25
ENDBRANCH  20  21
ENDBRANCH  19  20
ENDBRANCH  10  19
TORSDOF 6
