REMARK  Name = ZINC00944922
REMARK  10 active torsions:
REMARK  status: ('A' for Active; 'I' for Inactive)
REMARK    1  A    between atoms: C_1  and  C_2
REMARK    2  A    between atoms: C_9  and  N_14
REMARK    3  A    between atoms: C_10  and  C_11
REMARK    4  A    between atoms: C_15  and  C_17
REMARK    5  A    between atoms: C_17  and  O_18
REMARK    6  A    between atoms: O_18  and  C_19
REMARK    7  A    between atoms: C_24  and  C_25
REMARK    8  A    between atoms: C_25  and  C_26
REMARK    9  A    between atoms: C_25  and  C_27
REMARK   10  A    between atoms: C_25  and  C_28
REMARK                            x       y       z     vdW  Elec       q    Type
REMARK                         _______ _______ _______ _____ _____    ______ ____
ROOT
ATOM      1  N   UNL     1      -3.823   3.713   6.337  0.00  0.00    -0.277 N 
ATOM      2  C   UNL     1      -3.242   3.313   5.188  0.00  0.00    +0.255 C 
ATOM      3  O   UNL     1      -3.719   3.640   4.122  0.00  0.00    -0.272 OA
ATOM      4  H   UNL     1      -3.442   3.452   7.190  0.00  0.00    +0.155 HD
ENDROOT
BRANCH   1  12
ATOM      5  C   UNL     1     -10.190   8.211   5.691  0.00  0.00    +0.008 C 
ATOM      6  C   UNL     1      -8.864   7.642   6.198  0.00  0.00    -0.009 C 
ATOM      7  C   UNL     1      -9.110   6.797   7.451  0.00  0.00    +0.008 C 
ATOM      8  C   UNL     1      -7.775   6.432   8.104  0.00  0.00    +0.037 C 
ATOM      9  C   UNL     1      -6.868   5.809   7.050  0.00  0.00    -0.023 A 
ATOM     10  C   UNL     1      -7.114   5.977   5.732  0.00  0.00    -0.004 A 
ATOM     11  S   UNL     1      -5.817   5.093   4.913  0.00  0.00    -0.077 S 
ATOM     12  C   UNL     1      -4.965   4.499   6.299  0.00  0.00    +0.084 A 
ATOM     13  C   UNL     1      -5.699   5.005   7.363  0.00  0.00    +0.068 A 
ATOM     14  C   UNL     1      -8.238   6.751   5.115  0.00  0.00    +0.046 C 
BRANCH  13  15
ATOM     15  C   UNL     1      -5.309   4.738   8.751  0.00  0.00    +0.244 C 
ATOM     16  O   UNL     1      -4.550   5.496   9.326  0.00  0.00    -0.270 OA
ATOM     17  N   UNL     1      -5.792   3.654   9.390  0.00  0.00    -0.325 N 
ATOM     18  H   UNL     1      -6.397   3.050   8.932  0.00  0.00    +0.145 HD
ATOM     19  H   UNL     1      -5.534   3.478  10.308  0.00  0.00    +0.145 HD
ENDBRANCH  13  15
ENDBRANCH   1  12
BRANCH   2  20
ATOM     20  C   UNL     1      -2.001   2.459   5.229  0.00  0.00    +0.324 C 
BRANCH  20  21
ATOM     21  O   UNL     1      -1.579   2.168   3.896  0.00  0.00    -0.482 OA
BRANCH  21  22
ATOM     22  C   UNL     1      -0.466   1.401   3.754  0.00  0.00    +0.125 A 
ATOM     23  C   UNL     1       0.207   0.940   4.876  0.00  0.00    +0.046 A 
ATOM     24  C   UNL     1       1.339   0.162   4.730  0.00  0.00    +0.004 A 
ATOM     25  C   UNL     1       1.801  -0.158   3.466  0.00  0.00    +0.001 A 
ATOM     26  C   UNL     1       1.130   0.297   2.347  0.00  0.00    +0.008 A 
ATOM     27  C   UNL     1       0.000   1.080   2.488  0.00  0.00    -0.000 A 
BRANCH  27  28
ATOM     28  C   UNL     1      -0.729   1.579   1.267  0.00  0.00    -0.009 C 
ATOM     29  C   UNL     1      -0.013   1.086   0.008  0.00  0.00    +0.015 C 
ATOM     30  C   UNL     1      -0.750   3.109   1.275  0.00  0.00    +0.015 C 
ATOM     31  C   UNL     1      -2.164   1.050   1.278  0.00  0.00    +0.015 C 
ENDBRANCH  27  28
ENDBRANCH  21  22
ENDBRANCH  20  21
ENDBRANCH   2  20
TORSDOF 6
