REMARK  Name = ZINC63393841
REMARK  4 active torsions:
REMARK  status: ('A' for Active; 'I' for Inactive)
REMARK    1  A    between atoms: C_3  and  C_9
REMARK    2  A    between atoms: C_4  and  O_8
REMARK    3  A    between atoms: C_6  and  O_7
REMARK    4  A    between atoms: C_11  and  C_15
REMARK                            x       y       z     vdW  Elec       q    Type
REMARK                         _______ _______ _______ _____ _____    ______ ____
ROOT
ATOM      1  C   UNL     1       3.843   2.224  -0.057  0.00  0.00    +0.162 C 
ATOM      2  C   UNL     1       4.158   2.425   1.415  0.00  0.00    +0.008 C 
ATOM      3  C   UNL     1       3.999   3.737   1.602  0.00  0.00    +0.136 C 
ATOM      4  N   UNL     1       3.634   4.344   0.451  0.00  0.00    -0.186 NA
ATOM      5  N   UNL     1       3.526   3.585  -0.520  0.00  0.00    -0.297 N 
ATOM      6  H   UNL     1       3.276   3.838  -1.423  0.00  0.00    +0.183 HD
ENDROOT
BRANCH   1   9
ATOM      7  C   UNL     1       1.736  -0.783  -0.935  0.00  0.00    +0.046 A 
ATOM      8  C   UNL     1       2.823   0.056  -0.777  0.00  0.00    +0.013 A 
ATOM      9  C   UNL     1       2.655   1.312  -0.227  0.00  0.00    +0.022 A 
ATOM     10  C   UNL     1       1.394   1.735   0.168  0.00  0.00    +0.126 A 
ATOM     11  C   UNL     1       0.302   0.896   0.011  0.00  0.00    +0.091 A 
ATOM     12  C   UNL     1       0.473  -0.364  -0.541  0.00  0.00    +0.120 A 
BRANCH  12  13
ATOM     13  O   UNL     1      -0.596  -1.189  -0.697  0.00  0.00    -0.507 OA
ATOM     14  H   UNL     1      -0.765  -1.762   0.064  0.00  0.00    +0.292 HD
ENDBRANCH  12  13
BRANCH  10  15
ATOM     15  O   UNL     1       1.230   2.971   0.709  0.00  0.00    -0.506 OA
ATOM     16  H   UNL     1       0.964   3.647   0.071  0.00  0.00    +0.292 HD
ENDBRANCH  10  15
ENDBRANCH   1   9
BRANCH   2  17
ATOM     17  C   UNL     1       4.558   1.384   2.430  0.00  0.00    +0.178 C 
ATOM     18  C   UNL     1       5.823   0.671   1.995  0.00  0.00    +0.116 C 
ATOM     19  N   UNL     1       5.487  -0.573   1.859  0.00  0.00    -0.246 NA
ATOM     20  C   UNL     1       4.183  -0.781   2.141  0.00  0.00    +0.216 C 
ATOM     21  N   UNL     1       3.559   0.302   2.486  0.00  0.00    -0.259 NA
ENDBRANCH   2  17
TORSDOF 4
