REMARK  Name = ZINC02092790
REMARK  7 active torsions:
REMARK  status: ('A' for Active; 'I' for Inactive)
REMARK    1  A    between atoms: C_1  and  C_2
REMARK    2  A    between atoms: C_6  and  O_17
REMARK    3  A    between atoms: C_12  and  C_13
REMARK    4  A    between atoms: C_13  and  C_14
REMARK    5  A    between atoms: C_14  and  C_15
REMARK    6  A    between atoms: O_17  and  C_18
REMARK    7  A    between atoms: C_18  and  C_19
REMARK                            x       y       z     vdW  Elec       q    Type
REMARK                         _______ _______ _______ _____ _____    ______ ____
ROOT
ATOM      1  C   UNL     1      -8.036  -3.358   0.026  0.00  0.00    +0.045 C 
ATOM      2  C   UNL     1      -6.622  -3.881   0.017  0.00  0.00    -0.030 A 
ATOM      3  C   UNL     1      -5.481  -2.963   0.015  0.00  0.00    +0.021 A 
ATOM      4  C   UNL     1      -5.672  -1.576   0.024  0.00  0.00    +0.015 A 
ATOM      5  C   UNL     1      -4.591  -0.743   0.027  0.00  0.00    +0.046 A 
ATOM      6  C   UNL     1      -3.298  -1.264   0.012  0.00  0.00    +0.125 A 
ATOM      7  C   UNL     1      -3.091  -2.634   0.004  0.00  0.00    +0.092 A 
ATOM      8  C   UNL     1      -4.178  -3.495   0.005  0.00  0.00    +0.143 A 
ATOM      9  O   UNL     1      -3.999  -4.833  -0.002  0.00  0.00    -0.422 OA
ATOM     10  C   UNL     1      -5.040  -5.680  -0.001  0.00  0.00    +0.341 A 
ATOM     11  O   UNL     1      -4.830  -6.879  -0.008  0.00  0.00    -0.245 OA
ATOM     12  C   UNL     1      -6.372  -5.216   0.009  0.00  0.00    +0.041 A 
ENDROOT
BRANCH  12  13
ATOM     13  C   UNL     1      -7.514  -6.199   0.009  0.00  0.00    +0.054 C 
BRANCH  13  14
ATOM     14  C   UNL     1      -7.908  -6.524  -1.433  0.00  0.00    +0.130 C 
BRANCH  14  15
ATOM     15  C   UNL     1      -9.051  -7.507  -1.432  0.00  0.00    +0.356 C 
ATOM     16  O   UNL     1      -9.503  -7.906  -0.386  0.00  0.00    -0.246 OA
ATOM     17  O   UNL     1      -9.565  -7.938  -2.595  0.00  0.00    -0.246 OA
ENDBRANCH  14  15
ENDBRANCH  13  14
ENDBRANCH  12  13
BRANCH   6  18
ATOM     18  O   UNL     1      -2.233  -0.422   0.011  0.00  0.00    -0.487 OA
BRANCH  18  19
ATOM     19  C   UNL     1      -2.514   0.979   0.020  0.00  0.00    +0.267 C 
BRANCH  19  20
ATOM     20  C   UNL     1      -1.219   1.750   0.017  0.00  0.00    +0.025 A 
ATOM     21  C   UNL     1      -0.013   1.076   0.008  0.00  0.00    +0.011 A 
ATOM     22  C   UNL     1       1.175   1.783   0.000  0.00  0.00    +0.016 A 
ATOM     23  C   UNL     1       1.158   3.166   0.007  0.00  0.00    +0.021 A 
ATOM     24  C   UNL     1      -0.048   3.842   0.022  0.00  0.00    +0.054 A 
ATOM     25  C   UNL     1      -1.238   3.135   0.030  0.00  0.00    +0.131 A 
ATOM     26  F   UNL     1      -2.417   3.794   0.044  0.00  0.00    -0.205 F 
ATOM     27 BR   UNL     1       2.783   4.132  -0.003  0.00  0.00    -0.050 Br
ENDBRANCH  19  20
ENDBRANCH  18  19
ENDBRANCH   6  18
TORSDOF 6
