REMARK  Name = ZINC36759188
REMARK  8 active torsions:
REMARK  status: ('A' for Active; 'I' for Inactive)
REMARK    1  A    between atoms: C_1  and  C_2
REMARK    2  A    between atoms: C_3  and  C_30
REMARK    3  A    between atoms: N_4  and  C_23
REMARK    4  A    between atoms: C_5  and  S_7
REMARK    5  A    between atoms: S_7  and  C_8
REMARK    6  A    between atoms: C_8  and  C_9
REMARK    7  A    between atoms: N_14  and  C_15
REMARK    8  A    between atoms: C_23  and  C_24
REMARK                            x       y       z     vdW  Elec       q    Type
REMARK                         _______ _______ _______ _____ _____    ______ ____
ROOT
ATOM      1  C   UNL     1       0.057  -2.734   3.441  0.00  0.00    +0.173 C 
ENDROOT
BRANCH   1   2
ATOM      2  C   UNL     1       0.078  -3.839   4.466  0.00  0.00    +0.231 C 
ATOM      3  O   UNL     1       0.092  -4.997   4.108  0.00  0.00    -0.274 OA
ATOM      4  N   UNL     1       0.080  -3.539   5.780  0.00  0.00    -0.239 N 
ATOM      5  C   UNL     1       0.099  -4.527   6.696  0.00  0.00    +0.306 C 
ATOM      6  O   UNL     1       0.113  -5.689   6.337  0.00  0.00    -0.252 OA
ATOM      7  N   UNL     1       0.101  -4.228   8.010  0.00  0.00    -0.295 N 
ATOM      8  H   UNL     1       0.068  -2.613   6.066  0.00  0.00    +0.159 HD
ATOM      9  H   UNL     1       0.089  -3.301   8.297  0.00  0.00    +0.151 HD
BRANCH   7  10
ATOM     10  C   UNL     1       0.121  -5.302   9.006  0.00  0.00    +0.097 C 
ATOM     11  C   UNL     1      -1.316  -5.766   9.299  0.00  0.00    +0.046 C 
ATOM     12  C   UNL     1      -1.335  -6.659  10.563  0.00  0.00    +0.168 C 
ATOM     13  S   UNL     1       0.103  -6.032  11.522  0.00  0.00    -0.029 S 
ATOM     14  O   UNL     1       1.062  -7.074  11.652  0.00  0.00    -0.174 OA
ATOM     15  O   UNL     1      -0.371  -5.369  12.686  0.00  0.00    -0.174 OA
ATOM     16  C   UNL     1       0.740  -4.777  10.333  0.00  0.00    +0.188 C 
ENDBRANCH   7  10
ENDBRANCH   1   2
BRANCH   1  17
ATOM     17  S   UNL     1       0.059  -3.453   1.776  0.00  0.00    -0.080 S 
BRANCH  17  22
ATOM     18  C   UNL     1      -0.018   1.503   0.010  0.00  0.00    +0.065 C 
ATOM     19  C   UNL     1       0.002  -0.004   0.002  0.00  0.00    +0.034 A 
ATOM     20  C   UNL     1       0.008  -0.785  -1.092  0.00  0.00    +0.037 A 
ATOM     21  N   UNL     1       0.028  -2.090  -0.654  0.00  0.00    -0.322 N 
ATOM     22  C   UNL     1       0.034  -2.053   0.707  0.00  0.00    +0.148 A 
ATOM     23  N   UNL     1       0.024  -0.796   1.087  0.00  0.00    -0.338 N 
ATOM     24  C   UNL     1      -0.006  -0.320  -2.525  0.00  0.00    +0.065 C 
ATOM     25  H   UNL     1       0.028  -0.488   2.007  0.00  0.00    +0.168 HD
BRANCH  21  26
ATOM     26  C   UNL     1       0.041  -3.291  -1.493  0.00  0.00    +0.155 C 
BRANCH  26  27
ATOM     27  C   UNL     1       1.487  -3.688  -1.792  0.00  0.00    +0.138 C 
ATOM     28  C   UNL     1       1.525  -5.008  -2.603  0.00  0.00    +0.035 C 
ATOM     29  C   UNL     1       2.896  -4.875  -3.320  0.00  0.00    +0.031 C 
ATOM     30  C   UNL     1       2.990  -3.353  -3.568  0.00  0.00    +0.160 C 
ATOM     31  O   UNL     1       2.109  -2.708  -2.639  0.00  0.00    -0.375 OA
ENDBRANCH  26  27
ENDBRANCH  21  26
ENDBRANCH  17  22
ENDBRANCH   1  17
TORSDOF 6
