REMARK  Name = ZINC27533498
REMARK  8 active torsions:
REMARK  status: ('A' for Active; 'I' for Inactive)
REMARK    1  A    between atoms: C_1  and  C_2
REMARK    2  A    between atoms: C_2  and  O_3
REMARK    3  A    between atoms: O_3  and  C_4
REMARK    4  A    between atoms: C_6  and  C_12
REMARK    5  A    between atoms: C_9  and  O_10
REMARK    6  A    between atoms: C_14  and  C_28
REMARK    7  A    between atoms: N_16  and  C_19
REMARK    8  A    between atoms: C_23  and  C_25
REMARK                            x       y       z     vdW  Elec       q    Type
REMARK                         _______ _______ _______ _____ _____    ______ ____
ROOT
ATOM      1  C   UNL     1       5.069   3.309  -0.033  0.00  0.00    +0.023 C 
ATOM      2  C   UNL     1       5.727   3.509  -1.234  0.00  0.00    +0.062 C 
ATOM      3  C   UNL     1       7.093   4.017  -1.434  0.00  0.00    +0.069 C 
ATOM      4  N   UNL     1       7.317   4.046  -2.712  0.00  0.00    -0.177 NA
ATOM      5  N   UNL     1       6.208   3.605  -3.434  0.00  0.00    -0.156 N 
ATOM      6  C   UNL     1       5.212   3.265  -2.592  0.00  0.00    +0.272 C 
ATOM      7  O   UNL     1       4.109   2.842  -2.893  0.00  0.00    -0.268 OA
ATOM      8  C   UNL     1       8.058   4.427  -0.351  0.00  0.00    +0.068 C 
ENDROOT
BRANCH   1  11
ATOM      9  C   UNL     1       1.818   1.702   0.903  0.00  0.00    +0.163 A 
ATOM     10  C   UNL     1       3.159   2.025   0.900  0.00  0.00    +0.057 A 
ATOM     11  C   UNL     1       3.650   2.958  -0.027  0.00  0.00    -0.020 A 
ATOM     12  C   UNL     1       2.773   3.551  -0.949  0.00  0.00    +0.026 A 
ATOM     13  C   UNL     1       1.438   3.217  -0.940  0.00  0.00    +0.059 A 
ATOM     14  C   UNL     1       0.954   2.293  -0.020  0.00  0.00    +0.172 A 
ATOM     15  I   UNL     1       0.131   4.104  -2.316  0.00  0.00    -0.040 I 
BRANCH  14  16
ATOM     16  O   UNL     1      -0.364   1.969  -0.017  0.00  0.00    -0.503 OA
ATOM     17  H   UNL     1      -1.046   2.434  -0.744  0.00  0.00    +0.292 HD
ENDBRANCH  14  16
BRANCH   9  18
ATOM     18  O   UNL     1       1.337   0.803   1.803  0.00  0.00    -0.489 OA
BRANCH  18  20
ATOM     19  C   UNL     1       1.558  -0.744   3.647  0.00  0.00    +0.048 C 
ATOM     20  C   UNL     1       2.277   0.237   2.719  0.00  0.00    +0.226 C 
ENDBRANCH  18  20
ENDBRANCH   9  18
ENDBRANCH   1  11
BRANCH   5  21
ATOM     21  C   UNL     1       6.140   3.528  -4.831  0.00  0.00    +0.061 A 
ATOM     22  C   UNL     1       4.980   3.073  -5.446  0.00  0.00    +0.025 A 
ATOM     23  C   UNL     1       4.907   2.995  -6.824  0.00  0.00    +0.003 A 
ATOM     24  C   UNL     1       5.986   3.368  -7.599  0.00  0.00    +0.015 A 
ATOM     25  C   UNL     1       7.156   3.827  -6.991  0.00  0.00    +0.065 A 
ATOM     26  C   UNL     1       7.228   3.910  -5.600  0.00  0.00    +0.040 A 
BRANCH  25  27
ATOM     27  C   UNL     1       8.313   4.228  -7.818  0.00  0.00    +0.387 C 
ATOM     28  O   UNL     1       9.330   4.626  -7.287  0.00  0.00    -0.241 OA
ATOM     29  O   UNL     1       8.240   4.151  -9.161  0.00  0.00    -0.241 OA
ENDBRANCH  25  27
ENDBRANCH   5  21
TORSDOF 6
