REMARK  Name = ZINC03265016
REMARK  9 active torsions:
REMARK  status: ('A' for Active; 'I' for Inactive)
REMARK    1  A    between atoms: C_1  and  C_2
REMARK    2  A    between atoms: C_11  and  O_13
REMARK    3  A    between atoms: O_13  and  C_14
REMARK    4  A    between atoms: C_14  and  C_15
REMARK    5  A    between atoms: C_15  and  C_17
REMARK    6  A    between atoms: C_15  and  O_26
REMARK    7  A    between atoms: C_17  and  N_45
REMARK    8  A    between atoms: C_18  and  C_19
REMARK    9  A    between atoms: C_18  and  N_45
REMARK                            x       y       z     vdW  Elec       q    Type
REMARK                         _______ _______ _______ _____ _____    ______ ____
ROOT
ATOM      1  C   UNL     1      -4.587  -0.281   2.902  0.00  0.00    +0.135 C 
ENDROOT
BRANCH   1   2
ATOM      2  O   UNL     1      -3.562  -1.034   3.554  0.00  0.00    -0.390 OA
ATOM      3  H   UNL     1      -3.393  -1.897   3.153  0.00  0.00    +0.210 HD
ENDBRANCH   1   2
BRANCH   1   4
ATOM      4  C   UNL     1      -5.901  -1.064   2.945  0.00  0.00    +0.258 C 
BRANCH   4   5
ATOM      5  O   UNL     1      -6.333  -1.196   4.301  0.00  0.00    -0.489 OA
BRANCH   5  16
ATOM      6  C   UNL     1     -11.896  -4.553   4.035  0.00  0.00    +0.045 C 
ATOM      7  C   UNL     1     -11.102  -3.972   5.177  0.00  0.00    -0.033 A 
ATOM      8  C   UNL     1     -11.526  -4.106   6.460  0.00  0.00    +0.096 A 
ATOM      9  C   UNL     1     -10.766  -3.553   7.511  0.00  0.00    +0.337 A 
ATOM     10  O   UNL     1     -11.157  -3.681   8.658  0.00  0.00    -0.245 OA
ATOM     11  O   UNL     1      -9.623  -2.889   7.281  0.00  0.00    -0.422 OA
ATOM     12  C   UNL     1      -9.146  -2.720   6.029  0.00  0.00    +0.143 A 
ATOM     13  C   UNL     1      -9.854  -3.246   4.933  0.00  0.00    +0.021 A 
ATOM     14  C   UNL     1      -9.363  -3.074   3.634  0.00  0.00    +0.015 A 
ATOM     15  C   UNL     1      -8.199  -2.389   3.434  0.00  0.00    +0.046 A 
ATOM     16  C   UNL     1      -7.491  -1.870   4.516  0.00  0.00    +0.124 A 
ATOM     17  C   UNL     1      -7.962  -2.032   5.808  0.00  0.00    +0.092 A 
ENDBRANCH   5  16
ENDBRANCH   4   5
ENDBRANCH   1   4
BRANCH   1  18
ATOM     18  C   UNL     1      -4.189  -0.031   1.446  0.00  0.00    -0.047 C 
BRANCH  18  19
ATOM     19  N   UNL     1      -2.922   0.724   1.413  0.00  0.00    +0.383 N 
ATOM     20  H   UNL     1      -2.191   0.180   1.887  0.00  0.00    -0.085 HD
ATOM     21  H   UNL     1      -3.050   1.620   1.898  0.00  0.00    -0.085 HD
BRANCH  19  22
ATOM     22  C   UNL     1      -2.514   0.979   0.019  0.00  0.00    -0.047 C 
BRANCH  22  23
ATOM     23  C   UNL     1      -1.219   1.750   0.017  0.00  0.00    -0.063 A 
ATOM     24  C   UNL     1      -0.013   1.076   0.008  0.00  0.00    +0.002 A 
ATOM     25  C   UNL     1       1.175   1.783   0.000  0.00  0.00    +0.002 A 
ATOM     26  C   UNL     1       1.157   3.165   0.008  0.00  0.00    +0.020 A 
ATOM     27  C   UNL     1      -0.050   3.841   0.023  0.00  0.00    +0.041 A 
ATOM     28  C   UNL     1      -1.239   3.132   0.031  0.00  0.00    +0.021 A 
ATOM     29 CL   UNL     1      -0.074   5.576   0.032  0.00  0.00    -0.084 Cl
ENDBRANCH  22  23
ENDBRANCH  19  22
ENDBRANCH  18  19
ENDBRANCH   1  18
TORSDOF 8
