REMARK  Name = ZINC03376539
REMARK  9 active torsions:
REMARK  status: ('A' for Active; 'I' for Inactive)
REMARK    1  A    between atoms: C_1  and  C_2
REMARK    2  A    between atoms: C_5  and  O_28
REMARK    3  A    between atoms: C_6  and  N_8
REMARK    4  A    between atoms: C_12  and  C_27
REMARK    5  A    between atoms: C_13  and  C_26
REMARK    6  A    between atoms: C_17  and  S_18
REMARK    7  A    between atoms: S_18  and  C_19
REMARK    8  A    between atoms: C_19  and  C_20
REMARK    9  A    between atoms: O_28  and  C_29
REMARK                            x       y       z     vdW  Elec       q    Type
REMARK                         _______ _______ _______ _____ _____    ______ ____
ROOT
ATOM      1  N   UNL     1      -1.280   4.676   2.185  0.00  0.00    -0.252 N 
ATOM      2  C   UNL     1      -1.208   6.011   2.033  0.00  0.00    +0.268 A 
ATOM      3  O   UNL     1      -1.690   6.755   2.871  0.00  0.00    -0.267 OA
ATOM      4  C   UNL     1      -0.560   6.547   0.876  0.00  0.00    +0.076 A 
ATOM      5  C   UNL     1      -0.358   7.934   0.495  0.00  0.00    -0.026 A 
ATOM      6  C   UNL     1       0.285   8.212  -0.648  0.00  0.00    -0.008 A 
ATOM      7  S   UNL     1       0.675   6.602  -1.307  0.00  0.00    -0.073 S 
ATOM      8  C   UNL     1      -0.039   5.601  -0.027  0.00  0.00    +0.117 A 
ATOM      9  N   UNL     1      -0.140   4.295   0.184  0.00  0.00    -0.215 NA
ATOM     10  C   UNL     1      -0.747   3.828   1.257  0.00  0.00    +0.178 A 
ATOM     11  C   UNL     1       0.604   9.563  -1.235  0.00  0.00    +0.052 C 
ATOM     12  C   UNL     1      -0.867   9.048   1.374  0.00  0.00    +0.045 C 
ENDROOT
BRANCH   1  18
ATOM     13  C   UNL     1      -1.017   3.095   6.835  0.00  0.00    +0.044 C 
ATOM     14  C   UNL     1      -1.812   3.369   5.585  0.00  0.00    -0.048 A 
ATOM     15  C   UNL     1      -3.167   3.096   5.555  0.00  0.00    +0.007 A 
ATOM     16  C   UNL     1      -3.902   3.346   4.411  0.00  0.00    +0.048 A 
ATOM     17  C   UNL     1      -3.280   3.871   3.289  0.00  0.00    +0.144 A 
ATOM     18  C   UNL     1      -1.915   4.146   3.318  0.00  0.00    +0.094 A 
ATOM     19  C   UNL     1      -1.183   3.888   4.468  0.00  0.00    +0.033 A 
BRANCH  17  20
ATOM     20  O   UNL     1      -4.001   4.116   2.163  0.00  0.00    -0.493 OA
ATOM     21  C   UNL     1      -5.396   3.810   2.206  0.00  0.00    +0.277 C 
ENDBRANCH  17  20
ENDBRANCH   1  18
BRANCH  10  22
ATOM     22  S   UNL     1      -0.866   2.087   1.500  0.00  0.00    -0.078 S 
BRANCH  22  23
ATOM     23  C   UNL     1      -0.018   1.503   0.010  0.00  0.00    +0.173 C 
BRANCH  23  24
ATOM     24  C   UNL     1       0.002  -0.004   0.002  0.00  0.00    +0.231 C 
ATOM     25  O   UNL     1      -0.506  -0.622   0.913  0.00  0.00    -0.274 OA
ATOM     26  N   UNL     1       0.585  -0.664  -1.018  0.00  0.00    -0.240 N 
ATOM     27  C   UNL     1       0.603  -2.012  -1.025  0.00  0.00    +0.303 C 
ATOM     28  O   UNL     1       0.094  -2.632  -0.112  0.00  0.00    -0.253 OA
ATOM     29  N   UNL     1       1.186  -2.673  -2.045  0.00  0.00    -0.313 N 
ATOM     30  H   UNL     1       0.992  -0.170  -1.747  0.00  0.00    +0.159 HD
ATOM     31  H   UNL     1       1.593  -2.178  -2.774  0.00  0.00    +0.146 HD
ATOM     32  H   UNL     1       1.200  -3.643  -2.051  0.00  0.00    +0.146 HD
ENDBRANCH  23  24
ENDBRANCH  22  23
ENDBRANCH  10  22
TORSDOF 5
