REMARK  Name = ZINC36360158
REMARK  4 active torsions:
REMARK  status: ('A' for Active; 'I' for Inactive)
REMARK    1  A    between atoms: C_4  and  N_11
REMARK    2  A    between atoms: C_5  and  C_7
REMARK    3  A    between atoms: N_11  and  S_12
REMARK    4  A    between atoms: S_12  and  C_15
REMARK                            x       y       z     vdW  Elec       q    Type
REMARK                         _______ _______ _______ _____ _____    ______ ____
ROOT
ATOM      1  S   UNL     1       5.041   0.200  -0.046  0.00  0.00    +0.092 S 
ATOM      2  O   UNL     1       5.095   0.888  -1.288  0.00  0.00    -0.148 OA
ATOM      3  O   UNL     1       5.120   0.875   1.202  0.00  0.00    -0.148 OA
ENDROOT
BRANCH   1   4
ATOM      4  C   UNL     1       6.352  -0.978  -0.065  0.00  0.00    +0.112 A 
ATOM      5  C   UNL     1       6.870  -1.447   1.128  0.00  0.00    +0.030 A 
ATOM      6  C   UNL     1       7.897  -2.373   1.116  0.00  0.00    +0.018 A 
ATOM      7  C   UNL     1       8.404  -2.826  -0.090  0.00  0.00    +0.030 A 
ATOM      8  C   UNL     1       7.888  -2.354  -1.298  0.00  0.00    +0.049 A 
ATOM      9  C   UNL     1       6.850  -1.430  -1.271  0.00  0.00    +0.053 A 
ATOM     10  N   UNL     1       8.388  -2.788  -2.523  0.00  0.00    -0.284 N 
ATOM     11  C   UNL     1       9.059  -3.915  -2.745  0.00  0.00    +0.227 C 
ATOM     12  O   UNL     1       9.420  -4.154  -3.878  0.00  0.00    -0.275 OA
ATOM     13  C   UNL     1       9.395  -4.910  -1.668  0.00  0.00    +0.170 C 
ATOM     14  S   UNL     1       9.711  -4.012  -0.119  0.00  0.00    -0.114 S 
ATOM     15  H   UNL     1       8.231  -2.213  -3.288  0.00  0.00    +0.155 HD
ENDBRANCH   1   4
BRANCH   1  16
ATOM     16  N   UNL     1       3.620  -0.649  -0.036  0.00  0.00    -0.097 NA
BRANCH  16  20
ATOM     17  C   UNL     1      -0.017   1.378   0.010  0.00  0.00    +0.001 A 
ATOM     18  C   UNL     1       1.170   2.089   0.002  0.00  0.00    +0.002 A 
ATOM     19  C   UNL     1       2.377   1.420  -0.013  0.00  0.00    +0.027 A 
ATOM     20  C   UNL     1       2.400   0.031  -0.021  0.00  0.00    +0.086 A 
ATOM     21  C   UNL     1       1.207  -0.680  -0.013  0.00  0.00    +0.079 A 
ATOM     22  C   UNL     1       0.002  -0.004   0.002  0.00  0.00    +0.014 A 
BRANCH  21  23
ATOM     23  C   UNL     1       1.226  -2.187  -0.022  0.00  0.00    +0.419 C 
ATOM     24  F   UNL     1      -0.087  -2.670  -0.012  0.00  0.00    -0.166 F 
ATOM     25  F   UNL     1       1.880  -2.638  -1.173  0.00  0.00    -0.166 F 
ATOM     26  F   UNL     1       1.903  -2.651   1.111  0.00  0.00    -0.166 F 
ENDBRANCH  21  23
ENDBRANCH  16  20
ENDBRANCH   1  16
TORSDOF 4
