REMARK  Name = ZINC16110757
REMARK  7 active torsions:
REMARK  status: ('A' for Active; 'I' for Inactive)
REMARK    1  A    between atoms: C_1  and  C_2
REMARK    2  A    between atoms: N_10  and  C_14
REMARK    3  A    between atoms: C_14  and  C_15
REMARK    4  A    between atoms: N_17  and  C_18
REMARK    5  A    between atoms: N_17  and  C_19
REMARK    6  A    between atoms: C_19  and  C_20
REMARK    7  A    between atoms: N_22  and  C_23
REMARK                            x       y       z     vdW  Elec       q    Type
REMARK                         _______ _______ _______ _____ _____    ______ ____
ROOT
ATOM      1  C   UNL     1       3.127   4.285   0.095  0.00  0.00    +0.234 C 
ATOM      2  O   UNL     1       2.066   3.984  -0.409  0.00  0.00    -0.274 OA
ATOM      3  N   UNL     1       4.019   3.326   0.411  0.00  0.00    -0.294 N 
ATOM      4  C   UNL     1       5.301   3.689   1.021  0.00  0.00    +0.132 C 
ENDROOT
BRANCH   1   5
ATOM      5  C   UNL     1       3.450   5.732   0.363  0.00  0.00    +0.213 C 
BRANCH   5  15
ATOM      6  C   UNL     1      -2.883  10.260  -1.479  0.00  0.00    +0.007 C 
ATOM      7  C   UNL     1      -1.993   9.394  -0.585  0.00  0.00    -0.014 C 
ATOM      8  C   UNL     1      -1.855   8.000  -1.199  0.00  0.00    +0.006 C 
ATOM      9  C   UNL     1      -0.974   7.131  -0.297  0.00  0.00    +0.035 C 
ATOM     10  C   UNL     1       0.399   7.778  -0.148  0.00  0.00    +0.113 C 
ATOM     11  C   UNL     1       0.275   9.179   0.440  0.00  0.00    +0.035 C 
ATOM     12  C   UNL     1      -0.611  10.039  -0.465  0.00  0.00    +0.006 C 
ATOM     13  C   UNL     1       1.294   6.920   0.717  0.00  0.00    +0.247 C 
ATOM     14  O   UNL     1       1.116   6.611   1.876  0.00  0.00    -0.273 OA
ATOM     15  N   UNL     1       2.331   6.571  -0.072  0.00  0.00    -0.215 N 
ATOM     16  C   UNL     1       2.213   7.092  -1.299  0.00  0.00    +0.310 C 
ATOM     17  O   UNL     1       3.027   6.922  -2.186  0.00  0.00    -0.252 OA
ATOM     18  N   UNL     1       1.091   7.822  -1.443  0.00  0.00    -0.285 N 
ATOM     19  H   UNL     1       0.799   8.288  -2.242  0.00  0.00    +0.151 HD
ENDBRANCH   5  15
ENDBRANCH   1   5
BRANCH   3  20
ATOM     20  C   UNL     1       3.708   1.919   0.145  0.00  0.00    +0.203 C 
BRANCH  20  21
ATOM     21  C   UNL     1       4.182   1.552  -1.237  0.00  0.00    +0.235 C 
ATOM     22  O   UNL     1       4.727   2.384  -1.932  0.00  0.00    -0.274 OA
ATOM     23  N   UNL     1       4.001   0.300  -1.702  0.00  0.00    -0.282 N 
ATOM     24  H   UNL     1       3.632  -0.384  -1.121  0.00  0.00    +0.155 HD
BRANCH  23  25
ATOM     25  C   UNL     1       4.345  -0.013  -3.022  0.00  0.00    +0.070 A 
ATOM     26  C   UNL     1       3.413   0.144  -4.041  0.00  0.00    +0.064 A 
ATOM     27  C   UNL     1       3.757  -0.163  -5.344  0.00  0.00    +0.022 A 
ATOM     28  C   UNL     1       5.024  -0.634  -5.633  0.00  0.00    +0.003 A 
ATOM     29  C   UNL     1       5.953  -0.797  -4.622  0.00  0.00    +0.022 A 
ATOM     30  C   UNL     1       5.617  -0.488  -3.317  0.00  0.00    +0.064 A 
ATOM     31 CL   UNL     1       6.783  -0.693  -2.047  0.00  0.00    -0.082 Cl
ATOM     32 CL   UNL     1       1.820   0.730  -3.678  0.00  0.00    -0.082 Cl
ENDBRANCH  23  25
ENDBRANCH  20  21
ENDBRANCH   3  20
TORSDOF 5
