REMARK  Name = ZINC04010938
REMARK  8 active torsions:
REMARK  status: ('A' for Active; 'I' for Inactive)
REMARK    1  A    between atoms: C_1  and  C_2
REMARK    2  A    between atoms: C_6  and  O_8
REMARK    3  A    between atoms: O_8  and  C_9
REMARK    4  A    between atoms: C_11  and  O_24
REMARK    5  A    between atoms: C_13  and  O_23
REMARK    6  A    between atoms: C_15  and  O_22
REMARK    7  A    between atoms: C_17  and  C_20
REMARK    8  A    between atoms: C_20  and  O_21
REMARK                            x       y       z     vdW  Elec       q    Type
REMARK                         _______ _______ _______ _____ _____    ______ ____
ROOT
ATOM      1  C   UNL     1      -0.013   1.086   0.008  0.00  0.00    +0.339 C 
ATOM      2  C   UNL     1      -0.754   1.593  -1.232  0.00  0.00    +0.214 C 
ATOM      3  C   UNL     1      -2.206   1.108  -1.183  0.00  0.00    +0.180 C 
ATOM      4  C   UNL     1      -2.851   1.593   0.118  0.00  0.00    +0.177 C 
ATOM      5  C   UNL     1      -2.029   1.086   1.306  0.00  0.00    +0.179 C 
ATOM      6  O   UNL     1      -0.682   1.547   1.183  0.00  0.00    -0.331 OA
ENDROOT
BRANCH   4   7
ATOM      7  O   UNL     1      -2.882   3.022   0.133  0.00  0.00    -0.386 OA
ATOM      8  H   UNL     1      -3.384   3.412  -0.596  0.00  0.00    +0.210 HD
ENDBRANCH   4   7
BRANCH   3   9
ATOM      9  O   UNL     1      -2.924   1.636  -2.300  0.00  0.00    -0.386 OA
ATOM     10  H   UNL     1      -2.564   1.373  -3.159  0.00  0.00    +0.210 HD
ENDBRANCH   3   9
BRANCH   2  11
ATOM     11  O   UNL     1      -0.120   1.086  -2.408  0.00  0.00    -0.383 OA
ATOM     12  H   UNL     1       0.806   1.350  -2.501  0.00  0.00    +0.210 HD
ENDBRANCH   2  11
BRANCH   1  13
ATOM     13  O   UNL     1       1.328   1.581  -0.002  0.00  0.00    -0.461 OA
BRANCH  13  19
ATOM     14  C   UNL     1       5.801   1.434   1.944  0.00  0.00    +0.044 C 
ATOM     15  C   UNL     1       4.371   0.962   1.893  0.00  0.00    -0.047 A 
ATOM     16  C   UNL     1       3.930  -0.003   2.780  0.00  0.00    +0.003 A 
ATOM     17  C   UNL     1       2.619  -0.438   2.736  0.00  0.00    +0.004 A 
ATOM     18  C   UNL     1       1.743   0.095   1.809  0.00  0.00    +0.046 A 
ATOM     19  C   UNL     1       2.185   1.059   0.914  0.00  0.00    +0.124 A 
ATOM     20  C   UNL     1       3.502   1.494   0.961  0.00  0.00    +0.049 A 
ENDBRANCH  13  19
ENDBRANCH   1  13
BRANCH   5  21
ATOM     21  C   UNL     1      -2.633   1.616   2.608  0.00  0.00    +0.190 C 
BRANCH  21  22
ATOM     22  O   UNL     1      -1.938   1.049   3.721  0.00  0.00    -0.392 OA
ATOM     23  H   UNL     1      -2.269   1.342   4.581  0.00  0.00    +0.210 HD
ENDBRANCH  21  22
ENDBRANCH   5  21
TORSDOF 7
