REMARK  Name = ZINC05568056
REMARK  5 active torsions:
REMARK  status: ('A' for Active; 'I' for Inactive)
REMARK    1  A    between atoms: C_3  and  N_11
REMARK    2  A    between atoms: C_4  and  N_8
REMARK    3  A    between atoms: N_11  and  C_12
REMARK    4  A    between atoms: C_13  and  C_14
REMARK    5  A    between atoms: C_13  and  C_16
REMARK                            x       y       z     vdW  Elec       q    Type
REMARK                         _______ _______ _______ _____ _____    ______ ____
ROOT
ATOM      1  C   UNL     1       3.989   3.570  -0.284  0.00  0.00    +0.088 C 
ATOM      2  C   UNL     1       5.228   4.154  -0.462  0.00  0.00    +0.090 C 
ENDROOT
BRANCH   2   3
ATOM      3  C   UNL     1       6.450   3.338  -0.349  0.00  0.00    +0.233 A 
ATOM      4  N   UNL     1       7.674   3.807  -0.391  0.00  0.00    -0.209 NA
ATOM      5  C   UNL     1       8.543   2.771  -0.256  0.00  0.00    +0.111 A 
ATOM      6  C   UNL     1       9.936   2.679  -0.228  0.00  0.00    +0.051 A 
ATOM      7  C   UNL     1      10.537   1.448  -0.072  0.00  0.00    +0.043 A 
ATOM      8  C   UNL     1       9.766   0.302   0.058  0.00  0.00    +0.024 A 
ATOM      9  C   UNL     1       8.388   0.379   0.032  0.00  0.00    +0.050 A 
ATOM     10  C   UNL     1       7.767   1.608  -0.124  0.00  0.00    +0.156 A 
ATOM     11  O   UNL     1       6.475   2.002  -0.181  0.00  0.00    -0.435 OA
ATOM     12 CL   UNL     1      12.269   1.331  -0.037  0.00  0.00    -0.083 Cl
ENDBRANCH   2   3
BRANCH   1  13
ATOM     13  N   UNL     1       3.890   2.232  -0.117  0.00  0.00    -0.318 N 
ATOM     14  H   UNL     1       4.692   1.692  -0.043  0.00  0.00    +0.152 HD
BRANCH  13  17
ATOM     15  C   UNL     1       0.241   1.809   0.012  0.00  0.00    +0.022 A 
ATOM     16  C   UNL     1       1.483   2.409  -0.054  0.00  0.00    +0.027 A 
ATOM     17  C   UNL     1       2.631   1.627  -0.050  0.00  0.00    +0.062 A 
ATOM     18  C   UNL     1       2.527   0.244   0.021  0.00  0.00    +0.149 A 
ATOM     19  C   UNL     1       1.282  -0.351   0.086  0.00  0.00    +0.054 A 
ATOM     20  C   UNL     1       0.140   0.430   0.082  0.00  0.00    +0.043 A 
ATOM     21 CL   UNL     1      -1.423  -0.321   0.165  0.00  0.00    -0.083 Cl
BRANCH  18  22
ATOM     22  N   UNL     1       3.748  -0.592   0.025  0.00  0.00    +0.058 N 
ATOM     23  O   UNL     1       3.762  -1.646  -0.568  0.00  0.00    -0.126 OA
ATOM     24  O   UNL     1       4.732  -0.222   0.622  0.00  0.00    -0.126 OA
ENDBRANCH  18  22
ENDBRANCH  13  17
ENDBRANCH   1  13
BRANCH   2  25
ATOM     25  C   UNL     1       5.324   5.535  -0.752  0.00  0.00    +0.265 C 
ATOM     26  O   UNL     1       6.414   6.049  -0.908  0.00  0.00    -0.295 OA
ENDBRANCH   2  25
TORSDOF 5
