REMARK  Name = ZINC67332462
REMARK  8 active torsions:
REMARK  status: ('A' for Active; 'I' for Inactive)
REMARK    1  A    between atoms: C_1  and  C_2
REMARK    2  A    between atoms: C_2  and  C_4
REMARK    3  A    between atoms: C_2  and  N_21
REMARK    4  A    between atoms: N_6  and  C_7
REMARK    5  A    between atoms: C_7  and  C_8
REMARK    6  A    between atoms: N_13  and  C_14
REMARK    7  A    between atoms: C_14  and  C_15
REMARK    8  A    between atoms: C_22  and  C_24
REMARK                            x       y       z     vdW  Elec       q    Type
REMARK                         _______ _______ _______ _____ _____    ______ ____
ROOT
ATOM      1  C   UNL     1       0.337  -0.413  -0.956  0.00  0.00    +0.233 C 
ATOM      2  O   UNL     1       1.323  -1.088  -0.748  0.00  0.00    -0.274 OA
ATOM      3  N   UNL     1      -0.016  -0.109  -2.221  0.00  0.00    -0.315 N 
ATOM      4  H   UNL     1      -0.805   0.431  -2.388  0.00  0.00    +0.149 HD
ENDROOT
BRANCH   1   6
ATOM      5  C   UNL     1      -0.523   1.617   0.180  0.00  0.00    +0.038 C 
ATOM      6  C   UNL     1      -0.492   0.087   0.198  0.00  0.00    +0.156 C 
BRANCH   6   7
ATOM      7  N   UNL     1       0.097  -0.374   1.458  0.00  0.00    -0.304 N 
ATOM      8  C   UNL     1      -0.676  -0.505   2.555  0.00  0.00    +0.217 C 
ATOM      9  O   UNL     1      -1.858  -0.241   2.499  0.00  0.00    -0.275 OA
ATOM     10  H   UNL     1       1.042  -0.586   1.503  0.00  0.00    +0.149 HD
BRANCH   8  11
ATOM     11  C   UNL     1      -0.070  -0.980   3.851  0.00  0.00    +0.075 C 
ATOM     12  C   UNL     1       0.476  -2.413   3.685  0.00  0.00    +0.013 C 
ATOM     13  C   UNL     1       0.165  -3.097   5.039  0.00  0.00    +0.001 C 
ATOM     14  C   UNL     1      -1.223  -2.516   5.405  0.00  0.00    +0.001 C 
ATOM     15  C   UNL     1      -1.151  -1.045   4.944  0.00  0.00    +0.013 C 
ENDBRANCH   8  11
ENDBRANCH   6   7
ENDBRANCH   1   6
BRANCH   3  16
ATOM     16  C   UNL     1       0.790  -0.595  -3.344  0.00  0.00    +0.089 C 
BRANCH  16  17
ATOM     17  C   UNL     1       0.175  -0.113  -4.659  0.00  0.00    -0.051 C 
ATOM     18  C   UNL     1       0.915  -0.756  -5.851  0.00  0.00    -0.016 C 
ATOM     19  C   UNL     1       0.011  -1.963  -6.214  0.00  0.00    -0.020 C 
ATOM     20  C   UNL     1      -1.402  -1.391  -5.936  0.00  0.00    -0.078 C 
ATOM     21  N   UNL     1      -1.236  -0.535  -4.738  0.00  0.00    +0.383 N 
ATOM     22  H   UNL     1      -1.481  -1.056  -3.910  0.00  0.00    -0.081 HD
BRANCH  21  23
ATOM     23  C   UNL     1      -2.100   0.648  -4.848  0.00  0.00    -0.075 C 
BRANCH  23  24
ATOM     24  C   UNL     1      -3.566   0.216  -4.789  0.00  0.00    -0.028 C 
ATOM     25  C   UNL     1      -4.465   1.427  -5.044  0.00  0.00    +0.002 C 
ATOM     26  C   UNL     1      -5.932   0.995  -4.984  0.00  0.00    +0.000 C 
ATOM     27  C   UNL     1      -6.237   0.415  -3.602  0.00  0.00    +0.000 C 
ATOM     28  C   UNL     1      -5.338  -0.796  -3.347  0.00  0.00    +0.000 C 
ATOM     29  C   UNL     1      -3.871  -0.364  -3.406  0.00  0.00    +0.002 C 
ENDBRANCH  23  24
ENDBRANCH  21  23
ENDBRANCH  16  17
ENDBRANCH   3  16
TORSDOF 7
