REMARK  Name = ZINC41990853
REMARK  5 active torsions:
REMARK  status: ('A' for Active; 'I' for Inactive)
REMARK    1  A    between atoms: C_1  and  C_2
REMARK    2  A    between atoms: C_2  and  C_3
REMARK    3  A    between atoms: C_2  and  C_11
REMARK    4  A    between atoms: C_2  and  S_14
REMARK    5  A    between atoms: S_14  and  C_15
REMARK                            x       y       z     vdW  Elec       q    Type
REMARK                         _______ _______ _______ _____ _____    ______ ____
ROOT
ATOM      1  C   UNL     1      -0.019   1.526   0.010  0.00  0.00    +0.040 C 
ATOM      2  C   UNL     1       0.002  -0.004   0.002  0.00  0.00    +0.148 C 
ENDROOT
BRANCH   2   3
ATOM      3  C   UNL     1       0.731  -0.503   1.223  0.00  0.00    +0.017 A 
ATOM      4  C   UNL     1       0.081  -1.317   2.132  0.00  0.00    +0.046 A 
ATOM      5  C   UNL     1       0.750  -1.775   3.253  0.00  0.00    +0.124 A 
ATOM      6  C   UNL     1       2.072  -1.420   3.464  0.00  0.00    +0.041 A 
ATOM      7  C   UNL     1       2.722  -0.607   2.555  0.00  0.00    +0.041 A 
ATOM      8  C   UNL     1       2.054  -0.152   1.431  0.00  0.00    +0.129 A 
ATOM      9  F   UNL     1       2.691   0.639   0.540  0.00  0.00    -0.205 F 
ATOM     10  F   UNL     1       0.114  -2.570   4.141  0.00  0.00    -0.205 F 
ENDBRANCH   2   3
BRANCH   2  11
ATOM     11  C   UNL     1       0.707  -0.490  -1.238  0.00  0.00    +0.376 C 
ATOM     12  O   UNL     1       1.869  -0.179  -1.440  0.00  0.00    -0.244 OA
ATOM     13  O   UNL     1       0.117  -1.195  -2.039  0.00  0.00    -0.244 OA
ENDBRANCH   2  11
BRANCH   2  14
ATOM     14  S   UNL     1      -1.700  -0.632   0.015  0.00  0.00    -0.074 S 
BRANCH  14  15
ATOM     15  C   UNL     1      -2.410   0.030  -1.456  0.00  0.00    +0.161 A 
ATOM     16  N   UNL     1      -1.861   0.800  -2.376  0.00  0.00    -0.133 NA
ATOM     17  N   UNL     1      -2.604   1.208  -3.459  0.00  0.00    -0.125 NA
ATOM     18  C   UNL     1      -3.862   0.829  -3.572  0.00  0.00    +0.180 A 
ATOM     19  S   UNL     1      -4.063  -0.167  -2.103  0.00  0.00    -0.025 S 
ATOM     20  N   UNL     1      -4.784   1.122  -4.571  0.00  0.00    -0.336 N 
ATOM     21  H   UNL     1      -4.525   1.680  -5.320  0.00  0.00    +0.144 HD
ATOM     22  H   UNL     1      -5.685   0.767  -4.518  0.00  0.00    +0.144 HD
ENDBRANCH  14  15
ENDBRANCH   2  14
TORSDOF 4
