REMARK  Name = ZINC46739162
REMARK  13 active torsions:
REMARK  status: ('A' for Active; 'I' for Inactive)
REMARK    1  A    between atoms: C_1  and  C_2
REMARK    2  A    between atoms: C_2  and  C_3
REMARK    3  A    between atoms: C_3  and  C_4
REMARK    4  A    between atoms: C_4  and  N_5
REMARK    5  A    between atoms: C_6  and  N_34
REMARK    6  A    between atoms: C_7  and  N_14
REMARK    7  A    between atoms: N_14  and  C_15
REMARK    8  A    between atoms: N_14  and  C_21
REMARK    9  A    between atoms: C_15  and  C_16
REMARK   10  A    between atoms: C_21  and  C_22
REMARK   11  A    between atoms: N_24  and  C_25
REMARK   12  A    between atoms: C_28  and  O_32
REMARK   13  A    between atoms: O_32  and  C_33
REMARK                            x       y       z     vdW  Elec       q    Type
REMARK                         _______ _______ _______ _____ _____    ______ ____
ROOT
ATOM      1  N   UNL     1       0.571  -3.295  -6.087  0.00  0.00    -0.307 N 
ENDROOT
BRANCH   1   4
ATOM      2  N   UNL     1       1.661  -3.554  -2.592  0.00  0.00    -0.280 N 
ATOM      3  C   UNL     1       0.951  -3.776  -3.750  0.00  0.00    +0.127 A 
ATOM      4  C   UNL     1       1.284  -3.086  -4.884  0.00  0.00    +0.134 A 
ATOM      5  C   UNL     1       2.347  -2.167  -4.835  0.00  0.00    +0.277 A 
ATOM      6  O   UNL     1       2.663  -1.540  -5.833  0.00  0.00    -0.266 OA
ATOM      7  N   UNL     1       3.015  -1.982  -3.679  0.00  0.00    -0.273 N 
ATOM      8  H   UNL     1       3.748  -1.348  -3.644  0.00  0.00    +0.173 HD
ATOM      9  C   UNL     1       2.670  -2.665  -2.572  0.00  0.00    +0.331 A 
ATOM     10  O   UNL     1       3.284  -2.478  -1.539  0.00  0.00    -0.246 OA
BRANCH   3  11
ATOM     11  N   UNL     1      -0.085  -4.682  -3.768  0.00  0.00    -0.343 N 
ATOM     12  H   UNL     1      -0.271  -5.220  -2.982  0.00  0.00    +0.144 HD
ATOM     13  H   UNL     1      -0.628  -4.783  -4.565  0.00  0.00    +0.144 HD
ENDBRANCH   3  11
BRANCH   2  14
ATOM     14  C   UNL     1       1.312  -4.287  -1.372  0.00  0.00    +0.128 C 
BRANCH  14  15
ATOM     15  C   UNL     1       0.263  -3.498  -0.586  0.00  0.00    +0.021 C 
BRANCH  15  17
ATOM     16  C   UNL     1      -1.150  -3.474   1.474  0.00  0.00    +0.004 C 
ATOM     17  C   UNL     1      -0.101  -4.263   0.688  0.00  0.00    -0.002 C 
ENDBRANCH  15  17
ENDBRANCH  14  15
ENDBRANCH   2  14
ENDBRANCH   1   4
BRANCH   1  18
ATOM     18  C   UNL     1       1.248  -3.878  -7.248  0.00  0.00    +0.180 C 
BRANCH  18  19
ATOM     19  C   UNL     1       1.013  -5.366  -7.271  0.00  0.00    +0.122 A 
ATOM     20  C   UNL     1      -0.005  -5.993  -7.888  0.00  0.00    +0.046 A 
ATOM     21  C   UNL     1       0.164  -7.377  -7.654  0.00  0.00    +0.041 A 
ATOM     22  C   UNL     1       1.275  -7.514  -6.909  0.00  0.00    +0.195 A 
ATOM     23  O   UNL     1       1.789  -6.293  -6.685  0.00  0.00    -0.466 OA
ENDBRANCH  18  19
ENDBRANCH   1  18
BRANCH   1  24
ATOM     24  C   UNL     1      -0.845  -2.929  -6.172  0.00  0.00    +0.201 C 
BRANCH  24  25
ATOM     25  C   UNL     1      -0.966  -1.469  -6.528  0.00  0.00    +0.235 C 
ATOM     26  O   UNL     1       0.033  -0.801  -6.693  0.00  0.00    -0.274 OA
ATOM     27  N   UNL     1      -2.183  -0.906  -6.661  0.00  0.00    -0.284 N 
ATOM     28  H   UNL     1      -2.980  -1.419  -6.453  0.00  0.00    +0.155 HD
BRANCH  27  29
ATOM     29  C   UNL     1      -2.298   0.419  -7.101  0.00  0.00    +0.035 A 
ATOM     30  C   UNL     1      -3.305   1.232  -6.599  0.00  0.00    +0.027 A 
ATOM     31  C   UNL     1      -3.418   2.539  -7.032  0.00  0.00    +0.049 A 
ATOM     32  C   UNL     1      -2.525   3.039  -7.968  0.00  0.00    +0.138 A 
ATOM     33  C   UNL     1      -1.518   2.227  -8.470  0.00  0.00    +0.084 A 
ATOM     34  C   UNL     1      -1.401   0.921  -8.033  0.00  0.00    +0.047 A 
ATOM     35 CL   UNL     1      -0.401   2.854  -9.642  0.00  0.00    -0.080 Cl
BRANCH  32  36
ATOM     36  O   UNL     1      -2.637   4.326  -8.393  0.00  0.00    -0.494 OA
ATOM     37  C   UNL     1      -3.697   5.104  -7.835  0.00  0.00    +0.277 C 
ENDBRANCH  32  36
ENDBRANCH  27  29
ENDBRANCH  24  25
ENDBRANCH   1  24
TORSDOF 11
