REMARK  Name = ZINC52731336
REMARK  4 active torsions:
REMARK  status: ('A' for Active; 'I' for Inactive)
REMARK    1  A    between atoms: C_8  and  S_10
REMARK    2  A    between atoms: S_10  and  C_11
REMARK    3  A    between atoms: C_11  and  C_12
REMARK    4  A    between atoms: N_18  and  N_19
REMARK                            x       y       z     vdW  Elec       q    Type
REMARK                         _______ _______ _______ _____ _____    ______ ____
ROOT
ATOM      1  C   UNL     1       5.517  -3.068  -0.070  0.00  0.00    +0.114 C 
ENDROOT
BRANCH   1   2
ATOM      2  C   UNL     1       6.412  -4.280  -0.086  0.00  0.00    -0.032 A 
ATOM      3  C   UNL     1       6.841  -4.861   1.100  0.00  0.00    +0.024 A 
ATOM      4  C   UNL     1       7.660  -5.971   1.052  0.00  0.00    +0.113 A 
ATOM      5  N   UNL     1       8.038  -6.483  -0.104  0.00  0.00    -0.239 NA
ATOM      6  C   UNL     1       7.651  -5.958  -1.256  0.00  0.00    +0.132 A 
ATOM      7  C   UNL     1       6.820  -4.842  -1.282  0.00  0.00    +0.049 A 
ATOM      8  N   UNL     1       8.073  -6.530  -2.451  0.00  0.00    -0.268 N 
ATOM      9  H   UNL     1       7.791  -6.149  -3.297  0.00  0.00    +0.167 HD
BRANCH   8  10
ATOM     10  N   UNL     1       8.884  -7.629  -2.433  0.00  0.00    -0.255 NA
ATOM     11  H   UNL     1       8.466  -8.378  -1.902  0.00  0.00    +0.140 HD
ATOM     12  H   UNL     1       9.106  -7.930  -3.370  0.00  0.00    +0.140 HD
ENDBRANCH   8  10
ENDBRANCH   1   2
BRANCH   1  13
ATOM     13  S   UNL     1       3.782  -3.598  -0.055  0.00  0.00    -0.062 S 
BRANCH  13  21
ATOM     14  C   UNL     1      -0.017   1.373   0.010  0.00  0.00    +0.002 A 
ATOM     15  C   UNL     1       1.170   2.091   0.002  0.00  0.00    +0.004 A 
ATOM     16  C   UNL     1       2.384   1.435  -0.013  0.00  0.00    +0.048 A 
ATOM     17  C   UNL     1       2.421   0.051  -0.021  0.00  0.00    +0.156 A 
ATOM     18  C   UNL     1       1.223  -0.680  -0.013  0.00  0.00    +0.110 A 
ATOM     19  C   UNL     1       0.002  -0.004   0.002  0.00  0.00    +0.031 A 
ATOM     20  N   UNL     1       1.569  -1.996  -0.024  0.00  0.00    -0.203 NA
ATOM     21  C   UNL     1       2.875  -2.087  -0.038  0.00  0.00    +0.258 A 
ATOM     22  O   UNL     1       3.423  -0.859  -0.036  0.00  0.00    -0.431 OA
ENDBRANCH  13  21
ENDBRANCH   1  13
TORSDOF 4
