REMARK  Name = ZINC13699693
REMARK  6 active torsions:
REMARK  status: ('A' for Active; 'I' for Inactive)
REMARK    1  A    between atoms: C_1  and  C_2
REMARK    2  A    between atoms: C_2  and  N_3
REMARK    3  A    between atoms: C_4  and  C_9
REMARK    4  A    between atoms: C_6  and  C_8
REMARK    5  A    between atoms: N_11  and  C_12
REMARK    6  A    between atoms: C_13  and  C_17
REMARK                            x       y       z     vdW  Elec       q    Type
REMARK                         _______ _______ _______ _____ _____    ______ ____
ROOT
ATOM      1  C   UNL     1       3.620   0.898  -0.023  0.00  0.00    +0.267 C 
ATOM      2  O   UNL     1       4.125   2.001  -0.118  0.00  0.00    -0.268 OA
ATOM      3  N   UNL     1       4.403  -0.195   0.068  0.00  0.00    -0.274 N 
ATOM      4  H   UNL     1       4.004  -1.079   0.070  0.00  0.00    +0.156 HD
ENDROOT
BRANCH   1   6
ATOM      5  N   UNL     1       1.236   1.767   0.004  0.00  0.00    -0.259 N 
ATOM      6  C   UNL     1       2.156   0.758  -0.007  0.00  0.00    +0.124 A 
ATOM      7  C   UNL     1       1.435  -0.424  -0.002  0.00  0.00    +0.057 A 
ATOM      8  C   UNL     1       0.093  -0.038   0.013  0.00  0.00    +0.061 A 
ATOM      9  N   UNL     1       0.051   1.270   0.015  0.00  0.00    -0.176 NA
ATOM     10  C   UNL     1      -1.097  -0.963   0.022  0.00  0.00    +0.067 C 
BRANCH   5  12
ATOM     11  C   UNL     1       1.800   3.666   1.438  0.00  0.00    +0.029 C 
ATOM     12  C   UNL     1       1.551   3.198   0.003  0.00  0.00    +0.141 C 
ENDBRANCH   5  12
ENDBRANCH   1   6
BRANCH   3  13
ATOM     13  C   UNL     1       5.779  -0.056   0.160  0.00  0.00    +0.084 A 
ATOM     14  C   UNL     1       6.742  -1.053   0.266  0.00  0.00    +0.065 A 
ATOM     15  C   UNL     1       8.117  -0.621   0.343  0.00  0.00    +0.022 A 
ATOM     16  C   UNL     1       8.347   0.704   0.315  0.00  0.00    +0.048 A 
ATOM     17  S   UNL     1       6.714   1.401   0.177  0.00  0.00    -0.081 S 
BRANCH  14  18
ATOM     18  C   UNL     1       6.379  -2.473   0.296  0.00  0.00    +0.244 C 
ATOM     19  O   UNL     1       5.210  -2.804   0.226  0.00  0.00    -0.270 OA
ATOM     20  N   UNL     1       7.341  -3.412   0.400  0.00  0.00    -0.325 N 
ATOM     21  H   UNL     1       8.272  -3.148   0.455  0.00  0.00    +0.145 HD
ATOM     22  H   UNL     1       7.101  -4.352   0.419  0.00  0.00    +0.145 HD
ENDBRANCH  14  18
ENDBRANCH   3  13
TORSDOF 4
