REMARK  Name = ZINC12524475
REMARK  3 active torsions:
REMARK  status: ('A' for Active; 'I' for Inactive)
REMARK    1  A    between atoms: C_15  and  C_17
REMARK    2  A    between atoms: C_20  and  N_26
REMARK    3  A    between atoms: C_21  and  N_23
REMARK                            x       y       z     vdW  Elec       q    Type
REMARK                         _______ _______ _______ _____ _____    ______ ____
ROOT
ATOM      1  C   UNL     1      -0.017   1.378   0.010  0.00  0.00    +0.000 A 
ATOM      2  C   UNL     1       1.164   2.100   0.002  0.00  0.00    +0.001 A 
ATOM      3  C   UNL     1       2.375   1.434  -0.032  0.00  0.00    +0.010 A 
ATOM      4  C   UNL     1       2.392   0.048  -0.057  0.00  0.00    +0.004 A 
ATOM      5  C   UNL     1       1.207  -0.685  -0.013  0.00  0.00    -0.038 A 
ATOM      6  C   UNL     1       0.002  -0.004   0.002  0.00  0.00    +0.004 A 
ATOM      7  C   UNL     1       1.205  -2.188   0.070  0.00  0.00    +0.041 C 
ATOM      8  C   UNL     1       2.368  -2.804  -0.710  0.00  0.00    +0.049 C 
ATOM      9  C   UNL     1       3.613  -2.043  -0.428  0.00  0.00    +0.019 A 
ATOM     10  C   UNL     1       3.687  -0.702  -0.128  0.00  0.00    +0.084 A 
ATOM     11  N   UNL     1       4.900  -0.193   0.075  0.00  0.00    -0.224 NA
ATOM     12  C   UNL     1       5.991  -0.933   0.009  0.00  0.00    +0.165 A 
ATOM     13  S   UNL     1       5.309  -2.542  -0.384  0.00  0.00    -0.056 S 
ATOM     14  N   UNL     1       7.316  -0.563   0.195  0.00  0.00    -0.261 N 
ATOM     15  C   UNL     1       7.623   0.716   0.489  0.00  0.00    +0.250 C 
ATOM     16  O   UNL     1       6.740   1.545   0.592  0.00  0.00    -0.270 OA
ATOM     17  H   UNL     1       8.021  -1.224   0.113  0.00  0.00    +0.157 HD
ENDROOT
BRANCH  15  18
ATOM     18  C   UNL     1       9.031   1.110   0.686  0.00  0.00    +0.039 A 
ATOM     19  C   UNL     1      10.048   0.159   0.563  0.00  0.00    +0.015 A 
ATOM     20  C   UNL     1      11.360   0.529   0.748  0.00  0.00    +0.026 A 
ATOM     21  C   UNL     1      11.675   1.850   1.058  0.00  0.00    +0.060 A 
ATOM     22  C   UNL     1      10.665   2.799   1.181  0.00  0.00    +0.148 A 
ATOM     23  C   UNL     1       9.351   2.436   0.992  0.00  0.00    +0.047 A 
BRANCH  21  24
ATOM     24  N   UNL     1      13.002   2.221   1.245  0.00  0.00    -0.328 N 
ATOM     25  C   UNL     1      13.619   2.149   2.577  0.00  0.00    +0.105 C 
ATOM     26  C   UNL     1      14.903   1.320   2.482  0.00  0.00    +0.019 C 
ATOM     27  C   UNL     1      15.810   1.913   1.400  0.00  0.00    +0.003 C 
ATOM     28  C   UNL     1      15.097   1.856   0.047  0.00  0.00    +0.019 C 
ATOM     29  C   UNL     1      13.816   2.686   0.114  0.00  0.00    +0.105 C 
ENDBRANCH  21  24
BRANCH  22  30
ATOM     30  N   UNL     1      11.004   4.201   1.511  0.00  0.00    +0.058 N 
ATOM     31  O   UNL     1      10.127   5.026   1.618  0.00  0.00    -0.126 OA
ATOM     32  O   UNL     1      12.159   4.522   1.673  0.00  0.00    -0.126 OA
ENDBRANCH  22  30
ENDBRANCH  15  18
TORSDOF 3
