REMARK  Name = ZINC67581433
REMARK  13 active torsions:
REMARK  status: ('A' for Active; 'I' for Inactive)
REMARK    1  A    between atoms: C_1  and  C_2
REMARK    2  A    between atoms: C_2  and  C_3
REMARK    3  A    between atoms: C_3  and  C_4
REMARK    4  A    between atoms: C_4  and  C_5
REMARK    5  A    between atoms: C_5  and  C_6
REMARK    6  A    between atoms: C_6  and  C_8
REMARK    7  A    between atoms: C_6  and  N_9
REMARK    8  A    between atoms: N_12  and  C_13
REMARK    9  A    between atoms: C_13  and  C_14
REMARK   10  A    between atoms: C_14  and  C_16
REMARK   11  A    between atoms: C_14  and  O_24
REMARK   12  A    between atoms: C_16  and  N_17
REMARK   13  A    between atoms: C_20  and  C_23
REMARK                            x       y       z     vdW  Elec       q    Type
REMARK                         _______ _______ _______ _____ _____    ______ ____
ROOT
ATOM      1  N   UNL     1       2.285  -4.534  -1.411  0.00  0.00    -0.297 N 
ATOM      2  C   UNL     1       2.065  -5.762  -0.901  0.00  0.00    +0.300 C 
ATOM      3  O   UNL     1       1.194  -6.468  -1.371  0.00  0.00    -0.253 OA
ATOM      4  N   UNL     1       2.810  -6.207   0.130  0.00  0.00    -0.297 N 
ATOM      5  H   UNL     1       2.980  -3.971  -1.036  0.00  0.00    +0.151 HD
ATOM      6  H   UNL     1       3.504  -5.643   0.505  0.00  0.00    +0.150 HD
ENDROOT
BRANCH   1   7
ATOM      7  C   UNL     1       1.476  -4.051  -2.532  0.00  0.00    +0.071 C 
ATOM      8  C   UNL     1       2.080  -4.545  -3.848  0.00  0.00    +0.028 C 
BRANCH   7   9
ATOM      9  C   UNL     1       1.455  -2.521  -2.524  0.00  0.00    +0.022 C 
BRANCH   9  10
ATOM     10  C   UNL     1       0.739  -2.027  -1.265  0.00  0.00    +0.002 C 
BRANCH  10  11
ATOM     11  C   UNL     1       0.718  -0.497  -1.257  0.00  0.00    -0.000 C 
BRANCH  11  13
ATOM     12  C   UNL     1      -0.019   1.526   0.010  0.00  0.00    +0.004 C 
ATOM     13  C   UNL     1       0.002  -0.004   0.002  0.00  0.00    -0.003 C 
ENDBRANCH  11  13
ENDBRANCH  10  11
ENDBRANCH   9  10
ENDBRANCH   7   9
ENDBRANCH   1   7
BRANCH   4  14
ATOM     14  C   UNL     1       2.570  -7.542   0.685  0.00  0.00    +0.135 C 
BRANCH  14  15
ATOM     15  C   UNL     1       3.543  -7.797   1.837  0.00  0.00    +0.115 C 
BRANCH  15  16
ATOM     16  O   UNL     1       4.886  -7.716   1.354  0.00  0.00    -0.392 OA
ATOM     17  H   UNL     1       5.093  -8.355   0.659  0.00  0.00    +0.210 HD
ENDBRANCH  15  16
BRANCH  15  18
ATOM     18  C   UNL     1       3.293  -9.191   2.416  0.00  0.00    -0.046 C 
BRANCH  18  19
ATOM     19  N   UNL     1       4.144  -9.391   3.597  0.00  0.00    +0.381 N 
ATOM     20  C   UNL     1       3.748  -8.447   4.649  0.00  0.00    -0.078 C 
ATOM     21  C   UNL     1       4.683  -8.595   5.851  0.00  0.00    -0.016 C 
ATOM     22  C   UNL     1       4.593 -10.027   6.387  0.00  0.00    -0.018 C 
ATOM     23  C   UNL     1       4.937 -11.006   5.261  0.00  0.00    -0.016 C 
ATOM     24  C   UNL     1       3.992 -10.768   4.080  0.00  0.00    -0.078 C 
ATOM     25  C   UNL     1       5.584 -10.205   7.540  0.00  0.00    +0.007 C 
ATOM     26  H   UNL     1       5.108  -9.227   3.347  0.00  0.00    -0.082 HD
ENDBRANCH  18  19
ENDBRANCH  15  18
ENDBRANCH  14  15
ENDBRANCH   4  14
TORSDOF 10
