REMARK  Name = ZINC39724736
REMARK  11 active torsions:
REMARK  status: ('A' for Active; 'I' for Inactive)
REMARK    1  A    between atoms: C_1  and  C_2
REMARK    2  A    between atoms: C_2  and  O_3
REMARK    3  A    between atoms: O_3  and  C_4
REMARK    4  A    between atoms: C_4  and  C_6
REMARK    5  A    between atoms: C_8  and  N_18
REMARK    6  A    between atoms: C_19  and  C_21
REMARK    7  A    between atoms: C_21  and  C_23
REMARK    8  A    between atoms: C_21  and  S_24
REMARK    9  A    between atoms: S_24  and  C_25
REMARK   10  A    between atoms: C_29  and  C_33
REMARK   11  A    between atoms: C_30  and  C_32
REMARK                            x       y       z     vdW  Elec       q    Type
REMARK                         _______ _______ _______ _____ _____    ______ ____
ROOT
ATOM      1  N   UNL     1       3.408  -1.655  -3.950  0.00  0.00    -0.301 N 
ATOM      2  C   UNL     1       4.090  -0.539  -4.277  0.00  0.00    +0.227 C 
ATOM      3  O   UNL     1       4.309   0.306  -3.435  0.00  0.00    -0.275 OA
ATOM      4  H   UNL     1       3.233  -2.331  -4.623  0.00  0.00    +0.150 HD
ENDROOT
BRANCH   1   6
ATOM      5  C   UNL     1       1.468  -2.353  -2.550  0.00  0.00    +0.155 C 
ATOM      6  C   UNL     1       2.931  -1.847  -2.578  0.00  0.00    +0.153 C 
ATOM      7  S   UNL     1       3.743  -3.293  -1.774  0.00  0.00    -0.106 S 
ATOM      8  C   UNL     1       2.482  -4.501  -2.101  0.00  0.00    -0.013 C 
ATOM      9  C   UNL     1       1.410  -3.863  -2.501  0.00  0.00    -0.044 C 
ATOM     10  C   UNL     1       0.146  -4.613  -2.940  0.00  0.00    +0.032 C 
ATOM     11  C   UNL     1       0.501  -5.444  -4.172  0.00  0.00    +0.004 C 
ATOM     12  C   UNL     1       1.167  -6.747  -3.801  0.00  0.00    +0.001 C 
ATOM     13  C   UNL     1       2.592  -6.641  -3.307  0.00  0.00    +0.005 C 
ATOM     14  C   UNL     1       2.622  -5.998  -1.916  0.00  0.00    +0.042 C 
BRANCH   5  15
ATOM     15  C   UNL     1       0.775  -1.794  -1.334  0.00  0.00    +0.317 C 
ATOM     16  O   UNL     1       0.314  -2.540  -0.504  0.00  0.00    -0.250 OA
BRANCH  15  17
ATOM     17  O   UNL     1       0.671  -0.465  -1.174  0.00  0.00    -0.464 OA
BRANCH  17  19
ATOM     18  C   UNL     1      -0.019   1.526   0.010  0.00  0.00    +0.048 C 
ATOM     19  C   UNL     1       0.002  -0.004   0.002  0.00  0.00    +0.229 C 
ENDBRANCH  17  19
ENDBRANCH  15  17
ENDBRANCH   5  15
ENDBRANCH   1   6
BRANCH   2  20
ATOM     20  C   UNL     1       4.580  -0.342  -5.688  0.00  0.00    +0.137 C 
ATOM     21  C   UNL     1       3.463   0.269  -6.535  0.00  0.00    +0.029 C 
BRANCH  20  22
ATOM     22  S   UNL     1       6.012   0.772  -5.681  0.00  0.00    -0.073 S 
BRANCH  22  23
ATOM     23  C   UNL     1       6.552   0.783  -7.358  0.00  0.00    +0.193 A 
ATOM     24  N   UNL     1       5.894   0.061  -8.254  0.00  0.00    -0.183 NA
ATOM     25  C   UNL     1       6.275   0.049  -9.525  0.00  0.00    +0.277 A 
ATOM     26  O   UNL     1       5.600  -0.690 -10.438  0.00  0.00    -0.265 OA
ATOM     27  C   UNL     1       7.381   0.807  -9.908  0.00  0.00    +0.037 A 
ATOM     28  C   UNL     1       8.040   1.547  -8.943  0.00  0.00    +0.049 A 
ATOM     29  N   UNL     1       7.602   1.518  -7.694  0.00  0.00    -0.227 NA
ATOM     30  C   UNL     1       9.240   2.381  -9.311  0.00  0.00    +0.066 C 
ATOM     31  C   UNL     1       7.848   0.821 -11.341  0.00  0.00    +0.051 C 
ENDBRANCH  22  23
ENDBRANCH  20  22
ENDBRANCH   2  20
TORSDOF 7
