REMARK  Name = ZINC66347764
REMARK  6 active torsions:
REMARK  status: ('A' for Active; 'I' for Inactive)
REMARK    1  A    between atoms: C_1  and  O_2
REMARK    2  A    between atoms: O_2  and  C_3
REMARK    3  A    between atoms: N_5  and  N_6
REMARK    4  A    between atoms: N_9  and  C_10
REMARK    5  A    between atoms: C_10  and  C_12
REMARK    6  A    between atoms: C_10  and  C_19
REMARK                            x       y       z     vdW  Elec       q    Type
REMARK                         _______ _______ _______ _____ _____    ______ ____
ROOT
ATOM      1  C   UNL     1      -1.358  -6.164  -0.018  0.00  0.00    +0.136 C 
ENDROOT
BRANCH   1   2
ATOM      2  C   UNL     1      -2.670  -6.613  -0.609  0.00  0.00    -0.023 A 
ATOM      3  C   UNL     1      -3.833  -5.931  -0.305  0.00  0.00    +0.007 A 
ATOM      4  C   UNL     1      -5.037  -6.342  -0.846  0.00  0.00    +0.020 A 
ATOM      5  C   UNL     1      -5.077  -7.436  -1.692  0.00  0.00    +0.041 A 
ATOM      6  C   UNL     1      -3.912  -8.119  -1.995  0.00  0.00    +0.020 A 
ATOM      7  C   UNL     1      -2.708  -7.703  -1.458  0.00  0.00    +0.007 A 
ATOM      8 CL   UNL     1      -6.588  -7.954  -2.371  0.00  0.00    -0.084 Cl
ENDBRANCH   1   2
BRANCH   1  12
ATOM      9  N   UNL     1      -0.056  -2.725  -0.012  0.00  0.00    -0.216 N 
ATOM     10  C   UNL     1      -0.108  -4.072  -0.019  0.00  0.00    +0.317 C 
ATOM     11  O   UNL     1       0.920  -4.720  -0.032  0.00  0.00    -0.251 OA
ATOM     12  N   UNL     1      -1.301  -4.700  -0.011  0.00  0.00    -0.287 N 
ATOM     13  H   UNL     1       0.802  -2.273  -0.018  0.00  0.00    +0.174 HD
ATOM     14  H   UNL     1      -2.121  -4.183  -0.000  0.00  0.00    +0.151 HD
BRANCH   9  17
ATOM     15  C   UNL     1      -1.189  -0.632   0.010  0.00  0.00    +0.417 C 
ATOM     16  O   UNL     1      -2.217   0.016   0.023  0.00  0.00    -0.225 OA
ATOM     17  N   UNL     1      -1.241  -1.978   0.003  0.00  0.00    -0.198 N 
ATOM     18  H   UNL     1      -2.100  -2.430   0.009  0.00  0.00    +0.176 HD
BRANCH  15  20
ATOM     19  C   UNL     1      -0.017   1.425   0.010  0.00  0.00    +0.282 C 
ATOM     20  O   UNL     1       0.002  -0.004   0.002  0.00  0.00    -0.453 OA
ENDBRANCH  15  20
ENDBRANCH   9  17
ENDBRANCH   1  12
BRANCH   1  21
ATOM     21  C   UNL     1      -1.240  -6.678   1.393  0.00  0.00    -0.016 A 
ATOM     22  C   UNL     1      -0.482  -7.801   1.670  0.00  0.00    +0.013 A 
ATOM     23  C   UNL     1      -0.397  -8.237   2.951  0.00  0.00    +0.045 A 
ATOM     24  S   UNL     1      -1.408  -7.046   3.815  0.00  0.00    -0.105 S 
ATOM     25  C   UNL     1      -1.871  -6.044   2.412  0.00  0.00    +0.051 A 
ENDBRANCH   1  21
TORSDOF 5
