REMARK  Name = ZINC51169288
REMARK  2 active torsions:
REMARK  status: ('A' for Active; 'I' for Inactive)
REMARK    1  A    between atoms: C_8  and  N_15
REMARK    2  A    between atoms: N_15  and  N_16
REMARK                            x       y       z     vdW  Elec       q    Type
REMARK                         _______ _______ _______ _____ _____    ______ ____
ROOT
ATOM      1  C   UNL     1       0.001   1.387   0.336  0.00  0.00    +0.016 A 
ATOM      2  C   UNL     1       1.152   2.106   0.219  0.00  0.00    +0.027 A 
ATOM      3  C   UNL     1       2.382   1.438   0.094  0.00  0.00    +0.049 A 
ATOM      4  C   UNL     1       2.397   0.022   0.090  0.00  0.00    +0.022 A 
ATOM      5  C   UNL     1       1.195  -0.687   0.212  0.00  0.00    +0.026 A 
ATOM      6  C   UNL     1       0.021  -0.006   0.333  0.00  0.00    +0.014 A 
ATOM      7  I   UNL     1      -1.777  -1.066   0.516  0.00  0.00    -0.044 I 
ATOM      8  C   UNL     1       3.639  -0.644  -0.037  0.00  0.00    +0.055 A 
ATOM      9  C   UNL     1       4.786   0.127  -0.151  0.00  0.00    -0.006 A 
ATOM     10  C   UNL     1       4.692   1.513  -0.139  0.00  0.00    +0.021 A 
ATOM     11  N   UNL     1       3.527   2.117  -0.020  0.00  0.00    -0.358 N 
ATOM     12  C   UNL     1       6.079   2.112  -0.277  0.00  0.00    +0.054 C 
ATOM     13  C   UNL     1       7.053   0.966   0.067  0.00  0.00    +0.011 C 
ATOM     14  C   UNL     1       6.233  -0.289  -0.298  0.00  0.00    +0.039 C 
ATOM     15  H   UNL     1       3.499   3.087  -0.015  0.00  0.00    +0.166 HD
ENDROOT
BRANCH   8  16
ATOM     16  N   UNL     1       3.707  -2.029  -0.048  0.00  0.00    -0.282 N 
ATOM     17  H   UNL     1       3.000  -2.546  -0.465  0.00  0.00    +0.166 HD
BRANCH  16  18
ATOM     18  N   UNL     1       4.769  -2.665   0.529  0.00  0.00    -0.256 NA
ATOM     19  H   UNL     1       4.873  -2.392   1.495  0.00  0.00    +0.140 HD
ATOM     20  H   UNL     1       4.681  -3.666   0.444  0.00  0.00    +0.140 HD
ENDBRANCH  16  18
ENDBRANCH   8  16
TORSDOF 2
