REMARK  Name = ZINC49241216
REMARK  3 active torsions:
REMARK  status: ('A' for Active; 'I' for Inactive)
REMARK    1  A    between atoms: C_5  and  C_8
REMARK    2  A    between atoms: C_8  and  N_9
REMARK    3  A    between atoms: N_12  and  C_13
REMARK                            x       y       z     vdW  Elec       q    Type
REMARK                         _______ _______ _______ _____ _____    ______ ____
ROOT
ATOM      1  N   UNL     1       1.553  -2.513   2.381  0.00  0.00    -0.297 N 
ATOM      2  C   UNL     1       1.734  -3.835   2.569  0.00  0.00    +0.300 C 
ATOM      3  O   UNL     1       1.342  -4.627   1.734  0.00  0.00    -0.253 OA
ATOM      4  N   UNL     1       2.350  -4.279   3.683  0.00  0.00    -0.297 N 
ATOM      5  H   UNL     1       1.866  -1.881   3.047  0.00  0.00    +0.150 HD
ATOM      6  H   UNL     1       2.662  -3.647   4.349  0.00  0.00    +0.151 HD
ENDROOT
BRANCH   4   7
ATOM      7  C   UNL     1       2.546  -5.717   3.887  0.00  0.00    +0.074 C 
ATOM      8  C   UNL     1       1.313  -6.324   4.588  0.00  0.00    +0.022 C 
ATOM      9  C   UNL     1       1.907  -7.386   5.547  0.00  0.00    +0.002 C 
ATOM     10  C   UNL     1       3.200  -6.702   6.056  0.00  0.00    +0.002 C 
ATOM     11  C   UNL     1       3.746  -5.957   4.821  0.00  0.00    +0.022 C 
ENDBRANCH   4   7
BRANCH   1  12
ATOM     12  C   UNL     1       0.884  -2.030   1.170  0.00  0.00    +0.137 C 
BRANCH  12  17
ATOM     13  C   UNL     1      -0.019   1.528   0.010  0.00  0.00    +0.005 C 
ATOM     14  C   UNL     1       1.422   2.047  -0.001  0.00  0.00    +0.028 C 
ATOM     15  C   UNL     1       2.174   1.469   1.202  0.00  0.00    +0.160 C 
ATOM     16  O   UNL     1       2.128   0.042   1.149  0.00  0.00    -0.375 OA
ATOM     17  C   UNL     1       0.808  -0.502   1.204  0.00  0.00    +0.135 C 
ATOM     18  C   UNL     1       0.002  -0.004   0.002  0.00  0.00    +0.033 C 
ENDBRANCH  12  17
ENDBRANCH   1  12
TORSDOF 3
