REMARK  Name = ZINC44749578
REMARK  9 active torsions:
REMARK  status: ('A' for Active; 'I' for Inactive)
REMARK    1  A    between atoms: C_1  and  C_2
REMARK    2  A    between atoms: C_2  and  C_3
REMARK    3  A    between atoms: C_3  and  C_5
REMARK    4  A    between atoms: C_3  and  N_8
REMARK    5  A    between atoms: C_5  and  C_6
REMARK    6  A    between atoms: C_5  and  C_7
REMARK    7  A    between atoms: C_9  and  C_13
REMARK    8  A    between atoms: C_16  and  N_20
REMARK    9  A    between atoms: C_18  and  C_19
REMARK                            x       y       z     vdW  Elec       q    Type
REMARK                         _______ _______ _______ _____ _____    ______ ____
ROOT
ATOM      1  N   UNL     1       0.994  -2.007   1.286  0.00  0.00    -0.222 N 
ATOM      2  C   UNL     1       2.176  -2.574   0.936  0.00  0.00    +0.182 A 
ATOM      3  N   UNL     1       1.934  -3.842   0.677  0.00  0.00    -0.108 NA
ATOM      4  N   UNL     1       0.688  -4.104   0.841  0.00  0.00    -0.023 NA
ATOM      5  N   UNL     1       0.051  -3.048   1.214  0.00  0.00    -0.043 NA
ENDROOT
BRANCH   2   6
ATOM      6  C   UNL     1       3.488  -1.895   0.860  0.00  0.00    +0.024 A 
ATOM      7  C   UNL     1       3.612  -0.689   0.169  0.00  0.00    +0.014 A 
ATOM      8  C   UNL     1       4.836  -0.059   0.099  0.00  0.00    +0.023 A 
ATOM      9  C   UNL     1       5.946  -0.624   0.717  0.00  0.00    +0.025 A 
ATOM     10  C   UNL     1       5.825  -1.826   1.406  0.00  0.00    +0.026 A 
ATOM     11  C   UNL     1       4.603  -2.457   1.484  0.00  0.00    -0.038 A 
ATOM     12  C   UNL     1       4.472  -3.757   2.236  0.00  0.00    +0.044 C 
BRANCH   9  13
ATOM     13  N   UNL     1       7.183   0.015   0.645  0.00  0.00    -0.358 N 
ATOM     14  H   UNL     1       7.268   0.854   0.165  0.00  0.00    +0.142 HD
ATOM     15  H   UNL     1       7.958  -0.378   1.076  0.00  0.00    +0.142 HD
ENDBRANCH   9  13
ENDBRANCH   2   6
BRANCH   1  16
ATOM     16  C   UNL     1       0.753  -0.612   1.663  0.00  0.00    +0.114 C 
BRANCH  16  17
ATOM     17  C   UNL     1       0.327  -0.548   3.131  0.00  0.00    +0.007 C 
ATOM     18  C   UNL     1       1.427  -1.148   4.009  0.00  0.00    +0.009 C 
ATOM     19  C   UNL     1       0.095   0.911   3.531  0.00  0.00    +0.009 C 
ENDBRANCH  16  17
BRANCH  16  21
ATOM     20  C   UNL     1       0.126   0.032  -0.667  0.00  0.00    +0.006 C 
ATOM     21  C   UNL     1      -0.355  -0.030   0.784  0.00  0.00    +0.024 C 
ENDBRANCH  16  21
ENDBRANCH   1  16
TORSDOF 5
