REMARK  Name = ZINC65410113
REMARK  7 active torsions:
REMARK  status: ('A' for Active; 'I' for Inactive)
REMARK    1  A    between atoms: C_1  and  C_2
REMARK    2  A    between atoms: C_6  and  C_12
REMARK    3  A    between atoms: C_10  and  C_11
REMARK    4  A    between atoms: C_12  and  N_13
REMARK    5  A    between atoms: N_13  and  C_14
REMARK    6  A    between atoms: C_15  and  C_17
REMARK    7  A    between atoms: C_27  and  C_29
REMARK                            x       y       z     vdW  Elec       q    Type
REMARK                         _______ _______ _______ _____ _____    ______ ____
ROOT
ATOM      1  N   UNL     1      -2.480  -4.356  -1.416  0.00  0.00    -0.296 N 
ATOM      2  C   UNL     1      -3.227  -3.320  -2.134  0.00  0.00    +0.132 C 
ATOM      3  C   UNL     1      -2.987  -4.895  -0.290  0.00  0.00    +0.261 C 
ATOM      4  O   UNL     1      -2.327  -5.684   0.358  0.00  0.00    -0.269 OA
ENDROOT
BRANCH   3   5
ATOM      5  C   UNL     1      -4.346  -4.528   0.156  0.00  0.00    +0.102 C 
ATOM      6  C   UNL     1      -4.907  -4.908   1.323  0.00  0.00    +0.024 C 
ATOM      7  C   UNL     1      -6.271  -4.275   1.327  0.00  0.00    +0.118 C 
ATOM      8  C   UNL     1      -6.683  -3.617   2.636  0.00  0.00    +0.132 C 
ATOM      9  N   UNL     1      -7.925  -2.868   2.348  0.00  0.00    -0.299 N 
ATOM     10  C   UNL     1      -7.988  -1.966   1.190  0.00  0.00    +0.125 C 
ATOM     11  C   UNL     1      -7.389  -2.659  -0.051  0.00  0.00    +0.125 C 
ATOM     12  N   UNL     1      -6.096  -3.187   0.327  0.00  0.00    -0.219 NA
ATOM     13  N   UNL     1      -5.249  -3.722  -0.572  0.00  0.00    -0.273 N 
ATOM     14  C   UNL     1      -9.000  -3.013   3.147  0.00  0.00    +0.213 C 
ATOM     15  O   UNL     1      -8.949  -3.757   4.103  0.00  0.00    -0.276 OA
ATOM     16  C   UNL     1     -10.266  -2.250   2.853  0.00  0.00    +0.109 C 
ATOM     17  H   UNL     1      -5.259  -3.583  -1.531  0.00  0.00    +0.167 HD
ENDBRANCH   3   5
BRANCH   1  18
ATOM     18  C   UNL     1      -1.181  -4.806  -1.923  0.00  0.00    +0.154 C 
BRANCH  18  24
ATOM     19  C   UNL     1      -1.013   1.438   1.245  0.00  0.00    +0.044 C 
ATOM     20  C   UNL     1      -0.777  -0.027   0.981  0.00  0.00    -0.045 A 
ATOM     21  C   UNL     1      -0.654  -0.442  -0.296  0.00  0.00    +0.031 A 
ATOM     22  C   UNL     1      -0.423  -1.866  -0.575  0.00  0.00    +0.060 A 
ATOM     23  N   UNL     1      -0.269  -2.537  -1.680  0.00  0.00    -0.362 N 
ATOM     24  C   UNL     1      -0.071  -3.946  -1.315  0.00  0.00    +0.192 C 
ATOM     25  N   UNL     1      -0.131  -4.007   0.150  0.00  0.00    -0.362 N 
ATOM     26  C   UNL     1      -0.336  -2.796   0.583  0.00  0.00    +0.060 A 
ATOM     27  C   UNL     1      -0.486  -2.229   1.931  0.00  0.00    +0.031 A 
ATOM     28  C   UNL     1      -0.690  -0.905   2.076  0.00  0.00    -0.045 A 
ATOM     29  C   UNL     1      -0.836  -0.343   3.467  0.00  0.00    +0.044 C 
ATOM     30  H   UNL     1      -0.282  -2.174  -2.579  0.00  0.00    +0.162 HD
ATOM     31  H   UNL     1      -0.035  -4.803   0.696  0.00  0.00    +0.162 HD
ENDBRANCH  18  24
ENDBRANCH   1  18
TORSDOF 3
