REMARK  Name = ZINC07550937
REMARK  7 active torsions:
REMARK  status: ('A' for Active; 'I' for Inactive)
REMARK    1  A    between atoms: C_1  and  C_2
REMARK    2  A    between atoms: C_3  and  C_21
REMARK    3  A    between atoms: C_4  and  C_13
REMARK    4  A    between atoms: N_9  and  C_10
REMARK    5  A    between atoms: C_10  and  C_11
REMARK    6  A    between atoms: C_21  and  O_23
REMARK    7  A    between atoms: O_23  and  C_24
REMARK                            x       y       z     vdW  Elec       q    Type
REMARK                         _______ _______ _______ _____ _____    ______ ____
ROOT
ATOM      1  C   UNL     1      -3.808   5.205  -3.329  0.00  0.00    +0.061 C 
ATOM      2  C   UNL     1      -3.295   5.146  -1.913  0.00  0.00    +0.024 C 
ATOM      3  C   UNL     1      -3.225   3.954  -1.281  0.00  0.00    +0.078 C 
ATOM      4  C   UNL     1      -2.704   3.940   0.142  0.00  0.00    +0.145 C 
ATOM      5  N   UNL     1      -2.314   5.236   0.722  0.00  0.00    -0.288 N 
ATOM      6  C   UNL     1      -2.443   6.343  -0.035  0.00  0.00    +0.307 C 
ATOM      7  O   UNL     1      -2.125   7.418   0.435  0.00  0.00    -0.252 OA
ATOM      8  N   UNL     1      -2.910   6.298  -1.290  0.00  0.00    -0.255 N 
ATOM      9  H   UNL     1      -1.974   5.293   1.628  0.00  0.00    +0.151 HD
ENDROOT
BRANCH   4  10
ATOM     10  C   UNL     1      -1.503   3.031   0.188  0.00  0.00    -0.004 A 
ATOM     11  C   UNL     1      -0.837   2.706  -0.980  0.00  0.00    +0.008 A 
ATOM     12  C   UNL     1       0.265   1.873  -0.938  0.00  0.00    +0.020 A 
ATOM     13  C   UNL     1       0.703   1.364   0.272  0.00  0.00    +0.042 A 
ATOM     14  C   UNL     1       0.036   1.688   1.440  0.00  0.00    +0.040 A 
ATOM     15  C   UNL     1      -1.070   2.517   1.397  0.00  0.00    +0.048 A 
ATOM     16 CL   UNL     1      -1.912   2.918   2.861  0.00  0.00    -0.083 Cl
ATOM     17 CL   UNL     1       2.088   0.318   0.324  0.00  0.00    -0.083 Cl
ENDBRANCH   4  10
BRANCH   3  18
ATOM     18  C   UNL     1      -3.623   2.760  -1.926  0.00  0.00    +0.339 C 
ATOM     19  O   UNL     1      -3.937   2.779  -3.101  0.00  0.00    -0.245 OA
BRANCH  18  20
ATOM     20  O   UNL     1      -3.655   1.600  -1.237  0.00  0.00    -0.465 OA
ATOM     21  C   UNL     1      -3.957   0.415  -1.977  0.00  0.00    +0.280 C 
ENDBRANCH  18  20
ENDBRANCH   3  18
BRANCH   8  22
ATOM     22  C   UNL     1      -3.013   7.555  -2.035  0.00  0.00    +0.141 C 
BRANCH  22  23
ATOM     23  C   UNL     1      -4.394   8.132  -1.859  0.00  0.00    -0.015 C 
ATOM     24  C   UNL     1      -4.541   9.354  -1.412  0.00  0.00    +0.005 C 
ENDBRANCH  22  23
ENDBRANCH   8  22
TORSDOF 5
