REMARK  Name = ZINC39468306
REMARK  8 active torsions:
REMARK  status: ('A' for Active; 'I' for Inactive)
REMARK    1  A    between atoms: C_1  and  C_2
REMARK    2  A    between atoms: C_2  and  C_3
REMARK    3  A    between atoms: C_2  and  S_4
REMARK    4  A    between atoms: S_4  and  C_7
REMARK    5  A    between atoms: C_19  and  C_20
REMARK    6  A    between atoms: C_25  and  O_26
REMARK    7  A    between atoms: P_29  and  S_32
REMARK    8  A    between atoms: S_32  and  C_33
REMARK                            x       y       z     vdW  Elec       q    Type
REMARK                         _______ _______ _______ _____ _____    ______ ____
ROOT
ATOM      1  C   UNL     1      -0.629   0.011   2.579  0.00  0.00    +0.092 C 
ATOM      2  C   UNL     1      -1.204  -0.614   3.604  0.00  0.00    +0.006 C 
ATOM      3  C   UNL     1      -1.520   0.166   4.850  0.00  0.00    +0.036 C 
ATOM      4  C   UNL     1      -1.637  -0.746   6.066  0.00  0.00    +0.111 C 
ATOM      5  N   UNL     1      -1.973   0.053   7.258  0.00  0.00    -0.229 NA
ATOM      6  C   UNL     1      -0.979   1.090   7.541  0.00  0.00    +0.100 C 
ATOM      7  C   UNL     1      -0.776   2.006   6.327  0.00  0.00    +0.031 C 
ATOM      8  C   UNL     1      -0.387   1.165   5.115  0.00  0.00    +0.022 C 
ATOM      9  C   UNL     1      -0.198   2.023   3.894  0.00  0.00    -0.012 C 
ATOM     10  C   UNL     1      -0.319   1.454   2.682  0.00  0.00    +0.006 C 
ATOM     11  C   UNL     1      -1.423   1.992   8.700  0.00  0.00    +0.190 C 
ATOM     12  O   UNL     1      -1.581   1.201   9.891  0.00  0.00    -0.307 OA
ATOM     13  P   UNL     1      -2.486  -0.147   9.794  0.00  0.00    +0.341 P 
ATOM     14  O   UNL     1      -3.924   0.195   9.864  0.00  0.00    -0.259 OA
ATOM     15  N   UNL     1      -2.111  -0.821   8.318  0.00  0.00    -0.171 NA
ATOM     16  H   UNL     1      -2.008  -1.778   8.198  0.00  0.00    +0.152 HD
ENDROOT
BRANCH  10  17
ATOM     17  C   UNL     1      -0.146   2.270   1.456  0.00  0.00    +0.025 A 
ATOM     18  C   UNL     1       1.129   2.644   1.038  0.00  0.00    +0.012 A 
ATOM     19  C   UNL     1       1.284   3.403  -0.104  0.00  0.00    +0.001 A 
ATOM     20  C   UNL     1       0.177   3.795  -0.836  0.00  0.00    +0.004 A 
ATOM     21  C   UNL     1      -1.093   3.430  -0.430  0.00  0.00    +0.046 A 
ATOM     22  C   UNL     1      -1.263   2.662   0.711  0.00  0.00    +0.125 A 
BRANCH  22  23
ATOM     23  O   UNL     1      -2.510   2.298   1.108  0.00  0.00    -0.506 OA
ATOM     24  H   UNL     1      -2.933   2.930   1.705  0.00  0.00    +0.292 HD
ENDBRANCH  22  23
ENDBRANCH  10  17
BRANCH   1  25
ATOM     25  S   UNL     1      -0.234  -0.878   1.110  0.00  0.00    -0.001 S 
ATOM     26  O   UNL     1      -0.746  -0.078   0.053  0.00  0.00    -0.169 OA
ATOM     27  O   UNL     1      -0.734  -2.189   1.333  0.00  0.00    -0.169 OA
BRANCH  25  29
ATOM     28  C   UNL     1       2.118  -1.652   2.273  0.00  0.00    +0.032 C 
ATOM     29  C   UNL     1       1.579  -0.902   1.053  0.00  0.00    +0.130 C 
ATOM     30  C   UNL     1       2.040  -1.607  -0.224  0.00  0.00    +0.032 C 
ENDBRANCH  25  29
ENDBRANCH   1  25
BRANCH  13  31
ATOM     31  S   UNL     1      -1.975  -1.488  11.355  0.00  0.00    -0.056 S 
ATOM     32  C   UNL     1      -2.321  -0.552  12.869  0.00  0.00    +0.096 C 
ENDBRANCH  13  31
TORSDOF 5
