REMARK  Name = ZINC30343323
REMARK  7 active torsions:
REMARK  status: ('A' for Active; 'I' for Inactive)
REMARK    1  A    between atoms: C_1  and  C_2
REMARK    2  A    between atoms: C_2  and  C_4
REMARK    3  A    between atoms: C_2  and  N_12
REMARK    4  A    between atoms: C_13  and  C_15
REMARK    5  A    between atoms: C_15  and  N_16
REMARK    6  A    between atoms: C_19  and  C_23
REMARK    7  A    between atoms: C_19  and  C_24
REMARK                            x       y       z     vdW  Elec       q    Type
REMARK                         _______ _______ _______ _____ _____    ______ ____
ROOT
ATOM      1  C   UNL     1       3.805  -4.309  -1.897  0.00  0.00    +0.213 C 
ENDROOT
BRANCH   1   2
ATOM      2  N   UNL     1       3.581  -5.599  -2.554  0.00  0.00    -0.215 N 
ATOM      3  C   UNL     1       3.209  -5.738  -3.841  0.00  0.00    +0.254 C 
ATOM      4  O   UNL     1       3.003  -4.853  -4.644  0.00  0.00    -0.272 OA
ATOM      5  C   UNL     1       3.100  -7.232  -4.077  0.00  0.00    +0.168 C 
ATOM      6  N   UNL     1       3.456  -7.815  -2.772  0.00  0.00    -0.279 N 
ATOM      7  C   UNL     1       3.725  -6.785  -1.951  0.00  0.00    +0.310 C 
ATOM      8  O   UNL     1       4.059  -6.916  -0.789  0.00  0.00    -0.252 OA
ATOM      9  C   UNL     1       1.669  -7.613  -4.464  0.00  0.00    +0.050 C 
ATOM     10  H   UNL     1       3.460  -8.907  -2.641  0.00  0.00    +0.152 HD
BRANCH   5  11
ATOM     11  C   UNL     1       4.071  -7.673  -5.142  0.00  0.00    +0.137 A 
ATOM     12  C   UNL     1       4.659  -8.880  -5.219  0.00  0.00    +0.047 A 
ATOM     13  C   UNL     1       5.484  -8.861  -6.367  0.00  0.00    +0.041 A 
ATOM     14  C   UNL     1       5.357  -7.641  -6.918  0.00  0.00    +0.195 A 
ATOM     15  O   UNL     1       4.499  -6.925  -6.172  0.00  0.00    -0.465 OA
ENDBRANCH   5  11
ENDBRANCH   1   2
BRANCH   1  17
ATOM     16  N   UNL     1       2.483  -2.654  -0.620  0.00  0.00    -0.307 N 
ATOM     17  C   UNL     1       2.517  -3.828  -1.281  0.00  0.00    +0.231 C 
ATOM     18  O   UNL     1       1.510  -4.496  -1.381  0.00  0.00    -0.274 OA
ATOM     19  H   UNL     1       3.396  -2.047  -0.529  0.00  0.00    +0.149 HD
BRANCH  16  21
ATOM     20  C   UNL     1       1.092  -2.763   1.389  0.00  0.00    +0.033 C 
ATOM     21  C   UNL     1       1.230  -2.186  -0.021  0.00  0.00    +0.102 C 
BRANCH  21  22
ATOM     22  C   UNL     1       1.239  -0.681   0.050  0.00  0.00    -0.009 A 
ATOM     23  C   UNL     1       2.439   0.000   0.137  0.00  0.00    +0.008 A 
ATOM     24  C   UNL     1       2.448   1.380   0.202  0.00  0.00    +0.020 A 
ATOM     25  C   UNL     1       1.256   2.082   0.181  0.00  0.00    +0.042 A 
ATOM     26  C   UNL     1       0.055   1.402   0.093  0.00  0.00    +0.040 A 
ATOM     27  C   UNL     1       0.046   0.020   0.028  0.00  0.00    +0.047 A 
ATOM     28 CL   UNL     1      -1.461  -0.835  -0.083  0.00  0.00    -0.083 Cl
ATOM     29 CL   UNL     1       1.267   3.816   0.263  0.00  0.00    -0.083 Cl
ENDBRANCH  21  22
ENDBRANCH  16  21
ENDBRANCH   1  17
TORSDOF 5
