REMARK  Name = ZINC43221443
REMARK  11 active torsions:
REMARK  status: ('A' for Active; 'I' for Inactive)
REMARK    1  A    between atoms: C_1  and  C_2
REMARK    2  A    between atoms: C_2  and  C_3
REMARK    3  A    between atoms: C_7  and  C_35
REMARK    4  A    between atoms: C_8  and  N_9
REMARK    5  A    between atoms: C_14  and  C_26
REMARK    6  A    between atoms: C_17  and  C_22
REMARK    7  A    between atoms: C_17  and  C_23
REMARK    8  A    between atoms: C_28  and  C_34
REMARK    9  A    between atoms: C_29  and  O_33
REMARK   10  A    between atoms: C_30  and  C_32
REMARK   11  A    between atoms: C_35  and  C_36
REMARK                            x       y       z     vdW  Elec       q    Type
REMARK                         _______ _______ _______ _____ _____    ______ ____
ROOT
ATOM      1  N   UNL     1      -1.324  -1.009   2.114  0.00  0.00    -0.209 N 
ATOM      2  C   UNL     1      -1.529   0.315   2.416  0.00  0.00    +0.229 C 
ATOM      3  O   UNL     1      -0.731   1.224   2.340  0.00  0.00    -0.275 OA
ATOM      4  C   UNL     1      -2.907   0.382   2.843  0.00  0.00    +0.077 C 
ATOM      5  C   UNL     1      -3.983   1.365   3.030  0.00  0.00    -0.027 C 
ATOM      6  N   UNL     1      -5.236   0.541   3.063  0.00  0.00    +0.395 N 
ATOM      7  C   UNL     1      -4.851  -0.877   2.770  0.00  0.00    +0.045 C 
ATOM      8  C   UNL     1      -3.585  -0.696   1.906  0.00  0.00    +0.086 C 
ATOM      9  C   UNL     1      -2.488  -1.718   2.028  0.00  0.00    +0.229 C 
ATOM     10  O   UNL     1      -2.613  -2.924   2.048  0.00  0.00    -0.275 OA
ATOM     11  C   UNL     1      -4.551  -1.636   4.064  0.00  0.00    +0.002 C 
ATOM     12  H   UNL     1      -5.660   0.599   3.977  0.00  0.00    -0.083 HD
ATOM     13  H   UNL     1      -5.882   0.873   2.362  0.00  0.00    -0.083 HD
ENDROOT
BRANCH   5  14
ATOM     14  C   UNL     1      -4.017   2.335   1.877  0.00  0.00    -0.060 A 
ATOM     15  C   UNL     1      -4.624   1.973   0.689  0.00  0.00    +0.009 A 
ATOM     16  C   UNL     1      -4.656   2.860  -0.370  0.00  0.00    -0.009 A 
ATOM     17  C   UNL     1      -4.078   4.114  -0.240  0.00  0.00    +0.123 A 
ATOM     18  C   UNL     1      -3.470   4.475   0.953  0.00  0.00    -0.009 A 
ATOM     19  C   UNL     1      -3.445   3.587   2.011  0.00  0.00    +0.009 A 
ATOM     20  C   UNL     1      -2.841   5.837   1.097  0.00  0.00    +0.047 C 
ATOM     21  C   UNL     1      -5.317   2.464  -1.665  0.00  0.00    +0.047 C 
BRANCH  17  22
ATOM     22  O   UNL     1      -4.108   4.988  -1.281  0.00  0.00    -0.506 OA
ATOM     23  H   UNL     1      -4.885   5.564  -1.288  0.00  0.00    +0.292 HD
ENDBRANCH  17  22
ENDBRANCH   5  14
BRANCH   1  29
ATOM     24  C   UNL     1       0.501  -1.590   0.639  0.00  0.00    -0.026 A 
ATOM     25  C   UNL     1       1.753  -2.139   0.443  0.00  0.00    +0.005 A 
ATOM     26  C   UNL     1       2.449  -2.676   1.510  0.00  0.00    +0.001 A 
ATOM     27  C   UNL     1       1.894  -2.665   2.777  0.00  0.00    +0.005 A 
ATOM     28  C   UNL     1       0.643  -2.116   2.980  0.00  0.00    -0.026 A 
ATOM     29  C   UNL     1      -0.056  -1.571   1.911  0.00  0.00    +0.050 A 
BRANCH  24  31
ATOM     30  C   UNL     1      -0.001   0.502  -0.594  0.00  0.00    +0.009 C 
ATOM     31  C   UNL     1      -0.257  -1.004  -0.524  0.00  0.00    +0.033 C 
ENDBRANCH  24  31
BRANCH  28  32
ATOM     32  C   UNL     1       0.040  -2.103   4.361  0.00  0.00    +0.033 C 
ATOM     33  C   UNL     1      -0.869  -3.322   4.531  0.00  0.00    +0.009 C 
ENDBRANCH  28  32
ENDBRANCH   1  29
BRANCH   7  34
ATOM     34  C   UNL     1      -5.931  -1.572   1.980  0.00  0.00    +0.346 C 
ATOM     35  O   UNL     1      -6.956  -0.976   1.695  0.00  0.00    -0.248 OA
ATOM     36  O   UNL     1      -5.780  -2.729   1.627  0.00  0.00    -0.248 OA
ENDBRANCH   7  34
TORSDOF 6
