REMARK  Name = ZINC47871854
REMARK  7 active torsions:
REMARK  status: ('A' for Active; 'I' for Inactive)
REMARK    1  A    between atoms: C_6  and  C_10
REMARK    2  A    between atoms: C_10  and  C_11
REMARK    3  A    between atoms: C_11  and  N_12
REMARK    4  A    between atoms: N_15  and  C_16
REMARK    5  A    between atoms: C_16  and  C_17
REMARK    6  A    between atoms: C_17  and  C_19
REMARK    7  A    between atoms: C_17  and  N_24
REMARK                            x       y       z     vdW  Elec       q    Type
REMARK                         _______ _______ _______ _____ _____    ______ ____
ROOT
ATOM      1  N   UNL     1       3.983  -5.532   1.057  0.00  0.00    -0.299 N 
ATOM      2  C   UNL     1       3.672  -6.484   1.959  0.00  0.00    +0.300 C 
ATOM      3  O   UNL     1       2.745  -6.314   2.727  0.00  0.00    -0.253 OA
ATOM      4  N   UNL     1       4.389  -7.623   2.010  0.00  0.00    -0.301 N 
ATOM      5  H   UNL     1       4.722  -5.667   0.444  0.00  0.00    +0.150 HD
ATOM      6  H   UNL     1       5.129  -7.759   1.397  0.00  0.00    +0.150 HD
ENDROOT
BRANCH   1   7
ATOM      7  C   UNL     1       3.203  -4.293   1.001  0.00  0.00    +0.112 C 
BRANCH   7   8
ATOM      8  C   UNL     1       3.758  -3.390  -0.102  0.00  0.00    +0.076 C 
BRANCH   8  14
ATOM      9  C   UNL     1      -0.049   1.231  -0.414  0.00  0.00    +0.005 A 
ATOM     10  C   UNL     1       1.128   1.983  -0.261  0.00  0.00    +0.018 A 
ATOM     11  C   UNL     1       2.321   1.364  -0.141  0.00  0.00    +0.092 A 
ATOM     12  N   UNL     1       2.403   0.002  -0.167  0.00  0.00    -0.306 N 
ATOM     13  C   UNL     1       3.458  -0.864  -0.070  0.00  0.00    +0.116 A 
ATOM     14  C   UNL     1       2.956  -2.115  -0.159  0.00  0.00    +0.062 A 
ATOM     15  N   UNL     1       1.632  -2.034  -0.307  0.00  0.00    -0.233 NA
ATOM     16  C   UNL     1       1.272  -0.759  -0.315  0.00  0.00    +0.138 A 
ATOM     17  C   UNL     1       0.018  -0.127  -0.441  0.00  0.00    +0.047 A 
ENDBRANCH   8  14
ENDBRANCH   7   8
ENDBRANCH   1   7
BRANCH   4  18
ATOM     18  C   UNL     1       4.052  -8.658   2.991  0.00  0.00    +0.098 C 
BRANCH  18  19
ATOM     19  C   UNL     1       4.945  -9.880   2.771  0.00  0.00    +0.016 C 
BRANCH  19  20
ATOM     20  N   UNL     1       4.519 -10.966   3.664  0.00  0.00    +0.387 N 
ATOM     21  C   UNL     1       3.134 -11.388   3.333  0.00  0.00    -0.078 C 
ATOM     22  C   UNL     1       3.051 -12.821   3.917  0.00  0.00    -0.020 C 
ATOM     23  C   UNL     1       4.459 -13.393   3.630  0.00  0.00    -0.020 C 
ATOM     24  C   UNL     1       5.365 -12.160   3.456  0.00  0.00    -0.078 C 
ATOM     25  H   UNL     1       4.572 -10.666   4.626  0.00  0.00    -0.081 HD
ENDBRANCH  19  20
BRANCH  19  26
ATOM     26  C   UNL     1       6.377  -9.517   3.069  0.00  0.00    +0.093 A 
ATOM     27  C   UNL     1       7.317  -9.211   2.157  0.00  0.00    +0.043 A 
ATOM     28  C   UNL     1       8.506  -8.937   2.871  0.00  0.00    +0.041 A 
ATOM     29  C   UNL     1       8.222  -9.092   4.177  0.00  0.00    +0.195 A 
ATOM     30  O   UNL     1       6.929  -9.438   4.291  0.00  0.00    -0.469 OA
ENDBRANCH  19  26
ENDBRANCH  18  19
ENDBRANCH   4  18
TORSDOF 7
