REMARK  Name = ZINC61619677
REMARK  6 active torsions:
REMARK  status: ('A' for Active; 'I' for Inactive)
REMARK    1  A    between atoms: C_1  and  C_2
REMARK    2  A    between atoms: C_3  and  C_13
REMARK    3  A    between atoms: N_15  and  C_16
REMARK    4  A    between atoms: N_15  and  C_17
REMARK    5  A    between atoms: N_20  and  C_23
REMARK    6  A    between atoms: C_26  and  C_29
REMARK                            x       y       z     vdW  Elec       q    Type
REMARK                         _______ _______ _______ _____ _____    ______ ____
ROOT
ATOM      1  C   UNL     1      -2.509  -0.379   0.012  0.00  0.00    +0.251 C 
ATOM      2  O   UNL     1      -3.096  -0.197  -1.037  0.00  0.00    -0.270 OA
ATOM      3  N   UNL     1      -3.148  -0.190   1.184  0.00  0.00    -0.298 N 
ATOM      4  C   UNL     1      -2.441  -0.408   2.448  0.00  0.00    +0.132 C 
ENDROOT
BRANCH   1   7
ATOM      5  C   UNL     1      -0.018   1.503   0.010  0.00  0.00    +0.087 C 
ATOM      6  C   UNL     1       0.002  -0.004   0.002  0.00  0.00    +0.117 A 
ATOM      7  C   UNL     1      -1.100  -0.804   0.003  0.00  0.00    +0.092 A 
ATOM      8  C   UNL     1      -0.586  -2.183  -0.007  0.00  0.00    +0.116 A 
ATOM      9  C   UNL     1      -1.173  -3.467  -0.011  0.00  0.00    +0.263 A 
ATOM     10  O   UNL     1      -2.384  -3.603  -0.007  0.00  0.00    -0.267 OA
ATOM     11  N   UNL     1      -0.351  -4.542  -0.021  0.00  0.00    -0.313 N 
ATOM     12  H   UNL     1      -0.724  -5.437  -0.024  0.00  0.00    +0.170 HD
ATOM     13  C   UNL     1       0.994  -4.369  -0.026  0.00  0.00    +0.203 A 
ATOM     14  N   UNL     1       1.546  -3.188  -0.022  0.00  0.00    -0.202 NA
ATOM     15  C   UNL     1       0.804  -2.070  -0.013  0.00  0.00    +0.235 A 
ATOM     16  O   UNL     1       1.107  -0.761  -0.013  0.00  0.00    -0.441 OA
ENDBRANCH   1   7
BRANCH   3  17
ATOM     17  C   UNL     1      -4.551   0.234   1.193  0.00  0.00    +0.073 C 
ATOM     18  C   UNL     1      -4.678   1.569   1.931  0.00  0.00    +0.004 C 
ATOM     19  C   UNL     1      -6.153   1.966   2.006  0.00  0.00    -0.077 C 
ATOM     20  N   UNL     1      -6.905   0.933   2.729  0.00  0.00    +0.382 N 
ATOM     21  C   UNL     1      -6.848  -0.334   1.989  0.00  0.00    -0.077 C 
ATOM     22  C   UNL     1      -5.399  -0.819   1.913  0.00  0.00    +0.004 C 
ATOM     23  H   UNL     1      -6.503   0.805   3.645  0.00  0.00    -0.081 HD
BRANCH  20  24
ATOM     24  C   UNL     1      -8.306   1.355   2.866  0.00  0.00    -0.069 C 
ATOM     25  C   UNL     1      -8.368   2.670   3.645  0.00  0.00    -0.015 C 
ATOM     26  C   UNL     1      -9.826   3.110   3.788  0.00  0.00    +0.002 C 
ATOM     27  C   UNL     1     -10.611   2.034   4.541  0.00  0.00    -0.014 C 
ATOM     28  C   UNL     1     -10.549   0.718   3.763  0.00  0.00    +0.002 C 
ATOM     29  C   UNL     1      -9.091   0.279   3.619  0.00  0.00    -0.015 C 
ATOM     30  C   UNL     1     -12.070   2.473   4.684  0.00  0.00    +0.007 C 
ENDBRANCH  20  24
ENDBRANCH   3  17
TORSDOF 3
