REMARK  Name = ZINC15967815
REMARK  8 active torsions:
REMARK  status: ('A' for Active; 'I' for Inactive)
REMARK    1  A    between atoms: C_1  and  C_2
REMARK    2  A    between atoms: C_2  and  C_3
REMARK    3  A    between atoms: C_14  and  C_17
REMARK    4  A    between atoms: C_17  and  C_18
REMARK    5  A    between atoms: C_21  and  O_25
REMARK    6  A    between atoms: C_22  and  O_24
REMARK    7  A    between atoms: N_28  and  C_31
REMARK    8  A    between atoms: C_31  and  C_32
REMARK                            x       y       z     vdW  Elec       q    Type
REMARK                         _______ _______ _______ _____ _____    ______ ____
ROOT
ATOM      1  C   UNL     1      -1.412  -0.526   0.013  0.00  0.00    -0.047 A 
ATOM      2  C   UNL     1      -2.053  -0.767   1.214  0.00  0.00    +0.005 A 
ATOM      3  C   UNL     1      -3.346  -1.244   1.230  0.00  0.00    +0.024 A 
ATOM      4  C   UNL     1      -4.018  -1.488   0.034  0.00  0.00    +0.039 A 
ATOM      5  C   UNL     1      -3.363  -1.242  -1.169  0.00  0.00    +0.004 A 
ATOM      6  C   UNL     1      -2.074  -0.759  -1.180  0.00  0.00    +0.011 A 
ATOM      7  C   UNL     1      -4.343  -1.601  -2.250  0.00  0.00    +0.136 C 
ATOM      8  C   UNL     1      -4.640  -0.405  -3.163  0.00  0.00    +0.122 C 
ATOM      9  C   UNL     1      -4.826  -1.028  -4.574  0.00  0.00    +0.107 C 
ATOM     10  C   UNL     1      -4.649  -2.547  -4.364  0.00  0.00    +0.072 C 
ATOM     11  N   UNL     1      -3.815  -2.660  -3.130  0.00  0.00    -0.295 NA
ATOM     12  C   UNL     1      -3.655  -0.477  -5.356  0.00  0.00    +0.227 C 
ATOM     13  O   UNL     1      -3.412  -0.723  -6.518  0.00  0.00    -0.275 OA
ATOM     14  N   UNL     1      -2.931   0.323  -4.566  0.00  0.00    -0.237 N 
ATOM     15  C   UNL     1      -3.399   0.448  -3.303  0.00  0.00    +0.229 C 
ATOM     16  O   UNL     1      -2.912   1.125  -2.424  0.00  0.00    -0.275 OA
ATOM     17  C   UNL     1      -5.578  -2.057  -1.523  0.00  0.00    +0.243 C 
ATOM     18  O   UNL     1      -6.616  -2.436  -2.025  0.00  0.00    -0.273 OA
ATOM     19  N   UNL     1      -5.309  -1.964  -0.206  0.00  0.00    -0.283 N 
ATOM     20  H   UNL     1      -2.837  -2.511  -3.328  0.00  0.00    +0.124 HD
ATOM     21  H   UNL     1      -5.938  -2.199   0.493  0.00  0.00    +0.155 HD
ENDROOT
BRANCH   1  23
ATOM     22  C   UNL     1      -0.019   1.526   0.010  0.00  0.00    +0.009 C 
ATOM     23  C   UNL     1       0.002  -0.004   0.002  0.00  0.00    +0.032 C 
ENDBRANCH   1  23
BRANCH  10  24
ATOM     24  C   UNL     1      -3.906  -3.165  -5.550  0.00  0.00    +0.054 C 
BRANCH  24  25
ATOM     25  C   UNL     1      -3.852  -4.662  -5.384  0.00  0.00    -0.042 A 
ATOM     26  C   UNL     1      -2.794  -5.243  -4.709  0.00  0.00    +0.007 A 
ATOM     27  C   UNL     1      -2.740  -6.615  -4.553  0.00  0.00    +0.049 A 
ATOM     28  C   UNL     1      -3.747  -7.412  -5.074  0.00  0.00    +0.158 A 
ATOM     29  C   UNL     1      -4.811  -6.827  -5.753  0.00  0.00    +0.158 A 
ATOM     30  C   UNL     1      -4.862  -5.451  -5.901  0.00  0.00    +0.052 A 
BRANCH  29  31
ATOM     31  O   UNL     1      -5.802  -7.605  -6.266  0.00  0.00    -0.503 OA
ATOM     32  H   UNL     1      -6.535  -7.762  -5.655  0.00  0.00    +0.292 HD
ENDBRANCH  29  31
BRANCH  28  33
ATOM     33  O   UNL     1      -3.694  -8.762  -4.922  0.00  0.00    -0.503 OA
ATOM     34  H   UNL     1      -4.125  -9.085  -4.119  0.00  0.00    +0.292 HD
ENDBRANCH  28  33
ENDBRANCH  24  25
ENDBRANCH  10  24
BRANCH  14  35
ATOM     35  C   UNL     1      -1.728   1.017  -5.032  0.00  0.00    +0.151 C 
BRANCH  35  36
ATOM     36  C   UNL     1      -2.108   2.365  -5.588  0.00  0.00    -0.030 A 
ATOM     37  C   UNL     1      -2.428   2.496  -6.927  0.00  0.00    +0.005 A 
ATOM     38  C   UNL     1      -2.777   3.732  -7.436  0.00  0.00    +0.000 A 
ATOM     39  C   UNL     1      -2.808   4.838  -6.608  0.00  0.00    +0.000 A 
ATOM     40  C   UNL     1      -2.489   4.707  -5.269  0.00  0.00    +0.000 A 
ATOM     41  C   UNL     1      -2.144   3.470  -4.758  0.00  0.00    +0.005 A 
ENDBRANCH  35  36
ENDBRANCH  14  35
TORSDOF 7
