REMARK  Name = ZINC04316238
REMARK  10 active torsions:
REMARK  status: ('A' for Active; 'I' for Inactive)
REMARK    1  A    between atoms: C_1  and  C_2
REMARK    2  A    between atoms: C_6  and  C_29
REMARK    3  A    between atoms: C_7  and  N_8
REMARK    4  A    between atoms: C_9  and  C_11
REMARK    5  A    between atoms: C_11  and  N_12
REMARK    6  A    between atoms: C_13  and  N_28
REMARK    7  A    between atoms: C_14  and  C_17
REMARK    8  A    between atoms: N_19  and  C_20
REMARK    9  A    between atoms: C_20  and  C_21
REMARK   10  A    between atoms: C_21  and  C_22
REMARK                            x       y       z     vdW  Elec       q    Type
REMARK                         _______ _______ _______ _____ _____    ______ ____
ROOT
ATOM      1  N   UNL     1       2.231  -0.233   7.508  0.00  0.00    -0.222 N 
ATOM      2  C   UNL     1       1.835  -0.229   6.213  0.00  0.00    +0.148 A 
ATOM      3  C   UNL     1       2.906  -0.715   5.475  0.00  0.00    +0.188 A 
ATOM      4  N   UNL     1       3.906  -1.002   6.329  0.00  0.00    -0.123 NA
ATOM      5  N   UNL     1       3.543  -0.724   7.532  0.00  0.00    -0.063 NA
ENDROOT
BRANCH   3   6
ATOM      6  C   UNL     1       2.940  -0.890   4.018  0.00  0.00    +0.268 C 
ATOM      7  O   UNL     1       1.968  -0.599   3.347  0.00  0.00    -0.268 OA
ATOM      8  N   UNL     1       4.049  -1.374   3.423  0.00  0.00    -0.310 N 
ATOM      9  H   UNL     1       4.824  -1.607   3.957  0.00  0.00    +0.149 HD
BRANCH   8  10
ATOM     10  C   UNL     1       4.082  -1.550   1.969  0.00  0.00    +0.109 C 
BRANCH  10  11
ATOM     11  C   UNL     1       5.445  -2.109   1.554  0.00  0.00    +0.054 C 
BRANCH  11  12
ATOM     12  C   UNL     1       5.480  -2.290   0.058  0.00  0.00    -0.046 A 
ATOM     13  C   UNL     1       5.081  -3.489  -0.503  0.00  0.00    +0.004 A 
ATOM     14  C   UNL     1       5.109  -3.652  -1.875  0.00  0.00    +0.000 A 
ATOM     15  C   UNL     1       5.544  -2.621  -2.686  0.00  0.00    +0.000 A 
ATOM     16  C   UNL     1       5.947  -1.424  -2.124  0.00  0.00    +0.000 A 
ATOM     17  C   UNL     1       5.915  -1.258  -0.752  0.00  0.00    +0.004 A 
ENDBRANCH  11  12
ENDBRANCH  10  11
ENDBRANCH   8  10
ENDBRANCH   3   6
BRANCH   2  18
ATOM     18  N   UNL     1       0.611   0.178   5.724  0.00  0.00    -0.341 N 
ATOM     19  H   UNL     1       0.432   0.139   4.772  0.00  0.00    +0.144 HD
ATOM     20  H   UNL     1      -0.071   0.503   6.333  0.00  0.00    +0.144 HD
ENDBRANCH   2  18
BRANCH   1  21
ATOM     21  C   UNL     1       1.438   0.195   8.664  0.00  0.00    +0.243 C 
BRANCH  21  23
ATOM     22  N   UNL     1      -0.135  -0.823  10.279  0.00  0.00    -0.284 N 
ATOM     23  C   UNL     1       0.668  -0.981   9.208  0.00  0.00    +0.239 C 
ATOM     24  O   UNL     1       0.772  -2.069   8.682  0.00  0.00    -0.273 OA
ATOM     25  H   UNL     1      -0.177   0.034  10.731  0.00  0.00    +0.155 HD
BRANCH  22  32
ATOM     26  C   UNL     1      -1.797  -2.179   8.409  0.00  0.00    +0.045 C 
ATOM     27  C   UNL     1      -1.732  -2.585   9.859  0.00  0.00    -0.029 A 
ATOM     28  C   UNL     1      -2.490  -3.647  10.314  0.00  0.00    +0.005 A 
ATOM     29  C   UNL     1      -2.435  -4.016  11.645  0.00  0.00    +0.001 A 
ATOM     30  C   UNL     1      -1.619  -3.328  12.524  0.00  0.00    +0.005 A 
ATOM     31  C   UNL     1      -0.855  -2.269  12.074  0.00  0.00    -0.029 A 
ATOM     32  C   UNL     1      -0.907  -1.896  10.738  0.00  0.00    +0.039 A 
ATOM     33  C   UNL     1       0.034  -1.520  13.033  0.00  0.00    +0.045 C 
ENDBRANCH  22  32
ENDBRANCH  21  23
ENDBRANCH   1  21
TORSDOF 8
