REMARK  Name = ZINC62101371
REMARK  5 active torsions:
REMARK  status: ('A' for Active; 'I' for Inactive)
REMARK    1  A    between atoms: C_1  and  C_2
REMARK    2  A    between atoms: C_2  and  C_3
REMARK    3  A    between atoms: C_3  and  C_5
REMARK    4  A    between atoms: C_3  and  C_9
REMARK    5  A    between atoms: N_6  and  O_7
REMARK                            x       y       z     vdW  Elec       q    Type
REMARK                         _______ _______ _______ _____ _____    ______ ____
ROOT
ATOM      1  C   UNL     1       0.114  -0.036   2.398  0.00  0.00    +0.226 C 
ATOM      2  O   UNL     1      -0.138  -0.841   3.269  0.00  0.00    -0.275 OA
ATOM      3  N   UNL     1      -0.195   1.265   2.573  0.00  0.00    -0.299 N 
ATOM      4  C   UNL     1       0.222   2.228   1.556  0.00  0.00    +0.117 C 
ATOM      5  C   UNL     1       1.218   3.220   2.168  0.00  0.00    +0.114 C 
ATOM      6  C   UNL     1       0.446   4.264   2.943  0.00  0.00    +0.215 C 
ATOM      7  O   UNL     1       0.370   5.396   2.517  0.00  0.00    -0.276 OA
ATOM      8  N   UNL     1      -0.153   3.946   4.095  0.00  0.00    -0.314 N 
ATOM      9  C   UNL     1      -0.067   2.582   4.632  0.00  0.00    +0.123 C 
ATOM     10  C   UNL     1      -0.938   1.655   3.768  0.00  0.00    +0.126 C 
ATOM     11  H   UNL     1      -0.649   4.624   4.581  0.00  0.00    +0.149 HD
ENDROOT
BRANCH   1  12
ATOM     12  C   UNL     1       0.771  -0.489   1.120  0.00  0.00    +0.141 C 
BRANCH  12  13
ATOM     13  C   UNL     1       2.266  -0.516   1.306  0.00  0.00    +0.144 C 
ATOM     14  N   UNL     1       2.856  -1.616   1.637  0.00  0.00    -0.076 NA
ATOM     15  N   UNL     1       3.004   0.633   1.123  0.00  0.00    -0.343 N 
ATOM     16  H   UNL     1       2.561   1.459   0.874  0.00  0.00    +0.144 HD
ATOM     17  H   UNL     1       3.966   0.615   1.243  0.00  0.00    +0.144 HD
BRANCH  14  18
ATOM     18  O   UNL     1       4.261  -1.642   1.812  0.00  0.00    -0.408 OA
ATOM     19  H   UNL     1       4.611  -2.509   2.060  0.00  0.00    +0.328 HD
ENDBRANCH  14  18
ENDBRANCH  12  13
BRANCH  12  21
ATOM     20  C   UNL     1      -1.217  -1.837   0.431  0.00  0.00    +0.005 C 
ATOM     21  C   UNL     1       0.276  -1.891   0.761  0.00  0.00    +0.017 C 
ENDBRANCH  12  21
ENDBRANCH   1  12
TORSDOF 4
