REMARK  Name = ZINC43741052
REMARK  10 active torsions:
REMARK  status: ('A' for Active; 'I' for Inactive)
REMARK    1  A    between atoms: C_1  and  C_2
REMARK    2  A    between atoms: C_7  and  C_28
REMARK    3  A    between atoms: C_18  and  C_20
REMARK    4  A    between atoms: C_20  and  N_21
REMARK    5  A    between atoms: N_21  and  C_22
REMARK    6  A    between atoms: C_22  and  C_23
REMARK    7  A    between atoms: C_22  and  C_24
REMARK    8  A    between atoms: C_22  and  C_26
REMARK    9  A    between atoms: C_24  and  O_25
REMARK   10  A    between atoms: C_26  and  O_27
REMARK                            x       y       z     vdW  Elec       q    Type
REMARK                         _______ _______ _______ _____ _____    ______ ____
ROOT
ATOM      1  C   UNL     1      -0.019   1.526   0.010  0.00  0.00    +0.012 C 
ATOM      2  C   UNL     1       0.002  -0.004   0.002  0.00  0.00    +0.012 C 
ATOM      3  C   UNL     1       0.751  -0.514  -1.240  0.00  0.00    +0.007 C 
ATOM      4  C   UNL     1       0.883  -2.035  -1.196  0.00  0.00    +0.001 C 
ATOM      5  C   UNL     1       1.676  -2.483   0.038  0.00  0.00    +0.011 C 
ATOM      6  C   UNL     1       0.928  -2.018   1.281  0.00  0.00    -0.007 C 
ATOM      7  C   UNL     1       0.766  -0.522   1.211  0.00  0.00    -0.064 C 
ATOM      8  C   UNL     1       1.241   0.286   2.092  0.00  0.00    -0.019 C 
ATOM      9  C   UNL     1       2.109  -0.107   3.252  0.00  0.00    +0.064 C 
ATOM     10  C   UNL     1       2.603  -1.557   3.091  0.00  0.00    +0.185 C 
ATOM     11  C   UNL     1       1.535  -2.477   2.582  0.00  0.00    +0.056 C 
ATOM     12  O   UNL     1       3.698  -1.467   2.177  0.00  0.00    -0.461 OA
ATOM     13  C   UNL     1       4.366  -0.322   2.407  0.00  0.00    +0.309 C 
ATOM     14  O   UNL     1       5.517  -0.113   2.104  0.00  0.00    -0.251 OA
ATOM     15  C   UNL     1       3.443   0.681   3.114  0.00  0.00    +0.091 C 
ATOM     16  C   UNL     1      -0.480  -2.611   1.206  0.00  0.00    +0.016 C 
ENDROOT
BRANCH  15  17
ATOM     17  C   UNL     1       3.994   1.049   4.493  0.00  0.00    -0.066 C 
BRANCH  17  18
ATOM     18  N   UNL     1       5.186   1.892   4.335  0.00  0.00    +0.386 N 
ATOM     19  H   UNL     1       5.889   1.387   3.816  0.00  0.00    -0.085 HD
ATOM     20  H   UNL     1       4.940   2.733   3.836  0.00  0.00    -0.085 HD
BRANCH  18  21
ATOM     21  C   UNL     1       5.715   2.245   5.659  0.00  0.00    -0.024 C 
ATOM     22  C   UNL     1       6.090   0.969   6.416  0.00  0.00    -0.006 C 
BRANCH  21  23
ATOM     23  C   UNL     1       6.957   3.123   5.494  0.00  0.00    +0.145 C 
BRANCH  23  24
ATOM     24  O   UNL     1       7.472   3.467   6.782  0.00  0.00    -0.396 OA
ATOM     25  H   UNL     1       8.262   4.024   6.754  0.00  0.00    +0.209 HD
ENDBRANCH  23  24
ENDBRANCH  21  23
BRANCH  21  26
ATOM     26  C   UNL     1       4.650   3.011   6.446  0.00  0.00    +0.145 C 
BRANCH  26  27
ATOM     27  O   UNL     1       4.216   4.141   5.685  0.00  0.00    -0.396 OA
ATOM     28  H   UNL     1       3.539   4.674   6.124  0.00  0.00    +0.209 HD
ENDBRANCH  26  27
ENDBRANCH  21  26
ENDBRANCH  18  21
ENDBRANCH  17  18
ENDBRANCH  15  17
TORSDOF 7
