REMARK  Name = ZINC59165462
REMARK  6 active torsions:
REMARK  status: ('A' for Active; 'I' for Inactive)
REMARK    1  A    between atoms: C_3  and  C_6
REMARK    2  A    between atoms: N_8  and  N_9
REMARK    3  A    between atoms: C_10  and  C_11
REMARK    4  A    between atoms: C_12  and  O_19
REMARK    5  A    between atoms: C_14  and  O_18
REMARK    6  A    between atoms: C_16  and  O_17
REMARK                            x       y       z     vdW  Elec       q    Type
REMARK                         _______ _______ _______ _____ _____    ______ ____
ROOT
ATOM      1  C   UNL     1       8.399   0.665  -0.076  0.00  0.00    +0.078 A 
ATOM      2  C   UNL     1       8.730   2.028  -0.066  0.00  0.00    +0.132 A 
ATOM      3  C   UNL     1      10.059   2.414  -0.077  0.00  0.00    +0.091 A 
ATOM      4  C   UNL     1      11.063   1.456  -0.097  0.00  0.00    +0.124 A 
ATOM      5  C   UNL     1      10.743   0.105  -0.106  0.00  0.00    +0.091 A 
ATOM      6  C   UNL     1       9.419  -0.296  -0.090  0.00  0.00    +0.132 A 
ENDROOT
BRANCH   1   8
ATOM      7  N   UNL     1       6.046   1.141  -0.050  0.00  0.00    -0.187 NA
ATOM      8  C   UNL     1       6.988   0.247  -0.064  0.00  0.00    +0.145 C 
BRANCH   7  11
ATOM      9  C   UNL     1       3.725   1.669  -0.025  0.00  0.00    +0.270 C 
ATOM     10  O   UNL     1       4.008   2.853  -0.022  0.00  0.00    -0.268 OA
ATOM     11  N   UNL     1       4.703   0.742  -0.039  0.00  0.00    -0.203 N 
ATOM     12  H   UNL     1       4.477  -0.201  -0.042  0.00  0.00    +0.178 HD
BRANCH   9  15
ATOM     13  C   UNL     1      -0.016   1.352   0.009  0.00  0.00    +0.008 A 
ATOM     14  C   UNL     1       1.176   2.036   0.002  0.00  0.00    +0.021 A 
ATOM     15  C   UNL     1       2.320   1.252  -0.013  0.00  0.00    +0.075 A 
ATOM     16  S   UNL     1       1.636  -0.394  -0.016  0.00  0.00    -0.092 S 
ATOM     17  C   UNL     1       0.002  -0.004   0.002  0.00  0.00    +0.046 A 
ENDBRANCH   9  15
ENDBRANCH   7  11
ENDBRANCH   1   8
BRANCH   6  18
ATOM     18  O   UNL     1       9.109  -1.618  -0.095  0.00  0.00    -0.506 OA
ATOM     19  H   UNL     1       9.010  -1.996  -0.979  0.00  0.00    +0.292 HD
ENDBRANCH   6  18
BRANCH   4  20
ATOM     20  O   UNL     1      12.365   1.842  -0.107  0.00  0.00    -0.507 OA
ATOM     21  H   UNL     1      12.752   1.946   0.773  0.00  0.00    +0.292 HD
ENDBRANCH   4  20
BRANCH   2  22
ATOM     22  O   UNL     1       7.749   2.967  -0.047  0.00  0.00    -0.506 OA
ATOM     23  H   UNL     1       7.474   3.230   0.842  0.00  0.00    +0.292 HD
ENDBRANCH   2  22
TORSDOF 6
