REMARK  Name = ZINC32740378
REMARK  5 active torsions:
REMARK  status: ('A' for Active; 'I' for Inactive)
REMARK    1  A    between atoms: C_9  and  C_12
REMARK    2  A    between atoms: C_12  and  N_13
REMARK    3  A    between atoms: N_13  and  C_14
REMARK    4  A    between atoms: C_14  and  C_15
REMARK    5  A    between atoms: C_18  and  C_20
REMARK                            x       y       z     vdW  Elec       q    Type
REMARK                         _______ _______ _______ _____ _____    ______ ____
ROOT
ATOM      1  N   UNL     1      -0.606  -5.857   1.362  0.00  0.00    +0.386 N 
ATOM      2  H   UNL     1      -1.092  -5.017   1.880  0.00  0.00    -0.085 HD
ATOM      3  H   UNL     1       0.346  -6.093   1.860  0.00  0.00    -0.085 HD
ENDROOT
BRANCH   1   4
ATOM      4  C   UNL     1      -1.485  -7.033   1.404  0.00  0.00    -0.033 C 
BRANCH   4  13
ATOM      5  C   UNL     1      -4.237  -7.269   7.143  0.00  0.00    +0.004 A 
ATOM      6  C   UNL     1      -4.061  -5.953   6.760  0.00  0.00    +0.004 A 
ATOM      7  C   UNL     1      -3.475  -5.657   5.543  0.00  0.00    +0.049 A 
ATOM      8  C   UNL     1      -3.062  -6.681   4.704  0.00  0.00    +0.162 A 
ATOM      9  C   UNL     1      -3.238  -8.005   5.090  0.00  0.00    +0.162 A 
ATOM     10  C   UNL     1      -3.828  -8.294   6.311  0.00  0.00    +0.049 A 
ATOM     11  O   UNL     1      -2.837  -9.025   4.283  0.00  0.00    -0.485 OA
ATOM     12  C   UNL     1      -2.594  -8.701   2.910  0.00  0.00    +0.271 C 
ATOM     13  C   UNL     1      -1.754  -7.418   2.860  0.00  0.00    +0.194 C 
ATOM     14  O   UNL     1      -2.490  -6.375   3.507  0.00  0.00    -0.484 OA
ENDBRANCH   4  13
ENDBRANCH   1   4
BRANCH   1  15
ATOM     15  C   UNL     1      -0.326  -5.458  -0.024  0.00  0.00    -0.007 C 
BRANCH  15  16
ATOM     16  C   UNL     1       0.577  -4.251  -0.026  0.00  0.00    +0.089 A 
ATOM     17  C   UNL     1       1.923  -4.278  -0.039  0.00  0.00    +0.043 A 
ATOM     18  C   UNL     1       2.363  -2.938  -0.041  0.00  0.00    +0.050 A 
ATOM     19  C   UNL     1       1.248  -2.161  -0.021  0.00  0.00    +0.135 A 
ATOM     20  O   UNL     1       0.172  -2.970  -0.015  0.00  0.00    -0.462 OA
BRANCH  19  21
ATOM     21  C   UNL     1       1.222  -0.683  -0.013  0.00  0.00    +0.017 A 
ATOM     22  C   UNL     1       0.002  -0.004   0.002  0.00  0.00    +0.014 A 
ATOM     23  C   UNL     1      -0.017   1.375   0.010  0.00  0.00    +0.039 A 
ATOM     24  C   UNL     1       1.172   2.087   0.002  0.00  0.00    +0.123 A 
ATOM     25  C   UNL     1       2.386   1.418  -0.013  0.00  0.00    +0.039 A 
ATOM     26  C   UNL     1       2.417   0.039  -0.021  0.00  0.00    +0.014 A 
ATOM     27  F   UNL     1       1.148   3.437   0.009  0.00  0.00    -0.205 F 
ENDBRANCH  19  21
ENDBRANCH  15  16
ENDBRANCH   1  15
TORSDOF 5
