REMARK  Name = ZINC16805095
REMARK  4 active torsions:
REMARK  status: ('A' for Active; 'I' for Inactive)
REMARK    1  A    between atoms: C_6  and  N_7
REMARK    2  A    between atoms: C_8  and  C_10
REMARK    3  A    between atoms: C_10  and  C_11
REMARK    4  A    between atoms: N_17  and  N_18
REMARK                            x       y       z     vdW  Elec       q    Type
REMARK                         _______ _______ _______ _____ _____    ______ ____
ROOT
ATOM      1  C   UNL     1      -2.478  -2.828  -0.204  0.00  0.00    +0.120 C 
ENDROOT
BRANCH   1   2
ATOM      2  C   UNL     1      -2.181  -4.325  -0.316  0.00  0.00    +0.149 C 
ATOM      3  C   UNL     1      -3.461  -5.132  -0.455  0.00  0.00    +0.233 C 
ATOM      4  O   UNL     1      -4.211  -4.991  -1.397  0.00  0.00    -0.274 OA
ATOM      5  N   UNL     1      -3.707  -5.995   0.515  0.00  0.00    -0.263 N 
ATOM      6  C   UNL     1      -2.852  -6.159   1.595  0.00  0.00    +0.178 C 
ATOM      7  N   UNL     1      -2.979  -6.969   2.607  0.00  0.00    -0.158 NA
ATOM      8  S   UNL     1      -1.533  -4.996   1.270  0.00  0.00    -0.076 S 
ATOM      9  H   UNL     1      -4.513  -6.533   0.470  0.00  0.00    +0.157 HD
BRANCH   7  10
ATOM     10  N   UNL     1      -4.092  -7.816   2.690  0.00  0.00    -0.207 N 
ATOM     11  C   UNL     1      -4.223  -8.653   3.736  0.00  0.00    +0.346 C 
ATOM     12  O   UNL     1      -5.187  -9.387   3.809  0.00  0.00    -0.278 OA
ATOM     13  H   UNL     1      -4.768  -7.798   1.995  0.00  0.00    +0.177 HD
ENDBRANCH   7  10
ENDBRANCH   1   2
BRANCH   1  15
ATOM     14  N   UNL     1      -1.200  -0.722   0.010  0.00  0.00    -0.285 N 
ATOM     15  C   UNL     1      -1.183  -2.065  -0.099  0.00  0.00    +0.219 C 
ATOM     16  O   UNL     1      -0.126  -2.659  -0.113  0.00  0.00    -0.275 OA
ATOM     17  H   UNL     1      -2.044  -0.252   0.098  0.00  0.00    +0.155 HD
BRANCH  14  23
ATOM     18  C   UNL     1       1.072  -0.453  -0.766  0.00  0.00    +0.024 A 
ATOM     19  C   UNL     1       2.256   0.258  -0.778  0.00  0.00    +0.017 A 
ATOM     20  C   UNL     1       2.377   1.416  -0.032  0.00  0.00    +0.018 A 
ATOM     21  C   UNL     1       1.312   1.866   0.729  0.00  0.00    +0.017 A 
ATOM     22  C   UNL     1       0.126   1.159   0.745  0.00  0.00    +0.024 A 
ATOM     23  C   UNL     1       0.002  -0.004  -0.004  0.00  0.00    +0.033 A 
ATOM     24 BR   UNL     1       4.000   2.387  -0.051  0.00  0.00    -0.050 Br
ENDBRANCH  14  23
ENDBRANCH   1  15
TORSDOF 4
