REMARK  Name = ZINC35489786
REMARK  4 active torsions:
REMARK  status: ('A' for Active; 'I' for Inactive)
REMARK    1  A    between atoms: C_3  and  O_29
REMARK    2  A    between atoms: C_6  and  C_7
REMARK    3  A    between atoms: O_29  and  C_30
REMARK    4  A    between atoms: C_30  and  C_31
REMARK                            x       y       z     vdW  Elec       q    Type
REMARK                         _______ _______ _______ _____ _____    ______ ____
ROOT
ATOM      1  C   UNL     1      -1.293  -0.774   0.011  0.00  0.00    +0.151 C 
ATOM      2  C   UNL     1      -1.612  -1.261  -1.365  0.00  0.00    +0.072 A 
ATOM      3  C   UNL     1      -1.864  -0.535  -2.613  0.00  0.00    +0.199 A 
ATOM      4  O   UNL     1      -1.672   0.662  -2.739  0.00  0.00    -0.287 OA
ATOM      5  C   UNL     1      -2.375  -1.396  -3.709  0.00  0.00    +0.066 A 
ATOM      6  C   UNL     1      -2.849  -0.826  -4.891  0.00  0.00    +0.035 A 
ATOM      7  C   UNL     1      -3.325  -1.640  -5.896  0.00  0.00    +0.042 A 
ATOM      8  C   UNL     1      -3.330  -3.020  -5.730  0.00  0.00    +0.023 A 
ATOM      9  C   UNL     1      -2.863  -3.592  -4.569  0.00  0.00    +0.048 A 
ATOM     10  C   UNL     1      -2.375  -2.789  -3.538  0.00  0.00    +0.140 A 
ATOM     11  O   UNL     1      -1.913  -3.379  -2.411  0.00  0.00    -0.450 OA
ATOM     12  C   UNL     1      -1.654  -2.627  -1.323  0.00  0.00    +0.199 A 
ATOM     13  C   UNL     1      -1.374  -3.056   0.057  0.00  0.00    +0.289 C 
ATOM     14  O   UNL     1      -1.339  -4.211   0.433  0.00  0.00    -0.266 OA
ATOM     15  N   UNL     1      -1.162  -1.980   0.845  0.00  0.00    -0.230 N 
ATOM     16  C   UNL     1      -0.870  -2.005   2.202  0.00  0.00    +0.191 A 
ATOM     17  N   UNL     1      -0.653  -1.006   3.047  0.00  0.00    -0.126 NA
ATOM     18  N   UNL     1      -0.398  -1.209   4.266  0.00  0.00    -0.148 NA
ATOM     19  C   UNL     1      -0.330  -2.423   4.776  0.00  0.00    +0.183 A 
ATOM     20  S   UNL     1      -0.686  -3.396   3.315  0.00  0.00    -0.038 S 
ATOM     21 CL   UNL     1      -3.917  -0.942  -7.371  0.00  0.00    -0.084 Cl
ENDROOT
BRANCH   1  27
ATOM     22  C   UNL     1      -0.017   1.378   0.010  0.00  0.00    +0.009 A 
ATOM     23  C   UNL     1       1.169   2.087   0.002  0.00  0.00    +0.046 A 
ATOM     24  C   UNL     1       2.380   1.409  -0.013  0.00  0.00    +0.121 A 
ATOM     25  C   UNL     1       2.396   0.022  -0.021  0.00  0.00    +0.046 A 
ATOM     26  C   UNL     1       1.207  -0.681  -0.013  0.00  0.00    +0.009 A 
ATOM     27  C   UNL     1       0.002  -0.004   0.002  0.00  0.00    -0.022 A 
BRANCH  24  28
ATOM     28  O   UNL     1       3.548   2.104  -0.021  0.00  0.00    -0.483 OA
BRANCH  28  29
ATOM     29  C   UNL     1       4.756   1.341  -0.036  0.00  0.00    +0.324 C 
BRANCH  29  30
ATOM     30  C   UNL     1       5.940   2.274  -0.043  0.00  0.00    +0.248 C 
ATOM     31  O   UNL     1       5.766   3.474  -0.036  0.00  0.00    -0.272 OA
ATOM     32  N   UNL     1       7.192   1.774  -0.058  0.00  0.00    -0.327 N 
ATOM     33  H   UNL     1       7.331   0.814  -0.064  0.00  0.00    +0.145 HD
ATOM     34  H   UNL     1       7.953   2.375  -0.062  0.00  0.00    +0.145 HD
ENDBRANCH  29  30
ENDBRANCH  28  29
ENDBRANCH  24  28
ENDBRANCH   1  27
TORSDOF 4
