REMARK  Name = ZINC47524464
REMARK  9 active torsions:
REMARK  status: ('A' for Active; 'I' for Inactive)
REMARK    1  A    between atoms: C_1  and  C_2
REMARK    2  A    between atoms: C_2  and  O_3
REMARK    3  A    between atoms: O_3  and  C_4
REMARK    4  A    between atoms: C_4  and  C_6
REMARK    5  A    between atoms: C_10  and  N_12
REMARK    6  A    between atoms: N_15  and  C_16
REMARK    7  A    between atoms: C_16  and  C_17
REMARK    8  A    between atoms: N_19  and  C_20
REMARK    9  A    between atoms: C_24  and  C_26
REMARK                            x       y       z     vdW  Elec       q    Type
REMARK                         _______ _______ _______ _____ _____    ______ ____
ROOT
ATOM      1  N   UNL     1       1.898  -5.760   4.209  0.00  0.00    -0.269 N 
ATOM      2  C   UNL     1       2.775  -6.232   5.117  0.00  0.00    +0.304 C 
ATOM      3  O   UNL     1       3.351  -5.464   5.863  0.00  0.00    -0.252 OA
ATOM      4  N   UNL     1       3.014  -7.556   5.197  0.00  0.00    -0.291 N 
ATOM      5  H   UNL     1       1.382  -6.376   3.667  0.00  0.00    +0.156 HD
ATOM      6  H   UNL     1       2.554  -8.169   4.602  0.00  0.00    +0.151 HD
ENDROOT
BRANCH   1  11
ATOM      7  C   UNL     1       2.641  -2.151   4.060  0.00  0.00    +0.061 A 
ATOM      8  C   UNL     1       1.383  -1.643   3.729  0.00  0.00    +0.015 A 
ATOM      9  C   UNL     1       0.315  -2.500   3.562  0.00  0.00    +0.003 A 
ATOM     10  C   UNL     1       0.484  -3.863   3.720  0.00  0.00    +0.023 A 
ATOM     11  C   UNL     1       1.732  -4.379   4.050  0.00  0.00    +0.036 A 
ATOM     12  C   UNL     1       2.813  -3.527   4.215  0.00  0.00    +0.038 A 
BRANCH   7  13
ATOM     13  C   UNL     1       3.787  -1.236   4.239  0.00  0.00    +0.339 C 
ATOM     14  O   UNL     1       4.881  -1.681   4.522  0.00  0.00    -0.245 OA
BRANCH  13  15
ATOM     15  O   UNL     1       3.618   0.092   4.089  0.00  0.00    -0.461 OA
BRANCH  15  17
ATOM     16  C   UNL     1       4.385   2.383   4.068  0.00  0.00    +0.048 C 
ATOM     17  C   UNL     1       4.769   0.917   4.278  0.00  0.00    +0.229 C 
ENDBRANCH  15  17
ENDBRANCH  13  15
ENDBRANCH   7  13
ENDBRANCH   1  11
BRANCH   4  18
ATOM     18  C   UNL     1       3.967  -8.070   6.184  0.00  0.00    +0.202 C 
BRANCH  18  19
ATOM     19  C   UNL     1       4.051  -9.570   6.068  0.00  0.00    +0.234 C 
ATOM     20  O   UNL     1       3.380 -10.153   5.242  0.00  0.00    -0.274 OA
ATOM     21  N   UNL     1       4.871 -10.265   6.881  0.00  0.00    -0.284 N 
ATOM     22  H   UNL     1       5.353  -9.808   7.588  0.00  0.00    +0.155 HD
BRANCH  21  23
ATOM     23  C   UNL     1       5.027 -11.644   6.706  0.00  0.00    +0.035 A 
ATOM     24  C   UNL     1       5.233 -12.466   7.807  0.00  0.00    +0.023 A 
ATOM     25  C   UNL     1       5.388 -13.829   7.639  0.00  0.00    +0.003 A 
ATOM     26  C   UNL     1       5.339 -14.383   6.376  0.00  0.00    +0.017 A 
ATOM     27  C   UNL     1       5.132 -13.566   5.263  0.00  0.00    +0.026 A 
ATOM     28  C   UNL     1       4.971 -12.192   5.434  0.00  0.00    +0.040 A 
BRANCH  27  29
ATOM     29  C   UNL     1       5.080 -14.139   3.951  0.00  0.00    -0.070 C 
ATOM     30  C   UNL     1       5.038 -14.608   2.876  0.00  0.00    +0.009 C 
ENDBRANCH  27  29
ENDBRANCH  21  23
ENDBRANCH  18  19
ENDBRANCH   4  18
TORSDOF 8
