REMARK  Name = ZINC39679019
REMARK  11 active torsions:
REMARK  status: ('A' for Active; 'I' for Inactive)
REMARK    1  A    between atoms: C_1  and  N_2
REMARK    2  A    between atoms: N_2  and  C_3
REMARK    3  A    between atoms: N_2  and  C_4
REMARK    4  A    between atoms: C_4  and  C_5
REMARK    5  A    between atoms: C_5  and  C_6
REMARK    6  A    between atoms: C_6  and  C_7
REMARK    7  A    between atoms: C_7  and  N_8
REMARK    8  A    between atoms: C_9  and  C_11
REMARK    9  A    between atoms: C_22  and  C_24
REMARK   10  A    between atoms: C_26  and  O_31
REMARK   11  A    between atoms: O_31  and  C_32
REMARK                            x       y       z     vdW  Elec       q    Type
REMARK                         _______ _______ _______ _____ _____    ______ ____
ROOT
ATOM      1  C   UNL     1      -5.172  -6.580  -0.491  0.00  0.00    +0.100 C 
ATOM      2  C   UNL     1      -6.142  -5.866  -1.459  0.00  0.00    +0.121 C 
ATOM      3  N   UNL     1      -6.306  -6.811  -2.588  0.00  0.00    -0.296 N 
ATOM      4  C   UNL     1      -6.365  -8.146  -1.946  0.00  0.00    +0.115 C 
ATOM      5  C   UNL     1      -5.325  -8.076  -0.810  0.00  0.00    -0.004 C 
ATOM      6  C   UNL     1      -5.830  -8.830   0.416  0.00  0.00    -0.010 C 
ATOM      7  C   UNL     1      -5.918 -10.324   0.091  0.00  0.00    -0.082 C 
ATOM      8  N   UNL     1      -4.593 -10.820  -0.302  0.00  0.00    +0.379 N 
ATOM      9  C   UNL     1      -4.156 -10.155  -1.536  0.00  0.00    -0.082 C 
ATOM     10  C   UNL     1      -3.993  -8.655  -1.280  0.00  0.00    -0.010 C 
ATOM     11  C   UNL     1      -6.385  -6.523  -3.903  0.00  0.00    +0.248 C 
ATOM     12  O   UNL     1      -6.618  -7.406  -4.706  0.00  0.00    -0.270 OA
ATOM     13  H   UNL     1      -3.931 -10.627   0.435  0.00  0.00    -0.086 HD
ATOM     14  H   UNL     1      -4.641 -11.816  -0.456  0.00  0.00    -0.086 HD
ENDROOT
BRANCH  11  15
ATOM     15  C   UNL     1      -6.188  -5.134  -4.368  0.00  0.00    +0.054 A 
ATOM     16  C   UNL     1      -6.648  -4.066  -3.596  0.00  0.00    +0.059 A 
ATOM     17  C   UNL     1      -6.460  -2.767  -4.038  0.00  0.00    +0.121 A 
ATOM     18  C   UNL     1      -5.815  -2.530  -5.245  0.00  0.00    +0.047 A 
ATOM     19  C   UNL     1      -5.359  -3.586  -6.011  0.00  0.00    +0.019 A 
ATOM     20  C   UNL     1      -5.536  -4.886  -5.577  0.00  0.00    +0.030 A 
ATOM     21 BR   UNL     1      -4.904  -6.327  -6.625  0.00  0.00    -0.050 Br
BRANCH  17  22
ATOM     22  O   UNL     1      -6.906  -1.724  -3.290  0.00  0.00    -0.495 OA
ATOM     23  C   UNL     1      -6.678  -0.411  -3.806  0.00  0.00    +0.277 C 
ENDBRANCH  17  22
ENDBRANCH  11  15
BRANCH   1  25
ATOM     24  N   UNL     1      -2.852  -6.163   0.258  0.00  0.00    -0.315 N 
ATOM     25  C   UNL     1      -3.755  -6.131  -0.741  0.00  0.00    +0.218 C 
ATOM     26  O   UNL     1      -3.428  -5.742  -1.843  0.00  0.00    -0.275 OA
ATOM     27  H   UNL     1      -3.114  -6.474   1.139  0.00  0.00    +0.149 HD
BRANCH  24  28
ATOM     28  C   UNL     1      -1.474  -5.727   0.015  0.00  0.00    +0.104 C 
BRANCH  28  29
ATOM     29  C   UNL     1      -0.661  -5.862   1.304  0.00  0.00    +0.017 C 
BRANCH  29  30
ATOM     30  C   UNL     1       0.777  -5.407   1.049  0.00  0.00    -0.017 C 
BRANCH  30  31
ATOM     31  C   UNL     1       1.590  -5.541   2.338  0.00  0.00    -0.080 C 
BRANCH  31  33
ATOM     32  C   UNL     1       3.721  -5.120   3.357  0.00  0.00    -0.097 C 
ATOM     33  N   UNL     1       2.971  -5.104   2.094  0.00  0.00    +0.376 N 
ATOM     34  C   UNL     1       3.610  -6.015   1.134  0.00  0.00    -0.097 C 
ATOM     35  H   UNL     1       2.966  -4.168   1.717  0.00  0.00    -0.083 HD
ENDBRANCH  31  33
ENDBRANCH  30  31
ENDBRANCH  29  30
ENDBRANCH  28  29
ENDBRANCH  24  28
ENDBRANCH   1  25
TORSDOF 8
