REMARK  Name = ZINC03844434
REMARK  1 active torsions:
REMARK  status: ('A' for Active; 'I' for Inactive)
REMARK    1  A    between atoms: C_4  and  C_6
REMARK                            x       y       z     vdW  Elec       q    Type
REMARK                         _______ _______ _______ _____ _____    ______ ____
ROOT
ATOM      1  C   UNL     1       2.022   0.737  -0.013  0.00  0.00    +0.332 A 
ATOM      2  N   UNL     1       1.192   1.742   0.000  0.00  0.00    -0.116 NA
ATOM      3  N   UNL     1      -0.016   1.298   0.009  0.00  0.00    -0.111 NA
ATOM      4  C   UNL     1       0.002  -0.004   0.002  0.00  0.00    +0.231 A 
ATOM      5  O   UNL     1       1.289  -0.389  -0.012  0.00  0.00    -0.426 OA
ENDROOT
BRANCH   4   6
ATOM      6  C   UNL     1      -1.200  -0.912   0.009  0.00  0.00    +0.206 C 
ATOM      7 CL   UNL     1      -1.664  -1.283   1.712  0.00  0.00    -0.115 Cl
ENDBRANCH   4   6
TORSDOF 1
