REMARK  Name = ZINC54062834
REMARK  8 active torsions:
REMARK  status: ('A' for Active; 'I' for Inactive)
REMARK    1  A    between atoms: C_1  and  C_2
REMARK    2  A    between atoms: C_2  and  C_4
REMARK    3  A    between atoms: C_2  and  N_10
REMARK    4  A    between atoms: N_13  and  N_14
REMARK    5  A    between atoms: C_15  and  C_17
REMARK    6  A    between atoms: C_17  and  O_18
REMARK    7  A    between atoms: O_18  and  C_19
REMARK    8  A    between atoms: C_24  and  C_25
REMARK                            x       y       z     vdW  Elec       q    Type
REMARK                         _______ _______ _______ _____ _____    ______ ____
ROOT
ATOM      1  N   UNL     1      -1.372  -0.511   0.012  0.00  0.00    -0.292 N 
ATOM      2  C   UNL     1      -2.051  -0.643  -1.145  0.00  0.00    +0.316 C 
ATOM      3  O   UNL     1      -1.522  -0.341  -2.197  0.00  0.00    -0.251 OA
ATOM      4  N   UNL     1      -3.315  -1.109  -1.135  0.00  0.00    -0.218 N 
ATOM      5  H   UNL     1      -1.794  -0.752   0.852  0.00  0.00    +0.151 HD
ATOM      6  H   UNL     1      -3.804  -1.204  -1.968  0.00  0.00    +0.174 HD
ENDROOT
BRANCH   4   7
ATOM      7  N   UNL     1      -3.924  -1.457   0.078  0.00  0.00    -0.230 N 
ATOM      8  C   UNL     1      -5.189  -1.924   0.087  0.00  0.00    +0.267 C 
ATOM      9  O   UNL     1      -5.799  -2.042  -0.954  0.00  0.00    -0.271 OA
ATOM     10  H   UNL     1      -3.436  -1.363   0.910  0.00  0.00    +0.173 HD
BRANCH   8  11
ATOM     11  C   UNL     1      -5.844  -2.298   1.392  0.00  0.00    +0.326 C 
BRANCH  11  12
ATOM     12  O   UNL     1      -7.172  -2.762   1.142  0.00  0.00    -0.481 OA
BRANCH  12  13
ATOM     13  C   UNL     1      -7.905  -3.142   2.219  0.00  0.00    +0.138 A 
ATOM     14  C   UNL     1      -7.362  -3.066   3.492  0.00  0.00    +0.047 A 
ATOM     15  C   UNL     1      -8.109  -3.453   4.588  0.00  0.00    +0.004 A 
ATOM     16  C   UNL     1      -9.403  -3.919   4.424  0.00  0.00    +0.001 A 
ATOM     17  C   UNL     1      -9.959  -4.000   3.166  0.00  0.00    +0.022 A 
ATOM     18  C   UNL     1      -9.216  -3.607   2.050  0.00  0.00    +0.093 A 
BRANCH  18  19
ATOM     19  C   UNL     1      -9.790  -3.684   0.740  0.00  0.00    +0.103 C 
ATOM     20  N   UNL     1     -10.244  -3.746  -0.300  0.00  0.00    -0.191 NA
ENDBRANCH  18  19
ENDBRANCH  12  13
ENDBRANCH  11  12
ENDBRANCH   8  11
ENDBRANCH   4   7
BRANCH   1  22
ATOM     21  C   UNL     1      -0.019   1.526   0.010  0.00  0.00    +0.033 C 
ATOM     22  C   UNL     1       0.002  -0.004   0.002  0.00  0.00    +0.102 C 
BRANCH  22  23
ATOM     23  C   UNL     1       0.731  -0.503   1.223  0.00  0.00    -0.027 A 
ATOM     24  C   UNL     1       0.081  -0.558   2.442  0.00  0.00    +0.005 A 
ATOM     25  C   UNL     1       0.749  -1.016   3.562  0.00  0.00    +0.000 A 
ATOM     26  C   UNL     1       2.068  -1.420   3.463  0.00  0.00    +0.000 A 
ATOM     27  C   UNL     1       2.718  -1.365   2.244  0.00  0.00    +0.000 A 
ATOM     28  C   UNL     1       2.048  -0.911   1.123  0.00  0.00    +0.005 A 
ENDBRANCH  22  23
ENDBRANCH   1  22
TORSDOF 7
