REMARK  Name = ZINC15959440
REMARK  8 active torsions:
REMARK  status: ('A' for Active; 'I' for Inactive)
REMARK    1  A    between atoms: C_1  and  C_2
REMARK    2  A    between atoms: C_7  and  C_8
REMARK    3  A    between atoms: C_17  and  C_20
REMARK    4  A    between atoms: C_20  and  C_22
REMARK    5  A    between atoms: C_20  and  O_23
REMARK    6  A    between atoms: N_26  and  C_29
REMARK    7  A    between atoms: C_29  and  C_30
REMARK    8  A    between atoms: C_30  and  C_31
REMARK                            x       y       z     vdW  Elec       q    Type
REMARK                         _______ _______ _______ _____ _____    ______ ____
ROOT
ATOM      1  C   UNL     1      -0.018   1.503   0.010  0.00  0.00    +0.044 C 
ATOM      2  C   UNL     1       0.002  -0.004   0.002  0.00  0.00    -0.046 A 
ATOM      3  C   UNL     1       0.006  -0.685  -1.201  0.00  0.00    +0.004 A 
ATOM      4  C   UNL     1       0.026  -2.069  -1.209  0.00  0.00    +0.008 A 
ATOM      5  C   UNL     1       0.042  -2.765  -0.021  0.00  0.00    +0.004 A 
ATOM      6  C   UNL     1       0.037  -2.090   1.196  0.00  0.00    +0.042 A 
ATOM      7  C   UNL     1       0.023  -0.697   1.195  0.00  0.00    -0.026 A 
ATOM      8  C   UNL     1       0.025   0.056   2.500  0.00  0.00    +0.046 C 
ATOM      9  N   UNL     1       0.051  -3.001   2.254  0.00  0.00    -0.283 N 
ATOM     10  C   UNL     1       0.069  -4.278   1.824  0.00  0.00    +0.243 C 
ATOM     11  O   UNL     1       0.081  -5.274   2.515  0.00  0.00    -0.273 OA
ATOM     12  C   UNL     1       0.069  -4.227   0.321  0.00  0.00    +0.136 C 
ATOM     13  C   UNL     1      -1.137  -4.968  -0.267  0.00  0.00    +0.122 C 
ATOM     14  C   UNL     1      -0.598  -5.628  -1.567  0.00  0.00    +0.109 C 
ATOM     15  C   UNL     1       0.887  -5.211  -1.634  0.00  0.00    +0.096 C 
ATOM     16  N   UNL     1       1.263  -4.890  -0.238  0.00  0.00    -0.293 NA
ATOM     17  C   UNL     1      -1.375  -4.930  -2.660  0.00  0.00    +0.227 C 
ATOM     18  O   UNL     1      -1.263  -5.148  -3.847  0.00  0.00    -0.275 OA
ATOM     19  N   UNL     1      -2.205  -4.034  -2.113  0.00  0.00    -0.241 N 
ATOM     20  C   UNL     1      -2.160  -3.971  -0.763  0.00  0.00    +0.228 C 
ATOM     21  O   UNL     1      -2.823  -3.239  -0.060  0.00  0.00    -0.275 OA
ATOM     22  H   UNL     1       0.050  -2.745   3.189  0.00  0.00    +0.155 HD
ATOM     23  H   UNL     1       2.064  -4.278  -0.206  0.00  0.00    +0.124 HD
ENDROOT
BRANCH  15  24
ATOM     24  C   UNL     1       1.738  -6.358  -2.183  0.00  0.00    +0.129 C 
ATOM     25  C   UNL     1       3.217  -5.969  -2.124  0.00  0.00    +0.039 C 
BRANCH  24  26
ATOM     26  O   UNL     1       1.522  -7.530  -1.395  0.00  0.00    -0.390 OA
ATOM     27  H   UNL     1       1.753  -7.425  -0.462  0.00  0.00    +0.210 HD
ENDBRANCH  24  26
ENDBRANCH  15  24
BRANCH  19  28
ATOM     28  C   UNL     1      -3.098  -3.192  -2.912  0.00  0.00    +0.121 C 
BRANCH  28  29
ATOM     29  C   UNL     1      -4.438  -3.905  -3.102  0.00  0.00    +0.054 C 
BRANCH  29  30
ATOM     30  C   UNL     1      -5.357  -3.039  -3.923  0.00  0.00    -0.046 A 
ATOM     31  C   UNL     1      -6.188  -2.127  -3.300  0.00  0.00    +0.004 A 
ATOM     32  C   UNL     1      -7.031  -1.332  -4.053  0.00  0.00    +0.000 A 
ATOM     33  C   UNL     1      -7.043  -1.448  -5.430  0.00  0.00    +0.000 A 
ATOM     34  C   UNL     1      -6.211  -2.359  -6.054  0.00  0.00    +0.000 A 
ATOM     35  C   UNL     1      -5.365  -3.151  -5.301  0.00  0.00    +0.004 A 
ENDBRANCH  29  30
ENDBRANCH  28  29
ENDBRANCH  19  28
TORSDOF 5
