REMARK  Name = ZINC64899623
REMARK  7 active torsions:
REMARK  status: ('A' for Active; 'I' for Inactive)
REMARK    1  A    between atoms: C_1  and  O_2
REMARK    2  A    between atoms: O_2  and  C_3
REMARK    3  A    between atoms: C_3  and  C_4
REMARK    4  A    between atoms: C_4  and  N_5
REMARK    5  A    between atoms: N_8  and  N_9
REMARK    6  A    between atoms: C_10  and  C_12
REMARK    7  A    between atoms: C_16  and  N_17
REMARK                            x       y       z     vdW  Elec       q    Type
REMARK                         _______ _______ _______ _____ _____    ______ ____
ROOT
ATOM      1  N   UNL     1       2.839  -3.275  -2.351  0.00  0.00    -0.229 N 
ATOM      2  C   UNL     1       3.546  -3.665  -3.430  0.00  0.00    +0.263 C 
ATOM      3  O   UNL     1       3.640  -4.848  -3.701  0.00  0.00    -0.269 OA
ATOM      4  H   UNL     1       2.764  -2.333  -2.135  0.00  0.00    +0.173 HD
ENDROOT
BRANCH   2   5
ATOM      5  C   UNL     1       4.203  -2.664  -4.278  0.00  0.00    +0.073 A 
ATOM      6  C   UNL     1       5.575  -2.231  -4.014  0.00  0.00    -0.021 A 
ATOM      7  C   UNL     1       6.027  -1.314  -4.885  0.00  0.00    +0.006 A 
ATOM      8  S   UNL     1       4.673  -1.038  -6.001  0.00  0.00    -0.074 S 
ATOM      9  C   UNL     1       3.549  -2.102  -5.356  0.00  0.00    +0.097 A 
ATOM     10  C   UNL     1       7.368  -0.637  -4.964  0.00  0.00    +0.111 C 
ATOM     11  S   UNL     1       8.230  -0.895  -3.382  0.00  0.00    -0.155 S 
ATOM     12  C   UNL     1       7.861  -2.643  -3.034  0.00  0.00    +0.074 C 
ATOM     13  C   UNL     1       6.357  -2.798  -2.841  0.00  0.00    +0.047 C 
BRANCH   9  14
ATOM     14  N   UNL     1       2.257  -2.358  -5.802  0.00  0.00    -0.317 N 
ATOM     15  C   UNL     1       1.375  -3.233  -5.232  0.00  0.00    +0.092 A 
ATOM     16  C   UNL     1       0.232  -3.204  -5.946  0.00  0.00    +0.019 A 
ATOM     17  C   UNL     1       0.411  -2.278  -6.995  0.00  0.00    +0.019 A 
ATOM     18  C   UNL     1       1.655  -1.771  -6.880  0.00  0.00    +0.092 A 
ENDBRANCH   9  14
ENDBRANCH   2   5
BRANCH   1  22
ATOM     19  N   UNL     1       1.401  -2.532  -0.162  0.00  0.00    -0.296 N 
ATOM     20  C   UNL     1       1.505  -3.841  -0.462  0.00  0.00    +0.316 C 
ATOM     21  O   UNL     1       0.961  -4.671   0.240  0.00  0.00    -0.251 OA
ATOM     22  N   UNL     1       2.212  -4.231  -1.541  0.00  0.00    -0.218 N 
ATOM     23  H   UNL     1       1.835  -1.870  -0.723  0.00  0.00    +0.150 HD
ATOM     24  H   UNL     1       2.288  -5.174  -1.757  0.00  0.00    +0.174 HD
BRANCH  19  25
ATOM     25  C   UNL     1       0.633  -2.108   1.011  0.00  0.00    +0.134 C 
BRANCH  25  26
ATOM     26  C   UNL     1       0.673  -0.582   1.123  0.00  0.00    +0.178 C 
BRANCH  26  28
ATOM     27  C   UNL     1      -0.017   1.425   0.010  0.00  0.00    +0.194 C 
ATOM     28  O   UNL     1       0.002  -0.004   0.002  0.00  0.00    -0.381 OA
ENDBRANCH  26  28
ENDBRANCH  25  26
ENDBRANCH  19  25
ENDBRANCH   1  22
TORSDOF 6
