REMARK  Name = ZINC20590312
REMARK  6 active torsions:
REMARK  status: ('A' for Active; 'I' for Inactive)
REMARK    1  A    between atoms: C_1  and  C_2
REMARK    2  A    between atoms: C_2  and  C_3
REMARK    3  A    between atoms: C_3  and  C_4
REMARK    4  A    between atoms: C_3  and  C_5
REMARK    5  A    between atoms: C_3  and  N_6
REMARK    6  A    between atoms: C_7  and  C_12
REMARK                            x       y       z     vdW  Elec       q    Type
REMARK                         _______ _______ _______ _____ _____    ______ ____
ROOT
ATOM      1  N   UNL     1      -1.289   0.645   2.439  0.00  0.00    -0.298 N 
ATOM      2  C   UNL     1      -2.323   1.142   3.198  0.00  0.00    +0.163 A 
ATOM      3  N   UNL     1      -2.068   0.833   4.448  0.00  0.00    -0.153 NA
ATOM      4  N   UNL     1      -0.960   0.185   4.522  0.00  0.00    -0.254 N 
ATOM      5  C   UNL     1      -0.443   0.037   3.322  0.00  0.00    +0.176 A 
ATOM      6  S   UNL     1       1.062  -0.790   2.928  0.00  0.00    -0.011 S 
ATOM      7  H   UNL     1      -0.585  -0.153   5.499  0.00  0.00    +0.191 HD
ENDROOT
BRANCH   2   8
ATOM      8  C   UNL     1      -3.501   1.885   2.700  0.00  0.00    +0.019 A 
ATOM      9  C   UNL     1      -3.383   2.722   1.589  0.00  0.00    +0.011 A 
ATOM     10  C   UNL     1      -4.486   3.409   1.126  0.00  0.00    +0.001 A 
ATOM     11  C   UNL     1      -5.705   3.277   1.768  0.00  0.00    +0.000 A 
ATOM     12  C   UNL     1      -5.828   2.453   2.872  0.00  0.00    +0.001 A 
ATOM     13  C   UNL     1      -4.733   1.757   3.342  0.00  0.00    +0.011 A 
ENDBRANCH   2   8
BRANCH   1  14
ATOM     14  C   UNL     1      -1.131   0.742   0.986  0.00  0.00    +0.044 C 
ATOM     15  C   UNL     1      -0.596   2.129   0.623  0.00  0.00    +0.034 C 
ATOM     16  C   UNL     1      -2.486   0.525   0.310  0.00  0.00    +0.034 C 
BRANCH  14  18
ATOM     17  C   UNL     1       0.020  -0.224  -1.010  0.00  0.00    +0.006 C 
ATOM     18  C   UNL     1      -0.145  -0.326   0.507  0.00  0.00    +0.025 C 
ENDBRANCH  14  18
ENDBRANCH   1  14
TORSDOF 3
