REMARK  Name = ZINC58846951
REMARK  4 active torsions:
REMARK  status: ('A' for Active; 'I' for Inactive)
REMARK    1  A    between atoms: C_5  and  C_7
REMARK    2  A    between atoms: C_18  and  S_23
REMARK    3  A    between atoms: S_23  and  N_26
REMARK    4  A    between atoms: N_26  and  C_27
REMARK                            x       y       z     vdW  Elec       q    Type
REMARK                         _______ _______ _______ _____ _____    ______ ____
ROOT
ATOM      1  C   UNL     1       0.745  -1.940  -0.104  0.00  0.00    +0.108 C 
ATOM      2  C   UNL     1       1.071  -2.394  -1.496  0.00  0.00    +0.029 C 
ATOM      3  C   UNL     1       0.258  -1.637  -2.565  0.00  0.00    +0.033 C 
ATOM      4  C   UNL     1       0.164  -2.621  -3.712  0.00  0.00    -0.030 C 
ATOM      5  C   UNL     1       0.436  -3.835  -3.309  0.00  0.00    -0.023 C 
ATOM      6  C   UNL     1       0.721  -3.842  -1.828  0.00  0.00    +0.049 C 
ATOM      7  C   UNL     1      -0.511  -4.330  -1.120  0.00  0.00    -0.018 A 
ATOM      8  C   UNL     1      -1.103  -5.505  -1.561  0.00  0.00    +0.034 A 
ATOM      9  C   UNL     1      -2.243  -5.986  -0.951  0.00  0.00    +0.109 A 
ATOM     10  C   UNL     1      -2.807  -5.299   0.109  0.00  0.00    +0.030 A 
ATOM     11  C   UNL     1      -2.223  -4.132   0.558  0.00  0.00    +0.025 A 
ATOM     12  C   UNL     1      -1.070  -3.647  -0.054  0.00  0.00    +0.031 A 
ATOM     13  N   UNL     1      -0.473  -2.503   0.441  0.00  0.00    -0.336 N 
ATOM     14  H   UNL     1      -0.911  -2.043   1.173  0.00  0.00    +0.147 HD
ENDROOT
BRANCH   1  19
ATOM     15  C   UNL     1      -0.756   1.524  -0.103  0.00  0.00    +0.000 A 
ATOM     16  C   UNL     1       0.376   2.317  -0.123  0.00  0.00    +0.003 A 
ATOM     17  C   UNL     1       1.628   1.734  -0.137  0.00  0.00    +0.039 A 
ATOM     18  C   UNL     1       1.749   0.354  -0.131  0.00  0.00    +0.128 A 
ATOM     19  C   UNL     1       0.615  -0.439  -0.111  0.00  0.00    +0.008 A 
ATOM     20  C   UNL     1      -0.637   0.147  -0.096  0.00  0.00    +0.008 A 
ATOM     21  F   UNL     1       2.973  -0.217  -0.145  0.00  0.00    -0.205 F 
ENDBRANCH   1  19
BRANCH   9  22
ATOM     22  S   UNL     1      -2.983  -7.480  -1.522  0.00  0.00    +0.072 S 
ATOM     23  O   UNL     1      -4.350  -7.430  -1.138  0.00  0.00    -0.150 OA
ATOM     24  O   UNL     1      -2.577  -7.642  -2.875  0.00  0.00    -0.150 OA
BRANCH  22  25
ATOM     25  N   UNL     1      -2.297  -8.723  -0.670  0.00  0.00    -0.213 N 
ATOM     26  H   UNL     1      -1.810  -9.421  -1.137  0.00  0.00    +0.174 HD
BRANCH  25  27
ATOM     27  C   UNL     1      -2.419  -8.768   0.722  0.00  0.00    +0.083 A 
ATOM     28  C   UNL     1      -3.586  -8.329   1.333  0.00  0.00    +0.027 A 
ATOM     29  C   UNL     1      -3.704  -8.375   2.708  0.00  0.00    +0.002 A 
ATOM     30  C   UNL     1      -2.661  -8.856   3.478  0.00  0.00    +0.003 A 
ATOM     31  C   UNL     1      -1.496  -9.294   2.875  0.00  0.00    +0.040 A 
ATOM     32  C   UNL     1      -1.373  -9.257   1.498  0.00  0.00    +0.146 A 
ATOM     33  F   UNL     1      -0.238  -9.690   0.908  0.00  0.00    -0.204 F 
ENDBRANCH  25  27
ENDBRANCH  22  25
ENDBRANCH   9  22
TORSDOF 4
