REMARK  Name = ZINC43235507
REMARK  5 active torsions:
REMARK  status: ('A' for Active; 'I' for Inactive)
REMARK    1  A    between atoms: C_1  and  N_2
REMARK    2  A    between atoms: N_2  and  C_3
REMARK    3  A    between atoms: C_3  and  C_4
REMARK    4  A    between atoms: C_8  and  C_10
REMARK    5  A    between atoms: N_14  and  C_15
REMARK                            x       y       z     vdW  Elec       q    Type
REMARK                         _______ _______ _______ _____ _____    ______ ____
ROOT
ATOM      1  C   UNL     1      -0.041   1.459   0.011  0.00  0.00    +0.134 C 
ATOM      2  N   UNL     1      -0.016  -0.005   0.002  0.00  0.00    -0.284 N 
ATOM      3  C   UNL     1      -0.007  -0.672  -1.169  0.00  0.00    +0.307 C 
ATOM      4  O   UNL     1       0.014  -1.888  -1.176  0.00  0.00    -0.252 OA
ATOM      5  N   UNL     1      -0.020   0.009  -2.332  0.00  0.00    -0.267 N 
ATOM      6  H   UNL     1      -0.102   0.975  -2.328  0.00  0.00    +0.156 HD
ENDROOT
BRANCH   5   7
ATOM      7  C   UNL     1       0.083  -0.680  -3.548  0.00  0.00    +0.073 A 
ATOM      8  C   UNL     1      -0.492  -1.935  -3.687  0.00  0.00    +0.064 A 
ATOM      9  C   UNL     1      -0.388  -2.612  -4.889  0.00  0.00    +0.125 A 
ATOM     10  C   UNL     1       0.289  -2.039  -5.952  0.00  0.00    +0.041 A 
ATOM     11  C   UNL     1       0.863  -0.789  -5.816  0.00  0.00    +0.043 A 
ATOM     12  C   UNL     1       0.758  -0.104  -4.619  0.00  0.00    +0.145 A 
ATOM     13  F   UNL     1       1.315   1.119  -4.488  0.00  0.00    -0.204 F 
ATOM     14  F   UNL     1      -0.948  -3.835  -5.025  0.00  0.00    -0.205 F 
ENDBRANCH   5   7
BRANCH   2  15
ATOM     15  C   UNL     1      -0.001  -0.745   1.266  0.00  0.00    +0.144 C 
BRANCH  15  16
ATOM     16  C   UNL     1      -1.417  -1.023   1.702  0.00  0.00    -0.029 A 
ATOM     17  C   UNL     1      -2.084  -0.113   2.503  0.00  0.00    +0.005 A 
ATOM     18  C   UNL     1      -3.384  -0.360   2.908  0.00  0.00    +0.002 A 
ATOM     19  C   UNL     1      -4.024  -1.517   2.515  0.00  0.00    +0.019 A 
ATOM     20  C   UNL     1      -3.357  -2.440   1.706  0.00  0.00    +0.052 A 
ATOM     21  C   UNL     1      -2.047  -2.182   1.298  0.00  0.00    +0.024 A 
BRANCH  20  22
ATOM     22  C   UNL     1      -4.015  -3.643   1.294  0.00  0.00    +0.099 C 
ATOM     23  N   UNL     1      -4.537  -4.597   0.968  0.00  0.00    -0.191 NA
ENDBRANCH  20  22
ENDBRANCH  15  16
ENDBRANCH   2  15
TORSDOF 4
