REMARK  Name = ZINC17304291
REMARK  5 active torsions:
REMARK  status: ('A' for Active; 'I' for Inactive)
REMARK    1  A    between atoms: N_11  and  C_12
REMARK    2  A    between atoms: C_12  and  C_14
REMARK    3  A    between atoms: C_17  and  S_20
REMARK    4  A    between atoms: S_20  and  N_23
REMARK    5  A    between atoms: N_23  and  C_24
REMARK                            x       y       z     vdW  Elec       q    Type
REMARK                         _______ _______ _______ _____ _____    ______ ____
ROOT
ATOM      1  C   UNL     1       5.986  -4.197  -0.673  0.00  0.00    +0.039 A 
ATOM      2  C   UNL     1       5.182  -5.336  -0.703  0.00  0.00    +0.015 A 
ATOM      3  C   UNL     1       5.764  -6.587  -0.714  0.00  0.00    +0.029 A 
ATOM      4  C   UNL     1       7.142  -6.713  -0.695  0.00  0.00    +0.109 A 
ATOM      5  C   UNL     1       7.944  -5.586  -0.665  0.00  0.00    +0.029 A 
ATOM      6  C   UNL     1       7.375  -4.330  -0.659  0.00  0.00    +0.015 A 
ENDROOT
BRANCH   4   7
ATOM      7  S   UNL     1       7.877  -8.314  -0.708  0.00  0.00    +0.072 S 
ATOM      8  O   UNL     1       9.170  -8.172  -0.135  0.00  0.00    -0.150 OA
ATOM      9  O   UNL     1       6.907  -9.211  -0.185  0.00  0.00    -0.150 OA
BRANCH   7  10
ATOM     10  N   UNL     1       8.105  -8.735  -2.293  0.00  0.00    -0.213 N 
ATOM     11  H   UNL     1       7.675  -9.527  -2.652  0.00  0.00    +0.174 HD
BRANCH  10  12
ATOM     12  C   UNL     1       8.919  -7.948  -3.115  0.00  0.00    +0.083 A 
ATOM     13  C   UNL     1      10.051  -7.337  -2.594  0.00  0.00    +0.027 A 
ATOM     14  C   UNL     1      10.853  -6.561  -3.408  0.00  0.00    +0.002 A 
ATOM     15  C   UNL     1      10.530  -6.392  -4.742  0.00  0.00    +0.003 A 
ATOM     16  C   UNL     1       9.403  -6.999  -5.266  0.00  0.00    +0.040 A 
ATOM     17  C   UNL     1       8.599  -7.782  -4.458  0.00  0.00    +0.146 A 
ATOM     18  F   UNL     1       7.502  -8.379  -4.972  0.00  0.00    -0.204 F 
ENDBRANCH  10  12
ENDBRANCH   7  10
ENDBRANCH   4   7
BRANCH   1  19
ATOM     19  C   UNL     1       5.368  -2.850  -0.662  0.00  0.00    +0.270 C 
ATOM     20  O   UNL     1       6.073  -1.857  -0.641  0.00  0.00    -0.268 OA
BRANCH  19  31
ATOM     21  C   UNL     1       0.976   2.278  -1.119  0.00  0.00    +0.002 A 
ATOM     22  C   UNL     1       2.228   2.861  -1.020  0.00  0.00    +0.002 A 
ATOM     23  C   UNL     1       3.355   2.073  -0.890  0.00  0.00    +0.028 A 
ATOM     24  C   UNL     1       3.232   0.691  -0.858  0.00  0.00    +0.065 A 
ATOM     25  C   UNL     1       1.970   0.103  -0.958  0.00  0.00    +0.065 A 
ATOM     26  C   UNL     1       0.843   0.904  -1.088  0.00  0.00    +0.028 A 
ATOM     27  N   UNL     1       2.152  -1.274  -0.897  0.00  0.00    -0.326 N 
ATOM     28  H   UNL     1       1.451  -1.943  -0.941  0.00  0.00    +0.169 HD
ATOM     29  C   UNL     1       3.483  -1.522  -0.765  0.00  0.00    +0.199 A 
ATOM     30  N   UNL     1       4.157  -0.341  -0.739  0.00  0.00    -0.326 N 
ATOM     31  N   UNL     1       4.037  -2.726  -0.675  0.00  0.00    -0.143 NA
ATOM     32  H   UNL     1       5.118  -0.236  -0.653  0.00  0.00    +0.169 HD
ENDBRANCH  19  31
ENDBRANCH   1  19
TORSDOF 5
