REMARK  Name = ZINC22453503
REMARK  4 active torsions:
REMARK  status: ('A' for Active; 'I' for Inactive)
REMARK    1  A    between atoms: C_1  and  C_2
REMARK    2  A    between atoms: C_5  and  C_8
REMARK    3  A    between atoms: C_17  and  C_25
REMARK    4  A    between atoms: C_22  and  C_24
REMARK                            x       y       z     vdW  Elec       q    Type
REMARK                         _______ _______ _______ _____ _____    ______ ____
ROOT
ATOM      1  C   UNL     1       2.105   3.091   1.020  0.00  0.00    +0.080 A 
ATOM      2  C   UNL     1       0.743   2.859   1.137  0.00  0.00    +0.098 A 
ATOM      3  C   UNL     1       0.267   1.549   0.977  0.00  0.00    +0.253 A 
ATOM      4  O   UNL     1      -0.926   1.306   1.072  0.00  0.00    -0.268 OA
ATOM      5  N   UNL     1       1.149   0.563   0.714  0.00  0.00    -0.295 N 
ATOM      6  H   UNL     1       0.797  -0.471   0.584  0.00  0.00    +0.172 HD
ATOM      7  C   UNL     1       2.477   0.844   0.609  0.00  0.00    +0.199 A 
ATOM      8  N   UNL     1       2.933   2.070   0.758  0.00  0.00    -0.216 NA
ATOM      9  N   UNL     1       3.357  -0.170   0.341  0.00  0.00    -0.295 N 
ATOM     10  C   UNL     1       3.467  -1.087   1.483  0.00  0.00    +0.073 C 
ATOM     11  C   UNL     1       4.342  -2.281   1.098  0.00  0.00    +0.022 C 
ATOM     12  C   UNL     1       5.730  -1.780   0.688  0.00  0.00    +0.004 C 
ATOM     13  C   UNL     1       5.583  -0.790  -0.472  0.00  0.00    +0.022 C 
ATOM     14  C   UNL     1       4.672   0.361  -0.041  0.00  0.00    +0.073 C 
ATOM     15  C   UNL     1       4.507   1.342  -1.203  0.00  0.00    +0.028 C 
ATOM     16  C   UNL     1       4.099  -0.353   2.668  0.00  0.00    +0.028 C 
ENDROOT
BRANCH   1  21
ATOM     17  C   UNL     1       4.197   8.417   1.654  0.00  0.00    +0.044 C 
ATOM     18  C   UNL     1       3.650   7.023   1.488  0.00  0.00    -0.050 A 
ATOM     19  C   UNL     1       2.290   6.798   1.606  0.00  0.00    +0.004 A 
ATOM     20  C   UNL     1       1.782   5.524   1.455  0.00  0.00    +0.010 A 
ATOM     21  C   UNL     1       2.644   4.462   1.183  0.00  0.00    +0.001 A 
ATOM     22  C   UNL     1       4.014   4.693   1.071  0.00  0.00    +0.010 A 
ATOM     23  C   UNL     1       4.509   5.973   1.219  0.00  0.00    +0.004 A 
ENDBRANCH   1  21
TORSDOF 1
