REMARK  Name = ZINC08734974
REMARK  4 active torsions:
REMARK  status: ('A' for Active; 'I' for Inactive)
REMARK    1  A    between atoms: C_4  and  N_19
REMARK    2  A    between atoms: C_6  and  N_7
REMARK    3  A    between atoms: C_8  and  C_10
REMARK    4  A    between atoms: C_10  and  N_37
REMARK                            x       y       z     vdW  Elec       q    Type
REMARK                         _______ _______ _______ _____ _____    ______ ____
ROOT
ATOM      1  N   UNL     1       0.056   1.095  -0.104  0.00  0.00    -0.287 N 
ATOM      2  C   UNL     1       1.339   1.507  -0.112  0.00  0.00    +0.201 C 
ATOM      3  O   UNL     1       1.596   2.692  -0.102  0.00  0.00    -0.278 OA
ATOM      4  H   UNL     1      -0.151   0.151  -0.190  0.00  0.00    +0.155 HD
ENDROOT
BRANCH   1  10
ATOM      5  C   UNL     1      -0.791   3.175   0.786  0.00  0.00    +0.025 A 
ATOM      6  C   UNL     1      -1.811   4.098   0.906  0.00  0.00    +0.024 A 
ATOM      7  C   UNL     1      -3.023   3.877   0.276  0.00  0.00    +0.071 A 
ATOM      8  C   UNL     1      -3.214   2.734  -0.481  0.00  0.00    +0.146 A 
ATOM      9  C   UNL     1      -2.196   1.810  -0.608  0.00  0.00    +0.057 A 
ATOM     10  C   UNL     1      -0.978   2.030   0.023  0.00  0.00    +0.036 A 
ATOM     11 CL   UNL     1      -4.306   5.036   0.434  0.00  0.00    -0.081 Cl
BRANCH   8  12
ATOM     12  N   UNL     1      -4.512   2.501  -1.154  0.00  0.00    +0.058 N 
ATOM     13  O   UNL     1      -4.680   1.496  -1.821  0.00  0.00    -0.126 OA
ATOM     14  O   UNL     1      -5.411   3.315  -1.042  0.00  0.00    -0.126 OA
ENDBRANCH   8  12
ENDBRANCH   1  10
BRANCH   2  15
ATOM     15  C   UNL     1       2.455   0.494  -0.136  0.00  0.00    +0.019 C 
BRANCH  15  24
ATOM     16  C   UNL     1       3.842   1.834  -1.601  0.00  0.00    -0.073 C 
ATOM     17  C   UNL     1       4.983   2.864  -1.562  0.00  0.00    +0.024 C 
ATOM     18  C   UNL     1       6.165   2.210  -0.925  0.00  0.00    -0.011 A 
ATOM     19  C   UNL     1       6.169   1.041  -0.224  0.00  0.00    -0.054 A 
ATOM     20  C   UNL     1       7.398   0.622   0.279  0.00  0.00    +0.009 A 
ATOM     21  C   UNL     1       8.507   1.366   0.064  0.00  0.00    +0.045 A 
ATOM     22  S   UNL     1       7.856   2.732  -0.887  0.00  0.00    -0.101 S 
ATOM     23  C   UNL     1       4.864   0.275  -0.032  0.00  0.00    -0.042 C 
ATOM     24  N   UNL     1       3.739   1.212  -0.259  0.00  0.00    +0.388 N 
ATOM     25  H   UNL     1       3.776   1.952   0.452  0.00  0.00    -0.081 HD
ENDBRANCH  15  24
ENDBRANCH   2  15
TORSDOF 4
