REMARK  Name = ZINC20153545
REMARK  8 active torsions:
REMARK  status: ('A' for Active; 'I' for Inactive)
REMARK    1  A    between atoms: C_1  and  O_2
REMARK    2  A    between atoms: O_2  and  C_3
REMARK    3  A    between atoms: C_4  and  N_13
REMARK    4  A    between atoms: C_6  and  C_10
REMARK    5  A    between atoms: N_13  and  C_14
REMARK    6  A    between atoms: C_14  and  N_16
REMARK    7  A    between atoms: C_17  and  C_19
REMARK    8  A    between atoms: C_19  and  C_24
REMARK                            x       y       z     vdW  Elec       q    Type
REMARK                         _______ _______ _______ _____ _____    ______ ____
ROOT
ATOM      1  C   UNL     1      -2.188  -0.677  -3.341  0.00  0.00    +0.141 C 
ATOM      2  S   UNL     1      -1.412  -1.485  -4.636  0.00  0.00    -0.018 S 
ENDROOT
BRANCH   1   3
ATOM      3  N   UNL     1      -3.486  -0.329  -3.445  0.00  0.00    -0.267 N 
ATOM      4  C   UNL     1      -4.173  -0.617  -4.567  0.00  0.00    +0.229 C 
ATOM      5  O   UNL     1      -3.654  -1.274  -5.444  0.00  0.00    -0.274 OA
ATOM      6  H   UNL     1      -3.925   0.129  -2.711  0.00  0.00    +0.157 HD
BRANCH   4   7
ATOM      7  C   UNL     1      -5.587  -0.121  -4.733  0.00  0.00    +0.072 C 
ATOM      8  C   UNL     1      -5.633   1.411  -4.566  0.00  0.00    +0.021 C 
ATOM      9  C   UNL     1      -5.560   1.954  -6.014  0.00  0.00    +0.001 C 
ATOM     10  C   UNL     1      -6.420   0.937  -6.804  0.00  0.00    +0.001 C 
ATOM     11  C   UNL     1      -6.087  -0.423  -6.157  0.00  0.00    +0.021 C 
BRANCH   7  12
ATOM     12  C   UNL     1      -6.486  -0.780  -3.719  0.00  0.00    -0.032 A 
ATOM     13  C   UNL     1      -5.953  -1.639  -2.777  0.00  0.00    +0.004 A 
ATOM     14  C   UNL     1      -6.778  -2.244  -1.847  0.00  0.00    +0.000 A 
ATOM     15  C   UNL     1      -8.136  -1.988  -1.859  0.00  0.00    +0.000 A 
ATOM     16  C   UNL     1      -8.670  -1.128  -2.801  0.00  0.00    +0.000 A 
ATOM     17  C   UNL     1      -7.844  -0.520  -3.728  0.00  0.00    +0.004 A 
ENDBRANCH   7  12
ENDBRANCH   4   7
ENDBRANCH   1   3
BRANCH   1  18
ATOM     18  N   UNL     1      -1.500  -0.389  -2.218  0.00  0.00    -0.294 N 
ATOM     19  H   UNL     1      -1.956   0.007  -1.459  0.00  0.00    +0.154 HD
BRANCH  18  21
ATOM     20  C   UNL     1       0.752   0.303  -1.655  0.00  0.00    +0.159 A 
ATOM     21  C   UNL     1      -0.128  -0.662  -2.148  0.00  0.00    +0.077 A 
ATOM     22  C   UNL     1       0.356  -1.888  -2.566  0.00  0.00    +0.042 A 
ATOM     23  C   UNL     1       1.727  -2.157  -2.493  0.00  0.00    +0.067 A 
ATOM     24  C   UNL     1       2.602  -1.184  -1.999  0.00  0.00    +0.039 A 
ATOM     25  C   UNL     1       2.114   0.038  -1.588  0.00  0.00    +0.085 A 
ATOM     26 CL   UNL     1       3.203   1.246  -0.981  0.00  0.00    -0.080 Cl
BRANCH  23  27
ATOM     27  C   UNL     1       2.247  -3.461  -2.937  0.00  0.00    +0.387 C 
ATOM     28  O   UNL     1       1.481  -4.311  -3.369  0.00  0.00    -0.241 OA
ATOM     29  O   UNL     1       3.446  -3.695  -2.873  0.00  0.00    -0.241 OA
ENDBRANCH  23  27
BRANCH  20  31
ATOM     30  C   UNL     1       0.195   2.542  -2.228  0.00  0.00    +0.277 C 
ATOM     31  O   UNL     1       0.276   1.507  -1.245  0.00  0.00    -0.492 OA
ENDBRANCH  20  31
ENDBRANCH  18  21
ENDBRANCH   1  18
TORSDOF 7
