REMARK  Name = ZINC66677542
REMARK  7 active torsions:
REMARK  status: ('A' for Active; 'I' for Inactive)
REMARK    1  A    between atoms: C_1  and  C_2
REMARK    2  A    between atoms: C_2  and  C_3
REMARK    3  A    between atoms: C_3  and  C_4
REMARK    4  A    between atoms: C_4  and  C_6
REMARK    5  A    between atoms: C_4  and  N_21
REMARK    6  A    between atoms: N_8  and  C_9
REMARK    7  A    between atoms: C_12  and  N_16
REMARK                            x       y       z     vdW  Elec       q    Type
REMARK                         _______ _______ _______ _____ _____    ______ ____
ROOT
ATOM      1  C   UNL     1       1.575  -2.311  -2.527  0.00  0.00    +0.238 C 
ATOM      2  O   UNL     1       1.053  -2.501  -3.605  0.00  0.00    -0.273 OA
ATOM      3  N   UNL     1       2.896  -2.528  -2.369  0.00  0.00    -0.284 N 
ATOM      4  H   UNL     1       3.327  -2.305  -1.529  0.00  0.00    +0.155 HD
ENDROOT
BRANCH   3   5
ATOM      5  C   UNL     1       3.645  -3.075  -3.417  0.00  0.00    +0.035 A 
ATOM      6  C   UNL     1       4.973  -2.706  -3.587  0.00  0.00    +0.025 A 
ATOM      7  C   UNL     1       5.713  -3.245  -4.621  0.00  0.00    +0.031 A 
ATOM      8  C   UNL     1       5.129  -4.156  -5.491  0.00  0.00    +0.084 A 
ATOM      9  C   UNL     1       3.800  -4.526  -5.321  0.00  0.00    +0.068 A 
ATOM     10  C   UNL     1       3.062  -3.991  -4.283  0.00  0.00    +0.045 A 
ATOM     11 CL   UNL     1       3.070  -5.665  -6.409  0.00  0.00    -0.081 Cl
BRANCH   8  12
ATOM     12  N   UNL     1       5.880  -4.703  -6.542  0.00  0.00    -0.238 N 
ATOM     13  C   UNL     1       7.123  -5.227  -6.443  0.00  0.00    +0.114 A 
ATOM     14  C   UNL     1       7.493  -5.644  -7.676  0.00  0.00    +0.041 A 
ATOM     15  C   UNL     1       6.443  -5.367  -8.558  0.00  0.00    +0.135 A 
ATOM     16  N   UNL     1       5.474  -4.809  -7.878  0.00  0.00    -0.175 NA
ENDBRANCH   8  12
ENDBRANCH   3   5
BRANCH   1  17
ATOM     17  C   UNL     1       0.746  -1.831  -1.363  0.00  0.00    +0.161 C 
BRANCH  17  18
ATOM     18  N   UNL     1      -0.668  -2.120  -1.619  0.00  0.00    -0.288 N 
ATOM     19  C   UNL     1      -1.280  -1.590  -2.695  0.00  0.00    +0.298 C 
ATOM     20  O   UNL     1      -0.660  -0.871  -3.455  0.00  0.00    -0.253 OA
ATOM     21  N   UNL     1      -2.580  -1.856  -2.930  0.00  0.00    -0.313 N 
ATOM     22  H   UNL     1      -1.163  -2.694  -1.012  0.00  0.00    +0.151 HD
ATOM     23  H   UNL     1      -3.075  -2.429  -2.324  0.00  0.00    +0.146 HD
ATOM     24  H   UNL     1      -3.021  -1.474  -3.705  0.00  0.00    +0.146 HD
ENDBRANCH  17  18
BRANCH  17  25
ATOM     25  C   UNL     1       0.934  -0.323  -1.190  0.00  0.00    +0.031 C 
BRANCH  25  27
ATOM     26  C   UNL     1       0.381   1.652   0.238  0.00  0.00    +0.004 C 
ATOM     27  C   UNL     1       0.193   0.143   0.065  0.00  0.00    -0.001 C 
ENDBRANCH  25  27
ENDBRANCH  17  25
ENDBRANCH   1  17
TORSDOF 6
