REMARK  Name = ZINC12948522
REMARK  9 active torsions:
REMARK  status: ('A' for Active; 'I' for Inactive)
REMARK    1  A    between atoms: C_1  and  C_2
REMARK    2  A    between atoms: C_2  and  C_4
REMARK    3  A    between atoms: C_2  and  O_14
REMARK    4  A    between atoms: N_9  and  C_10
REMARK    5  A    between atoms: C_10  and  C_11
REMARK    6  A    between atoms: C_10  and  C_12
REMARK    7  A    between atoms: C_10  and  C_13
REMARK    8  A    between atoms: O_14  and  C_15
REMARK    9  A    between atoms: C_15  and  C_17
REMARK                            x       y       z     vdW  Elec       q    Type
REMARK                         _______ _______ _______ _____ _____    ______ ____
ROOT
ATOM      1  O   UNL     1      -2.417   0.989   0.138  0.00  0.00    -0.452 OA
ENDROOT
BRANCH   1   3
ATOM      2  C   UNL     1      -1.483   2.732  -1.283  0.00  0.00    +0.062 C 
ATOM      3  C   UNL     1      -1.330   1.944   0.019  0.00  0.00    +0.259 C 
BRANCH   3   4
ATOM      4  C   UNL     1      -0.014   1.208   0.009  0.00  0.00    +0.261 C 
ATOM      5  O   UNL     1       0.002  -0.004   0.002  0.00  0.00    -0.271 OA
ATOM      6  N   UNL     1       1.143   1.898   0.001  0.00  0.00    -0.237 N 
ATOM      7  C   UNL     1       2.320   1.240  -0.013  0.00  0.00    +0.306 C 
ATOM      8  O   UNL     1       2.336   0.025  -0.020  0.00  0.00    -0.252 OA
ATOM      9  N   UNL     1       3.478   1.930  -0.021  0.00  0.00    -0.294 N 
ATOM     10  H   UNL     1       1.130   2.868   0.007  0.00  0.00    +0.159 HD
ATOM     11  H   UNL     1       3.465   2.900  -0.015  0.00  0.00    +0.151 HD
BRANCH   9  12
ATOM     12  C   UNL     1       4.756   1.214  -0.037  0.00  0.00    +0.028 C 
ATOM     13  C   UNL     1       4.837   0.343  -1.292  0.00  0.00    +0.031 C 
ATOM     14  C   UNL     1       5.905   2.224  -0.042  0.00  0.00    +0.031 C 
ATOM     15  C   UNL     1       4.861   0.329   1.207  0.00  0.00    +0.031 C 
ENDBRANCH   9  12
ENDBRANCH   3   4
ENDBRANCH   1   3
BRANCH   1  16
ATOM     16  C   UNL     1      -3.530   1.408   0.761  0.00  0.00    +0.316 C 
ATOM     17  O   UNL     1      -3.593   2.535   1.193  0.00  0.00    -0.250 OA
BRANCH  16  18
ATOM     18  C   UNL     1      -4.700   0.473   0.923  0.00  0.00    +0.138 C 
ATOM     19  C   UNL     1      -4.264  -0.755   1.722  0.00  0.00    +0.115 C 
ATOM     20  C   UNL     1      -4.051  -0.377   3.164  0.00  0.00    +0.218 C 
ATOM     21  O   UNL     1      -3.140  -0.878   3.788  0.00  0.00    -0.275 OA
ATOM     22  N   UNL     1      -4.860   0.512   3.766  0.00  0.00    -0.285 N 
ATOM     23  C   UNL     1      -5.840   1.193   3.039  0.00  0.00    +0.040 A 
ATOM     24  C   UNL     1      -5.813   1.183   1.651  0.00  0.00    -0.012 A 
ATOM     25  C   UNL     1      -6.805   1.824   0.935  0.00  0.00    +0.009 A 
ATOM     26  C   UNL     1      -7.821   2.487   1.600  0.00  0.00    +0.039 A 
ATOM     27  C   UNL     1      -7.845   2.511   2.984  0.00  0.00    +0.125 A 
ATOM     28  C   UNL     1      -6.856   1.865   3.705  0.00  0.00    +0.062 A 
ATOM     29  F   UNL     1      -8.834   3.164   3.631  0.00  0.00    -0.205 F 
ATOM     30  H   UNL     1      -4.763   0.682   4.716  0.00  0.00    +0.155 HD
ENDBRANCH  16  18
ENDBRANCH   1  16
TORSDOF 5
