REMARK  Name = ZINC19672908
REMARK  7 active torsions:
REMARK  status: ('A' for Active; 'I' for Inactive)
REMARK    1  A    between atoms: C_1  and  C_2
REMARK    2  A    between atoms: C_6  and  C_14
REMARK    3  A    between atoms: C_12  and  C_13
REMARK    4  A    between atoms: C_14  and  S_15
REMARK    5  A    between atoms: S_15  and  C_16
REMARK    6  A    between atoms: N_17  and  C_18
REMARK    7  A    between atoms: C_18  and  C_19
REMARK                            x       y       z     vdW  Elec       q    Type
REMARK                         _______ _______ _______ _____ _____    ______ ____
ROOT
ATOM      1  C   UNL     1       3.581   3.547   0.252  0.00  0.00    +0.113 C 
ENDROOT
BRANCH   1   7
ATOM      2  C   UNL     1      -1.412  -0.700   1.368  0.00  0.00    +0.044 C 
ATOM      3  C   UNL     1      -0.112   0.021   1.121  0.00  0.00    -0.044 A 
ATOM      4  C   UNL     1      -0.110   1.399   0.966  0.00  0.00    +0.004 A 
ATOM      5  C   UNL     1       1.059   2.070   0.741  0.00  0.00    +0.012 A 
ATOM      6  C   UNL     1       2.262   1.361   0.667  0.00  0.00    +0.022 A 
ATOM      7  C   UNL     1       3.533   2.051   0.427  0.00  0.00    -0.020 A 
ATOM      8  C   UNL     1       4.665   1.306   0.366  0.00  0.00    +0.097 A 
ATOM      9  C   UNL     1       4.593  -0.094   0.533  0.00  0.00    +0.338 A 
ATOM     10  O   UNL     1       5.617  -0.752   0.476  0.00  0.00    -0.245 OA
ATOM     11  O   UNL     1       3.426  -0.719   0.753  0.00  0.00    -0.422 OA
ATOM     12  C   UNL     1       2.264  -0.036   0.824  0.00  0.00    +0.142 A 
ATOM     13  C   UNL     1       1.063  -0.697   1.052  0.00  0.00    -0.005 A 
ATOM     14  C   UNL     1       1.046  -2.194   1.223  0.00  0.00    +0.048 C 
ENDBRANCH   1   7
BRANCH   1  15
ATOM     15  S   UNL     1       3.814   4.336   1.864  0.00  0.00    -0.088 S 
BRANCH  15  16
ATOM     16  C   UNL     1       3.833   6.029   1.377  0.00  0.00    +0.126 C 
ATOM     17  N   UNL     1       3.694   6.348   0.119  0.00  0.00    -0.361 N 
ATOM     18  N   UNL     1       3.994   7.016   2.322  0.00  0.00    -0.339 N 
ATOM     19  H   UNL     1       4.005   8.073   2.017  0.00  0.00    +0.144 HD
ATOM     20  H   UNL     1       4.111   6.747   3.382  0.00  0.00    +0.144 HD
ATOM     21  H   UNL     1       3.668   5.560  -0.648  0.00  0.00    +0.162 HD
BRANCH  17  22
ATOM     22  C   UNL     1       3.572   7.754  -0.271  0.00  0.00    +0.189 C 
BRANCH  22  23
ATOM     23  C   UNL     1       4.774   8.154  -1.088  0.00  0.00    +0.124 A 
ATOM     24  C   UNL     1       4.880   8.065  -2.426  0.00  0.00    +0.046 A 
ATOM     25  C   UNL     1       6.165   8.546  -2.768  0.00  0.00    +0.041 A 
ATOM     26  C   UNL     1       6.767   8.899  -1.618  0.00  0.00    +0.195 A 
ATOM     27  O   UNL     1       5.917   8.666  -0.604  0.00  0.00    -0.466 OA
ENDBRANCH  22  23
ENDBRANCH  17  22
ENDBRANCH  15  16
ENDBRANCH   1  15
TORSDOF 5
