REMARK  Name = ZINC11814116
REMARK  16 active torsions:
REMARK  status: ('A' for Active; 'I' for Inactive)
REMARK    1  A    between atoms: C_1  and  C_2
REMARK    2  A    between atoms: C_2  and  C_3
REMARK    3  A    between atoms: C_2  and  C_4
REMARK    4  A    between atoms: C_4  and  C_5
REMARK    5  A    between atoms: C_5  and  C_7
REMARK    6  A    between atoms: C_5  and  N_29
REMARK    7  A    between atoms: C_16  and  C_17
REMARK    8  A    between atoms: C_16  and  N_71
REMARK    9  A    between atoms: C_20  and  C_23
REMARK   10  A    between atoms: C_24  and  C_25
REMARK   11  A    between atoms: C_25  and  C_26
REMARK   12  A    between atoms: C_25  and  C_27
REMARK   13  A    between atoms: C_25  and  O_28
REMARK   14  A    between atoms: C_30  and  C_32
REMARK   15  A    between atoms: C_32  and  O_33
REMARK   16  A    between atoms: O_33  and  C_34
REMARK                            x       y       z     vdW  Elec       q    Type
REMARK                         _______ _______ _______ _____ _____    ______ ____
ROOT
ATOM      1  C   UNL     1       0.813  -0.489  -1.172  0.00  0.00    +0.154 A 
ATOM      2  N   UNL     1       0.441  -0.489  -2.425  0.00  0.00    -0.132 NA
ATOM      3  N   UNL     1       1.386  -0.964  -3.160  0.00  0.00    -0.134 NA
ATOM      4  C   UNL     1       2.400  -1.282  -2.410  0.00  0.00    +0.132 A 
ATOM      5  N   UNL     1       2.061  -1.000  -1.128  0.00  0.00    -0.315 N 
ATOM      6  C   UNL     1       2.887  -1.246   0.054  0.00  0.00    +0.106 C 
ATOM      7  C   UNL     1       4.364  -1.189  -0.346  0.00  0.00    -0.056 C 
ATOM      8  C   UNL     1       4.092  -3.019  -1.927  0.00  0.00    -0.071 C 
ATOM      9  C   UNL     1       3.728  -1.848  -2.845  0.00  0.00    +0.058 C 
ATOM     10  N   UNL     1       4.857  -2.522  -0.763  0.00  0.00    +0.384 N 
ATOM     11  H   UNL     1       5.846  -2.440  -1.028  0.00  0.00    -0.081 HD
ENDROOT
BRANCH   1  12
ATOM     12  C   UNL     1       0.002  -0.004   0.002  0.00  0.00    +0.141 C 
BRANCH  12  13
ATOM     13  N   UNL     1      -1.368  -0.510  -0.108  0.00  0.00    -0.304 N 
ATOM     14  C   UNL     1      -2.124  -0.655   0.999  0.00  0.00    +0.239 C 
ATOM     15  O   UNL     1      -1.669  -0.367   2.085  0.00  0.00    -0.273 OA
ATOM     16  H   UNL     1      -1.732  -0.741  -0.977  0.00  0.00    +0.149 HD
BRANCH  14  17
ATOM     17  C   UNL     1      -3.534  -1.176   0.885  0.00  0.00    +0.255 C 
BRANCH  17  18
ATOM     18  O   UNL     1      -4.124  -1.240   2.185  0.00  0.00    -0.374 OA
ATOM     19  C   UNL     1      -5.468  -1.724   2.190  0.00  0.00    +0.194 C 
ENDBRANCH  17  18
ENDBRANCH  14  17
ENDBRANCH  12  13
BRANCH  12  20
ATOM     20  C   UNL     1      -0.019   1.526   0.010  0.00  0.00    +0.033 C 
BRANCH  20  22
ATOM     21  C   UNL     1       0.073   1.619   2.506  0.00  0.00    +0.007 C 
ATOM     22  C   UNL     1      -0.735   2.019   1.269  0.00  0.00    -0.015 C 
ATOM     23  C   UNL     1      -0.866   3.543   1.217  0.00  0.00    +0.007 C 
ENDBRANCH  20  22
ENDBRANCH  12  20
ENDBRANCH   1  12
BRANCH  10  24
ATOM     24  C   UNL     1       4.741  -3.473   0.357  0.00  0.00    -0.043 C 
BRANCH  24  25
ATOM     25  C   UNL     1       5.473  -4.738  -0.010  0.00  0.00    -0.064 A 
ATOM     26  C   UNL     1       4.795  -5.771  -0.631  0.00  0.00    +0.003 A 
ATOM     27  C   UNL     1       5.461  -6.930  -0.974  0.00  0.00    +0.017 A 
ATOM     28  C   UNL     1       6.819  -7.062  -0.683  0.00  0.00    +0.025 A 
ATOM     29  C   UNL     1       7.496  -6.019  -0.051  0.00  0.00    +0.017 A 
ATOM     30  C   UNL     1       6.820  -4.863   0.282  0.00  0.00    +0.003 A 
BRANCH  28  31
ATOM     31  C   UNL     1       7.515  -8.264  -1.032  0.00  0.00    -0.063 C 
ATOM     32  C   UNL     1       8.086  -9.250  -1.318  0.00  0.00    -0.063 C 
BRANCH  32  33
ATOM     33  C   UNL     1       8.801 -10.485  -1.677  0.00  0.00    +0.121 C 
ATOM     34  C   UNL     1       7.833 -11.458  -2.353  0.00  0.00    +0.055 C 
ATOM     35  C   UNL     1       9.944 -10.152  -2.639  0.00  0.00    +0.055 C 
BRANCH  33  36
ATOM     36  O   UNL     1       9.334 -11.087  -0.495  0.00  0.00    -0.377 OA
ATOM     37  H   UNL     1       8.665 -11.325   0.161  0.00  0.00    +0.211 HD
ENDBRANCH  33  36
ENDBRANCH  32  33
ENDBRANCH  28  31
ENDBRANCH  24  25
ENDBRANCH  10  24
TORSDOF 11
