REMARK  Name = ZINC06443544
REMARK  9 active torsions:
REMARK  status: ('A' for Active; 'I' for Inactive)
REMARK    1  A    between atoms: C_1  and  C_2
REMARK    2  A    between atoms: C_12  and  C_14
REMARK    3  A    between atoms: C_14  and  N_58
REMARK    4  A    between atoms: C_15  and  C_16
REMARK    5  A    between atoms: C_15  and  N_58
REMARK    6  A    between atoms: C_21  and  C_22
REMARK    7  A    between atoms: C_21  and  N_58
REMARK    8  A    between atoms: N_26  and  C_27
REMARK    9  A    between atoms: C_27  and  C_28
REMARK                            x       y       z     vdW  Elec       q    Type
REMARK                         _______ _______ _______ _____ _____    ______ ____
ROOT
ATOM      1  N   UNL     1       5.534   4.848   1.758  0.00  0.00    +0.392 N 
ATOM      2  H   UNL     1       5.701   4.002   2.315  0.00  0.00    -0.080 HD
ENDROOT
BRANCH   1   3
ATOM      3  C   UNL     1       4.914   4.461   0.473  0.00  0.00    -0.036 C 
BRANCH   3  15
ATOM      4  C   UNL     1       0.600  -0.300   1.861  0.00  0.00    +0.046 C 
ATOM      5  C   UNL     1       0.404   1.162   1.555  0.00  0.00    -0.026 A 
ATOM      6  C   UNL     1      -0.865   1.700   1.530  0.00  0.00    +0.005 A 
ATOM      7  C   UNL     1      -1.059   3.047   1.255  0.00  0.00    +0.001 A 
ATOM      8  C   UNL     1       0.005   3.862   0.992  0.00  0.00    +0.010 A 
ATOM      9  C   UNL     1       1.301   3.337   1.005  0.00  0.00    -0.001 A 
ATOM     10  C   UNL     1       1.502   1.973   1.290  0.00  0.00    +0.052 A 
ATOM     11  N   UNL     1       2.782   1.461   1.302  0.00  0.00    -0.322 N 
ATOM     12  H   UNL     1       2.919   0.521   1.498  0.00  0.00    +0.169 HD
ATOM     13  C   UNL     1       3.843   2.246   1.045  0.00  0.00    +0.251 A 
ATOM     14  O   UNL     1       4.960   1.759   1.064  0.00  0.00    -0.268 OA
ATOM     15  C   UNL     1       3.696   3.619   0.754  0.00  0.00    +0.001 A 
ATOM     16  C   UNL     1       2.463   4.183   0.728  0.00  0.00    +0.017 A 
ENDBRANCH   3  15
ENDBRANCH   1   3
BRANCH   1  17
ATOM     17  C   UNL     1       4.628   5.745   2.506  0.00  0.00    -0.002 C 
BRANCH  17  18
ATOM     18  C   UNL     1       5.025   5.726   3.960  0.00  0.00    +0.089 A 
ATOM     19  C   UNL     1       5.799   6.638   4.576  0.00  0.00    +0.042 A 
ATOM     20  C   UNL     1       5.912   6.234   5.926  0.00  0.00    +0.041 A 
ATOM     21  C   UNL     1       5.200   5.100   6.054  0.00  0.00    +0.195 A 
ATOM     22  O   UNL     1       4.660   4.800   4.862  0.00  0.00    -0.470 OA
ENDBRANCH  17  18
ENDBRANCH   1  17
BRANCH   1  23
ATOM     23  C   UNL     1       6.825   5.524   1.512  0.00  0.00    +0.001 C 
BRANCH  23  24
ATOM     24  C   UNL     1       7.623   5.521   2.790  0.00  0.00    +0.135 A 
ATOM     25  N   UNL     1       7.564   4.629   3.748  0.00  0.00    -0.115 NA
ATOM     26  N   UNL     1       8.396   4.976   4.668  0.00  0.00    -0.023 NA
ATOM     27  N   UNL     1       8.985   6.067   4.322  0.00  0.00    -0.044 NA
ATOM     28  N   UNL     1       8.540   6.432   3.167  0.00  0.00    -0.229 N 
BRANCH  28  29
ATOM     29  C   UNL     1       8.951   7.618   2.411  0.00  0.00    +0.178 C 
BRANCH  29  30
ATOM     30  C   UNL     1       8.079   8.808   2.815  0.00  0.00    +0.140 C 
ATOM     31  C   UNL     1       8.522  10.082   2.052  0.00  0.00    +0.035 C 
ATOM     32  C   UNL     1       7.208  10.913   2.081  0.00  0.00    +0.031 C 
ATOM     33  C   UNL     1       6.124   9.818   1.991  0.00  0.00    +0.160 C 
ATOM     34  O   UNL     1       6.716   8.586   2.420  0.00  0.00    -0.375 OA
ENDBRANCH  29  30
ENDBRANCH  28  29
ENDBRANCH  23  24
ENDBRANCH   1  23
TORSDOF 8
