REMARK  Name = ZINC05726727
REMARK  7 active torsions:
REMARK  status: ('A' for Active; 'I' for Inactive)
REMARK    1  A    between atoms: C_1  and  C_2
REMARK    2  A    between atoms: C_2  and  C_3
REMARK    3  A    between atoms: C_2  and  C_4
REMARK    4  A    between atoms: C_2  and  C_5
REMARK    5  A    between atoms: C_16  and  C_19
REMARK    6  A    between atoms: C_17  and  O_18
REMARK    7  A    between atoms: N_20  and  C_21
REMARK                            x       y       z     vdW  Elec       q    Type
REMARK                         _______ _______ _______ _____ _____    ______ ____
ROOT
ATOM      1  C   UNL     1       0.707  -0.490  -1.238  0.00  0.00    +0.004 A 
ATOM      2  C   UNL     1       1.212   0.426  -2.137  0.00  0.00    +0.054 A 
ATOM      3  C   UNL     1       1.866  -0.001  -3.287  0.00  0.00    +0.137 A 
ATOM      4  C   UNL     1       2.012  -1.376  -3.532  0.00  0.00    +0.036 A 
ATOM      5  C   UNL     1       2.728  -1.470  -4.796  0.00  0.00    +0.002 A 
ATOM      6  C   UNL     1       2.954  -0.208  -5.208  0.00  0.00    +0.109 A 
ATOM      7  O   UNL     1       2.445   0.655  -4.317  0.00  0.00    -0.459 OA
ATOM      8  C   UNL     1       3.678   0.134  -6.491  0.00  0.00    +0.075 C 
ATOM      9  C   UNL     1       4.440  -1.108  -6.966  0.00  0.00    +0.008 C 
ATOM     10  C   UNL     1       3.496  -2.313  -6.982  0.00  0.00    +0.005 C 
ATOM     11  C   UNL     1       3.153  -2.708  -5.540  0.00  0.00    +0.039 C 
ATOM     12  C   UNL     1       1.496  -2.313  -2.611  0.00  0.00    +0.046 A 
ATOM     13  C   UNL     1       0.846  -1.854  -1.458  0.00  0.00    +0.130 A 
ENDROOT
BRANCH   1  15
ATOM     14  C   UNL     1      -0.019   1.526   0.010  0.00  0.00    +0.015 C 
ATOM     15  C   UNL     1       0.002  -0.004   0.002  0.00  0.00    -0.009 C 
ATOM     16  C   UNL     1       0.742  -0.511   1.242  0.00  0.00    +0.015 C 
ATOM     17  C   UNL     1      -1.433  -0.534   0.013  0.00  0.00    +0.015 C 
ENDBRANCH   1  15
BRANCH  13  18
ATOM     18  O   UNL     1       0.348  -2.741  -0.559  0.00  0.00    -0.506 OA
ATOM     19  H   UNL     1      -0.566  -3.006  -0.733  0.00  0.00    +0.292 HD
ENDBRANCH  13  18
BRANCH  12  20
ATOM     20  C   UNL     1       1.644  -3.749  -2.856  0.00  0.00    +0.125 C 
ATOM     21  N   UNL     1       1.163  -4.611  -1.998  0.00  0.00    -0.237 NA
BRANCH  21  22
ATOM     22  C   UNL     1       1.301  -5.951  -2.226  0.00  0.00    +0.131 A 
ATOM     23  C   UNL     1       1.043  -6.468  -3.499  0.00  0.00    +0.046 A 
ATOM     24  C   UNL     1       1.188  -7.826  -3.714  0.00  0.00    +0.005 A 
ATOM     25  C   UNL     1       1.584  -8.627  -2.651  0.00  0.00    +0.018 A 
ATOM     26  C   UNL     1       1.823  -8.051  -1.417  0.00  0.00    +0.084 A 
ATOM     27  N   UNL     1       1.683  -6.753  -1.238  0.00  0.00    -0.346 N 
ATOM     28  H   UNL     1       1.861  -6.374  -0.363  0.00  0.00    +0.167 HD
ENDBRANCH  21  22
ENDBRANCH  12  20
TORSDOF 4
