REMARK  Name = ZINC09632909
REMARK  5 active torsions:
REMARK  status: ('A' for Active; 'I' for Inactive)
REMARK    1  A    between atoms: C_7  and  C_21
REMARK    2  A    between atoms: C_12  and  C_13
REMARK    3  A    between atoms: C_21  and  O_23
REMARK    4  A    between atoms: O_23  and  C_24
REMARK    5  A    between atoms: C_24  and  C_25
REMARK                            x       y       z     vdW  Elec       q    Type
REMARK                         _______ _______ _______ _____ _____    ______ ____
ROOT
ATOM      1  C   UNL     1       1.208   2.208   2.084  0.00  0.00    +0.001 A 
ATOM      2  C   UNL     1       1.099   0.869   1.717  0.00  0.00    +0.002 A 
ATOM      3  C   UNL     1      -0.090   0.345   1.313  0.00  0.00    +0.028 A 
ATOM      4  C   UNL     1      -1.232   1.166   1.258  0.00  0.00    +0.072 A 
ATOM      5  C   UNL     1      -1.117   2.527   1.640  0.00  0.00    +0.015 A 
ATOM      6  C   UNL     1       0.121   3.032   2.049  0.00  0.00    +0.011 A 
ATOM      7  C   UNL     1      -2.310   3.373   1.591  0.00  0.00    +0.073 A 
ATOM      8  C   UNL     1      -3.494   2.791   1.157  0.00  0.00    -0.007 A 
ATOM      9  C   UNL     1      -3.501   1.431   0.798  0.00  0.00    +0.072 A 
ATOM     10  N   UNL     1      -2.409   0.685   0.860  0.00  0.00    -0.247 NA
ATOM     11  C   UNL     1      -4.757   0.809   0.331  0.00  0.00    -0.021 C 
ATOM     12  C   UNL     1      -4.759  -0.410  -0.248  0.00  0.00    +0.020 C 
ATOM     13  C   UNL     1      -6.042   1.585   0.524  0.00  0.00    +0.037 C 
ATOM     14  C   UNL     1      -5.764   3.043   0.137  0.00  0.00    +0.009 C 
ATOM     15  C   UNL     1      -4.738   3.634   1.101  0.00  0.00    +0.038 C 
ENDROOT
BRANCH  12  16
ATOM     16  C   UNL     1      -3.495  -1.041  -0.629  0.00  0.00    +0.013 A 
ATOM     17  C   UNL     1      -3.101  -2.363  -0.489  0.00  0.00    +0.015 A 
ATOM     18  C   UNL     1      -1.851  -2.721  -0.933  0.00  0.00    +0.008 A 
ATOM     19  C   UNL     1      -1.042  -1.774  -1.480  0.00  0.00    +0.046 A 
ATOM     20  S   UNL     1      -2.055  -0.308  -1.389  0.00  0.00    -0.097 S 
ENDBRANCH  12  16
BRANCH   7  21
ATOM     21  C   UNL     1      -2.253   4.799   1.972  0.00  0.00    +0.341 C 
ATOM     22  O   UNL     1      -2.006   5.643   1.133  0.00  0.00    -0.245 OA
BRANCH  21  23
ATOM     23  O   UNL     1      -2.475   5.165   3.249  0.00  0.00    -0.452 OA
BRANCH  23  24
ATOM     24  C   UNL     1      -2.403   6.583   3.551  0.00  0.00    +0.328 C 
BRANCH  24  25
ATOM     25  C   UNL     1      -2.677   6.799   5.017  0.00  0.00    +0.258 C 
ATOM     26  O   UNL     1      -2.909   5.851   5.737  0.00  0.00    -0.272 OA
ATOM     27  N   UNL     1      -2.663   8.046   5.529  0.00  0.00    -0.238 N 
ATOM     28  C   UNL     1      -2.907   8.239   6.840  0.00  0.00    +0.303 C 
ATOM     29  O   UNL     1      -3.141   7.289   7.561  0.00  0.00    -0.253 OA
ATOM     30  N   UNL     1      -2.893   9.486   7.351  0.00  0.00    -0.313 N 
ATOM     31  H   UNL     1      -2.476   8.804   4.953  0.00  0.00    +0.159 HD
ATOM     32  H   UNL     1      -2.707  10.245   6.776  0.00  0.00    +0.146 HD
ATOM     33  H   UNL     1      -3.069   9.625   8.295  0.00  0.00    +0.146 HD
ENDBRANCH  24  25
ENDBRANCH  23  24
ENDBRANCH  21  23
ENDBRANCH   7  21
TORSDOF 5
