REMARK  Name = ZINC67084348
REMARK  5 active torsions:
REMARK  status: ('A' for Active; 'I' for Inactive)
REMARK    1  A    between atoms: C_5  and  C_7
REMARK    2  A    between atoms: C_7  and  C_8
REMARK    3  A    between atoms: C_8  and  N_9
REMARK    4  A    between atoms: C_10  and  C_12
REMARK    5  A    between atoms: C_17  and  N_18
REMARK                            x       y       z     vdW  Elec       q    Type
REMARK                         _______ _______ _______ _____ _____    ______ ____
ROOT
ATOM      1  N   UNL     1       0.895  -4.071   2.101  0.00  0.00    -0.311 N 
ATOM      2  C   UNL     1       1.376  -4.897   3.051  0.00  0.00    +0.246 C 
ATOM      3  O   UNL     1       1.732  -4.448   4.123  0.00  0.00    -0.270 OA
ATOM      4  H   UNL     1       0.611  -4.429   1.246  0.00  0.00    +0.149 HD
ENDROOT
BRANCH   2   5
ATOM      5  C   UNL     1       1.469  -6.349   2.790  0.00  0.00    +0.067 A 
ATOM      6  C   UNL     1       0.340  -7.062   2.382  0.00  0.00    +0.015 A 
ATOM      7  C   UNL     1       0.434  -8.417   2.140  0.00  0.00    +0.001 A 
ATOM      8  C   UNL     1       1.643  -9.069   2.299  0.00  0.00    +0.002 A 
ATOM      9  C   UNL     1       2.766  -8.369   2.703  0.00  0.00    +0.033 A 
ATOM     10  C   UNL     1       2.687  -7.012   2.943  0.00  0.00    +0.138 A 
BRANCH  10  11
ATOM     11  N   UNL     1       3.891  -6.263   3.369  0.00  0.00    +0.057 N 
ATOM     12  O   UNL     1       4.914  -6.856   3.622  0.00  0.00    -0.126 OA
ATOM     13  O   UNL     1       3.850  -5.059   3.465  0.00  0.00    -0.126 OA
ENDBRANCH  10  11
ENDBRANCH   2   5
BRANCH   1  14
ATOM     14  C   UNL     1       0.803  -2.632   2.360  0.00  0.00    +0.109 C 
BRANCH  14  15
ATOM     15  C   UNL     1       0.230  -1.928   1.129  0.00  0.00    +0.055 C 
BRANCH  15  20
ATOM     16  C   UNL     1      -1.138   1.456   2.094  0.00  0.00    +0.000 A 
ATOM     17  C   UNL     1      -0.040   2.269   1.883  0.00  0.00    +0.001 A 
ATOM     18  C   UNL     1       1.146   1.725   1.429  0.00  0.00    +0.020 A 
ATOM     19  C   UNL     1       1.234   0.365   1.184  0.00  0.00    +0.044 A 
ATOM     20  C   UNL     1       0.135  -0.447   1.395  0.00  0.00    -0.028 A 
ATOM     21  C   UNL     1      -1.051   0.099   1.850  0.00  0.00    +0.005 A 
ATOM     22 CL   UNL     1       2.723  -0.319   0.612  0.00  0.00    -0.083 Cl
ENDBRANCH  15  20
ENDBRANCH  14  15
ENDBRANCH   1  14
TORSDOF 5
