REMARK  Name = ZINC32730476
REMARK  10 active torsions:
REMARK  status: ('A' for Active; 'I' for Inactive)
REMARK    1  A    between atoms: C_1  and  N_2
REMARK    2  A    between atoms: N_2  and  C_3
REMARK    3  A    between atoms: N_2  and  C_4
REMARK    4  A    between atoms: C_4  and  C_6
REMARK    5  A    between atoms: C_4  and  C_26
REMARK    6  A    between atoms: C_6  and  N_7
REMARK    7  A    between atoms: C_8  and  C_10
REMARK    8  A    between atoms: C_10  and  N_15
REMARK    9  A    between atoms: N_18  and  C_19
REMARK   10  A    between atoms: C_19  and  C_20
REMARK                            x       y       z     vdW  Elec       q    Type
REMARK                         _______ _______ _______ _____ _____    ______ ____
ROOT
ATOM      1  C   UNL     1      -0.323   8.903  -3.112  0.00  0.00    +0.112 C 
ATOM      2  C   UNL     1      -1.579   9.413  -2.386  0.00  0.00    +0.035 C 
ATOM      3  C   UNL     1      -2.584   9.825  -3.483  0.00  0.00    +0.003 C 
ATOM      4  C   UNL     1      -2.152   9.004  -4.723  0.00  0.00    +0.003 C 
ATOM      5  C   UNL     1      -0.607   9.023  -4.624  0.00  0.00    +0.035 C 
ENDROOT
BRANCH   1   6
ATOM      6  N   UNL     1      -0.072   7.504  -2.759  0.00  0.00    -0.285 N 
ATOM      7  C   UNL     1       0.106   7.156  -1.469  0.00  0.00    +0.301 C 
ATOM      8  O   UNL     1       0.140   8.014  -0.607  0.00  0.00    -0.253 OA
ATOM      9  N   UNL     1       0.247   5.858  -1.134  0.00  0.00    -0.295 N 
ATOM     10  H   UNL     1      -0.029   6.737  -3.546  0.00  0.00    +0.151 HD
ATOM     11  H   UNL     1       0.216   5.083  -1.913  0.00  0.00    +0.151 HD
BRANCH   9  12
ATOM     12  C   UNL     1       0.441   5.481   0.268  0.00  0.00    +0.141 C 
BRANCH  12  13
ATOM     13  C   UNL     1       0.571   3.983   0.372  0.00  0.00    -0.030 A 
ATOM     14  C   UNL     1       1.815   3.389   0.280  0.00  0.00    +0.005 A 
ATOM     15  C   UNL     1       1.934   2.015   0.376  0.00  0.00    +0.000 A 
ATOM     16  C   UNL     1       0.808   1.235   0.562  0.00  0.00    +0.000 A 
ATOM     17  C   UNL     1      -0.437   1.829   0.648  0.00  0.00    +0.000 A 
ATOM     18  C   UNL     1      -0.555   3.203   0.558  0.00  0.00    +0.005 A 
ENDBRANCH  12  13
ENDBRANCH   9  12
ENDBRANCH   1   6
BRANCH   1  20
ATOM     19  N   UNL     1       2.108   9.223  -2.781  0.00  0.00    -0.315 N 
ATOM     20  C   UNL     1       0.868   9.750  -2.742  0.00  0.00    +0.237 C 
ATOM     21  O   UNL     1       0.710  10.905  -2.409  0.00  0.00    -0.273 OA
ATOM     22  H   UNL     1       2.245   8.155  -3.003  0.00  0.00    +0.149 HD
BRANCH  19  23
ATOM     23  C   UNL     1       3.273  10.074  -2.527  0.00  0.00    +0.093 C 
BRANCH  23  24
ATOM     24  C   UNL     1       4.549   9.236  -2.631  0.00  0.00    -0.021 C 
BRANCH  24  25
ATOM     25  C   UNL     1       5.737  10.080  -2.249  0.00  0.00    -0.057 A 
ATOM     26  C   UNL     1       5.668  10.915  -1.149  0.00  0.00    +0.002 A 
ATOM     27  C   UNL     1       6.758  11.687  -0.796  0.00  0.00    +0.003 A 
ATOM     28  C   UNL     1       7.917  11.633  -1.548  0.00  0.00    +0.038 A 
ATOM     29  C   UNL     1       7.986  10.801  -2.653  0.00  0.00    +0.124 A 
ATOM     30  C   UNL     1       6.894  10.024  -3.003  0.00  0.00    +0.040 A 
ATOM     31  F   UNL     1       9.117  10.748  -3.389  0.00  0.00    -0.205 F 
ENDBRANCH  24  25
BRANCH  24  33
ATOM     32  C   UNL     1       5.602   7.185  -1.891  0.00  0.00    -0.096 C 
ATOM     33  N   UNL     1       4.454   8.085  -1.722  0.00  0.00    +0.382 N 
ATOM     34  C   UNL     1       4.332   8.526  -0.326  0.00  0.00    -0.096 C 
ATOM     35  H   UNL     1       3.544   7.524  -1.980  0.00  0.00    -0.082 HD
ENDBRANCH  24  33
ENDBRANCH  23  24
ENDBRANCH  19  23
ENDBRANCH   1  20
TORSDOF 8
