REMARK  Name = ZINC40922469
REMARK  7 active torsions:
REMARK  status: ('A' for Active; 'I' for Inactive)
REMARK    1  A    between atoms: C_1  and  C_2
REMARK    2  A    between atoms: C_2  and  C_3
REMARK    3  A    between atoms: C_3  and  O_4
REMARK    4  A    between atoms: O_4  and  C_5
REMARK    5  A    between atoms: C_9  and  C_11
REMARK    6  A    between atoms: C_13  and  C_22
REMARK    7  A    between atoms: C_14  and  C_21
REMARK                            x       y       z     vdW  Elec       q    Type
REMARK                         _______ _______ _______ _____ _____    ______ ____
ROOT
ATOM      1  C   UNL     1      -3.996  -6.046   0.001  0.00  0.00    +0.179 C 
ATOM      2  C   UNL     1      -4.752  -6.405   1.253  0.00  0.00    +0.060 C 
ATOM      3  C   UNL     1      -5.950  -7.006   1.239  0.00  0.00    +0.018 C 
ATOM      4  N   UNL     1      -6.582  -7.355   0.070  0.00  0.00    -0.286 N 
ATOM      5  C   UNL     1      -5.836  -7.303  -1.098  0.00  0.00    +0.240 A 
ATOM      6  N   UNL     1      -4.620  -6.698  -1.145  0.00  0.00    -0.201 N 
ATOM      7  N   UNL     1      -4.176  -6.851  -2.457  0.00  0.00    -0.042 NA
ATOM      8  N   UNL     1      -5.103  -7.498  -3.086  0.00  0.00    -0.021 NA
ATOM      9  N   UNL     1      -6.083  -7.765  -2.290  0.00  0.00    -0.092 NA
ATOM     10  C   UNL     1      -6.626  -7.311   2.551  0.00  0.00    +0.061 C 
ATOM     11  H   UNL     1      -7.513  -7.627   0.062  0.00  0.00    +0.155 HD
ENDROOT
BRANCH   1  16
ATOM     12  C   UNL     1      -2.871  -2.463  -0.410  0.00  0.00    +0.121 A 
ATOM     13  C   UNL     1      -4.086  -1.808  -0.550  0.00  0.00    +0.045 A 
ATOM     14  C   UNL     1      -5.265  -2.526  -0.511  0.00  0.00    +0.004 A 
ATOM     15  C   UNL     1      -5.235  -3.897  -0.333  0.00  0.00    +0.006 A 
ATOM     16  C   UNL     1      -4.025  -4.552  -0.193  0.00  0.00    -0.015 A 
ATOM     17  C   UNL     1      -2.843  -3.839  -0.237  0.00  0.00    +0.051 A 
BRANCH  12  18
ATOM     18  O   UNL     1      -1.709  -1.758  -0.449  0.00  0.00    -0.492 OA
BRANCH  18  19
ATOM     19  C   UNL     1      -1.814  -0.344  -0.630  0.00  0.00    +0.229 C 
BRANCH  19  21
ATOM     20  C   UNL     1      -0.526   1.786  -0.841  0.00  0.00    +0.007 C 
ATOM     21  C   UNL     1      -0.414   0.273  -0.647  0.00  0.00    +0.038 C 
ENDBRANCH  19  21
ENDBRANCH  18  19
ENDBRANCH  12  18
ENDBRANCH   1  16
BRANCH   2  22
ATOM     22  C   UNL     1      -4.169  -6.093   2.505  0.00  0.00    +0.241 C 
ATOM     23  O   UNL     1      -3.237  -6.755   2.924  0.00  0.00    -0.271 OA
ATOM     24  N   UNL     1      -4.645  -5.064   3.232  0.00  0.00    -0.325 N 
ATOM     25  H   UNL     1      -5.388  -4.536   2.898  0.00  0.00    +0.145 HD
ATOM     26  H   UNL     1      -4.246  -4.850   4.090  0.00  0.00    +0.145 HD
ENDBRANCH   2  22
TORSDOF 5
