REMARK  Name = ZINC36617837
REMARK  7 active torsions:
REMARK  status: ('A' for Active; 'I' for Inactive)
REMARK    1  A    between atoms: N_9  and  N_23
REMARK    2  A    between atoms: C_10  and  C_12
REMARK    3  A    between atoms: C_12  and  O_13
REMARK    4  A    between atoms: O_13  and  C_14
REMARK    5  A    between atoms: C_19  and  C_20
REMARK    6  A    between atoms: C_24  and  C_25
REMARK    7  A    between atoms: C_30  and  O_31
REMARK                            x       y       z     vdW  Elec       q    Type
REMARK                         _______ _______ _______ _____ _____    ______ ____
ROOT
ATOM      1  C   UNL     1      -0.013   1.357   0.252  0.00  0.00    +0.001 A 
ATOM      2  C   UNL     1       1.161   2.086   0.110  0.00  0.00    +0.002 A 
ATOM      3  C   UNL     1       2.373   1.449  -0.033  0.00  0.00    +0.028 A 
ATOM      4  C   UNL     1       2.422   0.053  -0.033  0.00  0.00    +0.078 A 
ATOM      5  C   UNL     1       1.223  -0.680   0.113  0.00  0.00    +0.067 A 
ATOM      6  C   UNL     1       0.009  -0.010   0.255  0.00  0.00    +0.015 A 
ATOM      7  C   UNL     1       1.306  -2.147   0.109  0.00  0.00    +0.282 A 
ATOM      8  O   UNL     1       0.311  -2.837   0.230  0.00  0.00    -0.265 OA
ATOM      9  N   UNL     1       2.533  -2.701  -0.036  0.00  0.00    -0.178 N 
ATOM     10  C   UNL     1       3.635  -1.917  -0.170  0.00  0.00    +0.172 A 
ATOM     11  N   UNL     1       3.592  -0.618  -0.170  0.00  0.00    -0.228 NA
ENDROOT
BRANCH   9  12
ATOM     12  N   UNL     1       2.667  -4.096  -0.047  0.00  0.00    -0.170 NA
ATOM     13  C   UNL     1       2.158  -4.790  -1.020  0.00  0.00    +0.145 C 
BRANCH  13  14
ATOM     14  C   UNL     1       2.200  -6.261  -0.975  0.00  0.00    +0.037 A 
ATOM     15  C   UNL     1       1.659  -7.011  -2.023  0.00  0.00    +0.028 A 
ATOM     16  C   UNL     1       1.701  -8.389  -1.975  0.00  0.00    +0.019 A 
ATOM     17  C   UNL     1       2.278  -9.033  -0.891  0.00  0.00    +0.019 A 
ATOM     18  C   UNL     1       2.816  -8.302   0.150  0.00  0.00    +0.047 A 
ATOM     19  C   UNL     1       2.787  -6.917   0.115  0.00  0.00    +0.126 A 
ATOM     20 BR   UNL     1       0.969  -9.404  -3.392  0.00  0.00    -0.050 Br
BRANCH  19  21
ATOM     21  O   UNL     1       3.321  -6.198   1.136  0.00  0.00    -0.506 OA
ATOM     22  H   UNL     1       2.696  -5.999   1.846  0.00  0.00    +0.292 HD
ENDBRANCH  19  21
ENDBRANCH  13  14
ENDBRANCH   9  12
BRANCH  10  23
ATOM     23  C   UNL     1       4.976  -2.587  -0.327  0.00  0.00    +0.305 C 
BRANCH  23  24
ATOM     24  O   UNL     1       5.995  -1.593  -0.453  0.00  0.00    -0.484 OA
BRANCH  24  25
ATOM     25  C   UNL     1       7.269  -2.033  -0.603  0.00  0.00    +0.133 A 
ATOM     26  C   UNL     1       7.538  -3.393  -0.635  0.00  0.00    +0.046 A 
ATOM     27  C   UNL     1       8.835  -3.839  -0.787  0.00  0.00    +0.004 A 
ATOM     28  C   UNL     1       9.877  -2.934  -0.908  0.00  0.00    +0.001 A 
ATOM     29  C   UNL     1       9.629  -1.579  -0.879  0.00  0.00    +0.017 A 
ATOM     30  C   UNL     1       8.320  -1.114  -0.731  0.00  0.00    +0.078 A 
BRANCH  30  31
ATOM     31  C   UNL     1       8.046   0.335  -0.704  0.00  0.00    +0.245 C 
ATOM     32  O   UNL     1       6.906   0.736  -0.570  0.00  0.00    -0.270 OA
ATOM     33  N   UNL     1       9.059   1.215  -0.828  0.00  0.00    -0.325 N 
ATOM     34  H   UNL     1       9.969   0.895  -0.935  0.00  0.00    +0.145 HD
ATOM     35  H   UNL     1       8.879   2.168  -0.811  0.00  0.00    +0.145 HD
ENDBRANCH  30  31
ENDBRANCH  24  25
ENDBRANCH  23  24
ENDBRANCH  10  23
TORSDOF 7
