REMARK  Name = ZINC40400391
REMARK  6 active torsions:
REMARK  status: ('A' for Active; 'I' for Inactive)
REMARK    1  A    between atoms: C_1  and  C_2
REMARK    2  A    between atoms: C_2  and  C_3
REMARK    3  A    between atoms: C_8  and  N_9
REMARK    4  A    between atoms: C_10  and  C_12
REMARK    5  A    between atoms: N_26  and  C_27
REMARK    6  A    between atoms: C_30  and  C_33
REMARK                            x       y       z     vdW  Elec       q    Type
REMARK                         _______ _______ _______ _____ _____    ______ ____
ROOT
ATOM      1  C   UNL     1      -2.827  -0.543   3.927  0.00  0.00    +0.122 C 
ATOM      2  C   UNL     1      -2.930   0.949   3.609  0.00  0.00    +0.114 C 
ATOM      3  C   UNL     1      -2.553   1.754   4.826  0.00  0.00    +0.219 C 
ATOM      4  O   UNL     1      -1.931   2.785   4.693  0.00  0.00    -0.275 OA
ATOM      5  N   UNL     1      -2.900   1.339   6.056  0.00  0.00    -0.270 N 
ATOM      6  C   UNL     1      -3.518   0.116   6.247  0.00  0.00    +0.138 A 
ATOM      7  C   UNL     1      -3.516  -0.828   5.235  0.00  0.00    +0.069 A 
ATOM      8  C   UNL     1      -4.164  -2.050   5.442  0.00  0.00    +0.258 A 
ATOM      9  O   UNL     1      -4.191  -2.898   4.565  0.00  0.00    -0.267 OA
ATOM     10  N   UNL     1      -4.760  -2.272   6.634  0.00  0.00    -0.295 N 
ATOM     11  H   UNL     1      -5.228  -3.107   6.794  0.00  0.00    +0.172 HD
ATOM     12  C   UNL     1      -4.702  -1.326   7.611  0.00  0.00    +0.202 A 
ATOM     13  N   UNL     1      -4.097  -0.174   7.417  0.00  0.00    -0.200 NA
ATOM     14  N   UNL     1      -5.290  -1.579   8.824  0.00  0.00    -0.285 N 
ATOM     15  H   UNL     1      -2.716   1.906   6.822  0.00  0.00    +0.156 HD
ATOM     16  H   UNL     1      -5.672  -2.452   9.005  0.00  0.00    +0.155 HD
ENDROOT
BRANCH  14  17
ATOM     17  C   UNL     1      -5.338  -0.578   9.800  0.00  0.00    +0.034 A 
ATOM     18  C   UNL     1      -5.475   0.752   9.426  0.00  0.00    +0.023 A 
ATOM     19  C   UNL     1      -5.523   1.738  10.392  0.00  0.00    +0.005 A 
ATOM     20  C   UNL     1      -5.434   1.401  11.730  0.00  0.00    -0.050 A 
ATOM     21  C   UNL     1      -5.297   0.078  12.106  0.00  0.00    +0.005 A 
ATOM     22  C   UNL     1      -5.254  -0.913  11.145  0.00  0.00    +0.023 A 
ATOM     23  C   UNL     1      -5.485   2.480  12.782  0.00  0.00    +0.044 C 
ENDBRANCH  14  17
BRANCH   1  25
ATOM     24  N   UNL     1      -0.556  -0.769   2.971  0.00  0.00    -0.285 N 
ATOM     25  C   UNL     1      -1.375  -0.935   4.029  0.00  0.00    +0.225 C 
ATOM     26  O   UNL     1      -0.943  -1.400   5.063  0.00  0.00    -0.275 OA
ATOM     27  H   UNL     1      -0.884  -0.335   2.168  0.00  0.00    +0.155 HD
BRANCH  24  33
ATOM     28  C   UNL     1       1.390  -1.702   1.887  0.00  0.00    -0.026 A 
ATOM     29  C   UNL     1       2.696  -2.145   1.949  0.00  0.00    +0.005 A 
ATOM     30  C   UNL     1       3.381  -2.118   3.150  0.00  0.00    +0.000 A 
ATOM     31  C   UNL     1       2.761  -1.648   4.293  0.00  0.00    +0.002 A 
ATOM     32  C   UNL     1       1.454  -1.203   4.237  0.00  0.00    +0.023 A 
ATOM     33  C   UNL     1       0.765  -1.224   3.032  0.00  0.00    +0.037 A 
BRANCH  28  35
ATOM     34  C   UNL     1       0.760  -0.368  -0.106  0.00  0.00    +0.009 C 
ATOM     35  C   UNL     1       0.644  -1.732   0.578  0.00  0.00    +0.033 C 
ENDBRANCH  28  35
ENDBRANCH  24  33
ENDBRANCH   1  25
TORSDOF 4
