REMARK  Name = ZINC35026570
REMARK  6 active torsions:
REMARK  status: ('A' for Active; 'I' for Inactive)
REMARK    1  A    between atoms: C_1  and  C_2
REMARK    2  A    between atoms: C_2  and  C_4
REMARK    3  A    between atoms: C_2  and  N_17
REMARK    4  A    between atoms: N_17  and  C_18
REMARK    5  A    between atoms: C_18  and  C_19
REMARK    6  A    between atoms: N_26  and  C_27
REMARK                            x       y       z     vdW  Elec       q    Type
REMARK                         _______ _______ _______ _____ _____    ______ ____
ROOT
ATOM      1  N   UNL     1       0.496  -0.169  -1.171  0.00  0.00    -0.268 N 
ATOM      2  C   UNL     1      -0.436  -0.621  -2.034  0.00  0.00    +0.307 C 
ATOM      3  O   UNL     1      -1.581  -0.787  -1.661  0.00  0.00    -0.252 OA
ATOM      4  N   UNL     1      -0.098  -0.889  -3.311  0.00  0.00    -0.268 N 
ATOM      5  H   UNL     1       0.828  -0.818  -3.593  0.00  0.00    +0.156 HD
ENDROOT
BRANCH   4   6
ATOM      6  C   UNL     1      -1.083  -1.269  -4.231  0.00  0.00    +0.055 A 
ATOM      7  C   UNL     1      -2.226  -1.925  -3.794  0.00  0.00    +0.025 A 
ATOM      8  C   UNL     1      -3.197  -2.299  -4.703  0.00  0.00    +0.003 A 
ATOM      9  C   UNL     1      -3.031  -2.021  -6.048  0.00  0.00    +0.021 A 
ATOM     10  C   UNL     1      -1.893  -1.368  -6.488  0.00  0.00    +0.061 A 
ATOM     11  C   UNL     1      -0.921  -0.986  -5.581  0.00  0.00    +0.080 A 
ATOM     12 CL   UNL     1       0.504  -0.160  -6.131  0.00  0.00    -0.080 Cl
ATOM     13 CL   UNL     1      -1.690  -1.022  -8.177  0.00  0.00    -0.082 Cl
ENDBRANCH   4   6
BRANCH   1  15
ATOM     14  C   UNL     1      -0.450  -1.137   0.866  0.00  0.00    +0.036 C 
ATOM     15  C   UNL     1       0.128   0.122   0.216  0.00  0.00    +0.141 C 
BRANCH  15  16
ATOM     16  C   UNL     1      -0.903   1.221   0.243  0.00  0.00    +0.131 A 
ATOM     17  N   UNL     1      -1.460   1.552   1.437  0.00  0.00    -0.309 N 
ATOM     18  H   UNL     1      -1.188   1.083   2.241  0.00  0.00    +0.170 HD
ATOM     19  C   UNL     1      -2.391   2.532   1.515  0.00  0.00    +0.259 A 
ATOM     20  O   UNL     1      -2.898   2.839   2.578  0.00  0.00    -0.267 OA
ATOM     21  C   UNL     1      -2.766   3.210   0.266  0.00  0.00    +0.065 A 
ATOM     22  C   UNL     1      -3.713   4.232   0.237  0.00  0.00    +0.017 A 
ATOM     23  C   UNL     1      -4.025   4.831  -0.952  0.00  0.00    +0.021 A 
ATOM     24  C   UNL     1      -3.408   4.432  -2.131  0.00  0.00    +0.043 A 
ATOM     25  C   UNL     1      -2.468   3.424  -2.130  0.00  0.00    +0.048 A 
ATOM     26  C   UNL     1      -2.133   2.798  -0.928  0.00  0.00    +0.080 A 
ATOM     27  N   UNL     1      -1.210   1.805  -0.875  0.00  0.00    -0.232 NA
ATOM     28 CL   UNL     1      -3.827   5.212  -3.625  0.00  0.00    -0.083 Cl
ENDBRANCH  15  16
ENDBRANCH   1  15
BRANCH   1  29
ATOM     29  C   UNL     1       1.875   0.031  -1.621  0.00  0.00    +0.184 C 
BRANCH  29  30
ATOM     30  C   UNL     1       2.647  -1.254  -1.462  0.00  0.00    +0.122 A 
ATOM     31  C   UNL     1       2.706  -2.252  -2.362  0.00  0.00    +0.046 A 
ATOM     32  C   UNL     1       3.535  -3.254  -1.807  0.00  0.00    +0.041 A 
ATOM     33  C   UNL     1       3.934  -2.808  -0.603  0.00  0.00    +0.195 A 
ATOM     34  O   UNL     1       3.397  -1.593  -0.402  0.00  0.00    -0.466 OA
ENDBRANCH  29  30
ENDBRANCH   1  29
TORSDOF 5
