REMARK  Name = ZINC39354759
REMARK  9 active torsions:
REMARK  status: ('A' for Active; 'I' for Inactive)
REMARK    1  A    between atoms: C_1  and  C_2
REMARK    2  A    between atoms: C_2  and  N_3
REMARK    3  A    between atoms: C_4  and  C_29
REMARK    4  A    between atoms: C_6  and  C_10
REMARK    5  A    between atoms: C_7  and  C_9
REMARK    6  A    between atoms: C_10  and  N_11
REMARK    7  A    between atoms: N_11  and  C_12
REMARK    8  A    between atoms: C_12  and  C_13
REMARK    9  A    between atoms: C_18  and  C_19
REMARK                            x       y       z     vdW  Elec       q    Type
REMARK                         _______ _______ _______ _____ _____    ______ ____
ROOT
ATOM      1  C   UNL     1      -5.293  -6.084   0.725  0.00  0.00    +0.097 C 
ATOM      2  C   UNL     1      -6.469  -5.312   1.289  0.00  0.00    +0.118 C 
ATOM      3  N   UNL     1      -7.254  -6.192   1.822  0.00  0.00    -0.161 NA
ATOM      4  N   UNL     1      -6.764  -7.488   1.698  0.00  0.00    -0.153 NA
ATOM      5  C   UNL     1      -5.617  -7.525   1.065  0.00  0.00    +0.081 C 
ENDROOT
BRANCH   5   6
ATOM      6  C   UNL     1      -4.813  -8.711   0.751  0.00  0.00    +0.006 A 
ATOM      7  C   UNL     1      -3.602  -8.591   0.074  0.00  0.00    +0.010 A 
ATOM      8  C   UNL     1      -2.845  -9.715  -0.221  0.00  0.00    +0.001 A 
ATOM      9  C   UNL     1      -3.247 -10.966   0.135  0.00  0.00    +0.008 A 
ATOM     10  C   UNL     1      -4.457 -11.164   0.821  0.00  0.00    -0.017 A 
ATOM     11  C   UNL     1      -5.262 -10.045   1.148  0.00  0.00    -0.009 A 
ATOM     12  C   UNL     1      -6.466 -10.237   1.835  0.00  0.00    +0.009 A 
ATOM     13  C   UNL     1      -6.848 -11.498   2.187  0.00  0.00    +0.001 A 
ATOM     14  C   UNL     1      -6.056 -12.599   1.871  0.00  0.00    +0.001 A 
ATOM     15  C   UNL     1      -4.885 -12.450   1.193  0.00  0.00    +0.008 A 
ENDBRANCH   5   6
BRANCH   1  16
ATOM     16  C   UNL     1      -3.990  -5.651   1.401  0.00  0.00    +0.096 C 
BRANCH  16  17
ATOM     17  N   UNL     1      -3.665  -4.274   1.002  0.00  0.00    -0.311 NA
ATOM     18  H   UNL     1      -4.426  -3.647   1.216  0.00  0.00    +0.122 HD
BRANCH  17  19
ATOM     19  C   UNL     1      -2.418  -3.824   1.634  0.00  0.00    +0.115 C 
BRANCH  19  22
ATOM     20  N   UNL     1      -1.376  -0.512   0.012  0.00  0.00    -0.223 NA
ATOM     21  C   UNL     1      -1.397  -1.987  -0.059  0.00  0.00    +0.101 C 
ATOM     22  C   UNL     1      -2.118  -2.411   1.202  0.00  0.00    -0.020 C 
ATOM     23  C   UNL     1      -2.434  -1.308   1.849  0.00  0.00    +0.018 C 
ATOM     24  N   UNL     1      -2.011  -0.180   1.175  0.00  0.00    -0.281 N 
ATOM     25  C   UNL     1      -3.169  -1.281   3.165  0.00  0.00    +0.062 C 
ATOM     26  C   UNL     1       0.029  -2.542  -0.075  0.00  0.00    +0.031 C 
ATOM     27  H   UNL     1      -2.147   0.729   1.485  0.00  0.00    +0.166 HD
BRANCH  20  29
ATOM     28  C   UNL     1      -0.019   1.526   0.010  0.00  0.00    +0.022 C 
ATOM     29  C   UNL     1       0.002  -0.004   0.002  0.00  0.00    +0.103 C 
ENDBRANCH  20  29
ENDBRANCH  19  22
ENDBRANCH  17  19
ENDBRANCH  16  17
ENDBRANCH   1  16
TORSDOF 6
