REMARK  Name = ZINC37908215
REMARK  6 active torsions:
REMARK  status: ('A' for Active; 'I' for Inactive)
REMARK    1  A    between atoms: C_1  and  C_2
REMARK    2  A    between atoms: C_2  and  C_4
REMARK    3  A    between atoms: C_2  and  N_10
REMARK    4  A    between atoms: N_10  and  C_11
REMARK    5  A    between atoms: C_11  and  C_13
REMARK    6  A    between atoms: C_11  and  C_14
REMARK                            x       y       z     vdW  Elec       q    Type
REMARK                         _______ _______ _______ _____ _____    ______ ____
ROOT
ATOM      1  N   UNL     1       0.690  -0.478  -1.207  0.00  0.00    +0.391 N 
ATOM      2  H   UNL     1       0.632  -1.484  -1.254  0.00  0.00    -0.084 HD
ATOM      3  H   UNL     1       0.251  -0.077  -2.022  0.00  0.00    -0.084 HD
ENDROOT
BRANCH   1   5
ATOM      4  C   UNL     1      -0.019   1.526   0.010  0.00  0.00    -0.007 C 
ATOM      5  C   UNL     1       0.002  -0.004   0.002  0.00  0.00    -0.025 C 
BRANCH   5   6
ATOM      6  C   UNL     1      -1.412  -0.526   0.013  0.00  0.00    +0.022 A 
ATOM      7  C   UNL     1      -2.183  -0.718   1.108  0.00  0.00    +0.042 A 
ATOM      8  C   UNL     1      -3.421  -1.211   0.682  0.00  0.00    +0.134 A 
ATOM      9  N   UNL     1      -3.394  -1.310  -0.623  0.00  0.00    -0.182 NA
ATOM     10  H   UNL     1      -1.841  -0.842  -1.992  0.00  0.00    +0.188 HD
ATOM     11  N   UNL     1      -2.138  -0.879  -1.069  0.00  0.00    -0.283 N 
ENDBRANCH   5   6
ENDBRANCH   1   5
BRANCH   1  12
ATOM     12  C   UNL     1       2.100  -0.070  -1.159  0.00  0.00    -0.005 C 
ATOM     13  C   UNL     1       2.796  -0.777   0.006  0.00  0.00    -0.006 C 
BRANCH  12  14
ATOM     14  C   UNL     1       2.776  -0.448  -2.452  0.00  0.00    +0.119 A 
ATOM     15  N   UNL     1       2.661  -1.585  -3.082  0.00  0.00    -0.136 NA
ATOM     16  N   UNL     1       3.377  -1.563  -4.150  0.00  0.00    -0.134 NA
ATOM     17  C   UNL     1       3.982  -0.409  -4.248  0.00  0.00    +0.133 A 
ATOM     18  N   UNL     1       3.612   0.332  -3.180  0.00  0.00    -0.316 N 
ATOM     19  C   UNL     1       4.238   1.660  -3.214  0.00  0.00    +0.125 C 
ATOM     20  C   UNL     1       5.405   1.542  -4.220  0.00  0.00    +0.029 C 
ATOM     21  C   UNL     1       4.933   0.381  -5.121  0.00  0.00    +0.078 C 
ENDBRANCH  12  14
ENDBRANCH   1  12
TORSDOF 4
