REMARK  Name = ZINC20150182
REMARK  8 active torsions:
REMARK  status: ('A' for Active; 'I' for Inactive)
REMARK    1  A    between atoms: C_1  and  C_2
REMARK    2  A    between atoms: C_3  and  C_28
REMARK    3  A    between atoms: C_4  and  N_27
REMARK    4  A    between atoms: C_11  and  C_17
REMARK    5  A    between atoms: C_21  and  O_25
REMARK    6  A    between atoms: C_22  and  O_23
REMARK    7  A    between atoms: O_23  and  C_24
REMARK    8  A    between atoms: O_25  and  C_26
REMARK                            x       y       z     vdW  Elec       q    Type
REMARK                         _______ _______ _______ _____ _____    ______ ____
ROOT
ATOM      1  C   UNL     1      -0.018   1.503   0.010  0.00  0.00    +0.046 C 
ATOM      2  C   UNL     1       0.002  -0.004   0.002  0.00  0.00    -0.014 A 
ATOM      3  C   UNL     1       0.006  -0.720  -1.205  0.00  0.00    +0.095 A 
ATOM      4  C   UNL     1       0.026  -2.128  -1.141  0.00  0.00    +0.135 A 
ATOM      5  N   UNL     1       0.041  -2.768   0.004  0.00  0.00    -0.230 NA
ATOM      6  C   UNL     1       0.037  -2.131   1.199  0.00  0.00    +0.086 A 
ATOM      7  C   UNL     1       0.023  -0.716   1.174  0.00  0.00    +0.044 A 
ATOM      8  S   UNL     1       0.035  -0.271   2.893  0.00  0.00    -0.071 S 
ATOM      9  C   UNL     1       0.071  -1.905   3.569  0.00  0.00    +0.078 A 
ATOM     10  C   UNL     1       0.048  -2.729   2.479  0.00  0.00    +0.015 A 
ATOM     11  C   UNL     1       0.034  -4.240   2.698  0.00  0.00    +0.066 C 
ATOM     12  C   UNL     1       0.750  -4.549   4.012  0.00  0.00    +0.109 C 
ATOM     13  C   UNL     1       0.299  -3.637   5.118  0.00  0.00    +0.218 C 
ATOM     14  O   UNL     1       0.138  -4.082   6.235  0.00  0.00    -0.275 OA
ATOM     15  N   UNL     1       0.093  -2.323   4.881  0.00  0.00    -0.280 N 
ATOM     16  H   UNL     1      -0.051  -1.699   5.610  0.00  0.00    +0.155 HD
ENDROOT
BRANCH  11  17
ATOM     17  C   UNL     1      -1.390  -4.728   2.767  0.00  0.00    +0.006 A 
ATOM     18  C   UNL     1      -2.242  -4.239   3.740  0.00  0.00    +0.008 A 
ATOM     19  C   UNL     1      -3.549  -4.685   3.806  0.00  0.00    +0.004 A 
ATOM     20  C   UNL     1      -4.009  -5.622   2.899  0.00  0.00    +0.049 A 
ATOM     21  C   UNL     1      -3.160  -6.117   1.922  0.00  0.00    +0.162 A 
ATOM     22  C   UNL     1      -1.846  -5.663   1.852  0.00  0.00    +0.165 A 
BRANCH  22  23
ATOM     23  O   UNL     1      -1.011  -6.141   0.891  0.00  0.00    -0.491 OA
ATOM     24  C   UNL     1      -0.253  -7.308   1.213  0.00  0.00    +0.277 C 
ENDBRANCH  22  23
BRANCH  21  25
ATOM     25  O   UNL     1      -3.612  -7.038   1.030  0.00  0.00    -0.491 OA
ATOM     26  C   UNL     1      -4.973  -7.453   1.159  0.00  0.00    +0.277 C 
ENDBRANCH  21  25
ENDBRANCH  11  17
BRANCH   4  27
ATOM     27  N   UNL     1       0.031  -2.856  -2.320  0.00  0.00    -0.342 N 
ATOM     28  H   UNL     1       0.020  -2.396  -3.174  0.00  0.00    +0.144 HD
ATOM     29  H   UNL     1       0.045  -3.826  -2.292  0.00  0.00    +0.144 HD
ENDBRANCH   4  27
BRANCH   3  30
ATOM     30  C   UNL     1      -0.010  -0.040  -2.465  0.00  0.00    +0.103 C 
ATOM     31  N   UNL     1      -0.023   0.499  -3.465  0.00  0.00    -0.191 NA
ENDBRANCH   3  30
TORSDOF 5
