REMARK  Name = ZINC39248155
REMARK  9 active torsions:
REMARK  status: ('A' for Active; 'I' for Inactive)
REMARK    1  A    between atoms: C_1  and  C_2
REMARK    2  A    between atoms: C_2  and  O_3
REMARK    3  A    between atoms: O_3  and  C_4
REMARK    4  A    between atoms: C_4  and  C_6
REMARK    5  A    between atoms: C_8  and  C_27
REMARK    6  A    between atoms: C_14  and  C_16
REMARK    7  A    between atoms: C_16  and  S_17
REMARK    8  A    between atoms: S_17  and  C_18
REMARK    9  A    between atoms: C_24  and  N_26
REMARK                            x       y       z     vdW  Elec       q    Type
REMARK                         _______ _______ _______ _____ _____    ______ ____
ROOT
ATOM      1  C   UNL     1       1.516  -2.381   2.500  0.00  0.00    +0.191 C 
ATOM      2  C   UNL     1       1.021  -3.815   2.830  0.00  0.00    +0.162 C 
ATOM      3  N   UNL     1       2.123  -4.669   3.233  0.00  0.00    -0.253 NA
ATOM      4  C   UNL     1       3.356  -4.355   2.960  0.00  0.00    +0.157 C 
ATOM      5  S   UNL     1       3.273  -2.785   2.111  0.00  0.00    -0.073 S 
ATOM      6  N   UNL     1       4.491  -5.083   3.263  0.00  0.00    -0.265 N 
ATOM      7  C   UNL     1       5.705  -4.617   2.908  0.00  0.00    +0.229 C 
ATOM      8  O   UNL     1       5.801  -3.559   2.323  0.00  0.00    -0.275 OA
ATOM      9  H   UNL     1       4.414  -5.929   3.731  0.00  0.00    +0.157 HD
ENDROOT
BRANCH   2  10
ATOM     10  C   UNL     1       0.016  -3.746   3.951  0.00  0.00    -0.021 A 
ATOM     11  C   UNL     1       0.446  -3.621   5.258  0.00  0.00    +0.006 A 
ATOM     12  C   UNL     1      -0.475  -3.557   6.287  0.00  0.00    +0.000 A 
ATOM     13  C   UNL     1      -1.828  -3.618   6.007  0.00  0.00    +0.000 A 
ATOM     14  C   UNL     1      -2.259  -3.742   4.699  0.00  0.00    +0.000 A 
ATOM     15  C   UNL     1      -1.337  -3.801   3.671  0.00  0.00    +0.006 A 
ENDBRANCH   2  10
BRANCH   1  16
ATOM     16  C   UNL     1       0.801  -1.808   1.304  0.00  0.00    +0.323 C 
ATOM     17  O   UNL     1       0.324  -2.546   0.475  0.00  0.00    -0.249 OA
BRANCH  16  18
ATOM     18  O   UNL     1       0.693  -0.477   1.160  0.00  0.00    -0.464 OA
BRANCH  18  20
ATOM     19  C   UNL     1      -0.019   1.526   0.010  0.00  0.00    +0.048 C 
ATOM     20  C   UNL     1       0.002  -0.004   0.002  0.00  0.00    +0.229 C 
ENDBRANCH  18  20
ENDBRANCH  16  18
ENDBRANCH   1  16
BRANCH   7  21
ATOM     21  C   UNL     1       6.943  -5.411   3.239  0.00  0.00    +0.173 C 
BRANCH  21  22
ATOM     22  S   UNL     1       8.407  -4.526   2.635  0.00  0.00    -0.078 S 
BRANCH  22  23
ATOM     23  C   UNL     1       9.753  -5.568   3.091  0.00  0.00    +0.171 A 
ATOM     24  N   UNL     1      11.025  -5.188   2.785  0.00  0.00    -0.302 N 
ATOM     25  H   UNL     1      11.181  -4.351   2.320  0.00  0.00    +0.171 HD
ATOM     26  C   UNL     1      12.067  -5.974   3.127  0.00  0.00    +0.254 A 
ATOM     27  O   UNL     1      13.210  -5.641   2.857  0.00  0.00    -0.268 OA
ATOM     28  C   UNL     1      11.816  -7.175   3.797  0.00  0.00    +0.113 A 
ATOM     29  C   UNL     1      10.502  -7.516   4.086  0.00  0.00    +0.124 A 
ATOM     30  N   UNL     1       9.509  -6.696   3.727  0.00  0.00    -0.209 NA
BRANCH  29  31
ATOM     31  N   UNL     1      10.222  -8.696   4.747  0.00  0.00    -0.343 N 
ATOM     32  H   UNL     1      10.944  -9.288   5.010  0.00  0.00    +0.144 HD
ATOM     33  H   UNL     1       9.303  -8.933   4.947  0.00  0.00    +0.144 HD
ENDBRANCH  29  31
ENDBRANCH  22  23
ENDBRANCH  21  22
ENDBRANCH   7  21
TORSDOF 8
