REMARK  Name = ZINC62496429
REMARK  7 active torsions:
REMARK  status: ('A' for Active; 'I' for Inactive)
REMARK    1  A    between atoms: C_1  and  C_2
REMARK    2  A    between atoms: C_2  and  C_3
REMARK    3  A    between atoms: C_6  and  C_9
REMARK    4  A    between atoms: C_9  and  C_10
REMARK    5  A    between atoms: N_14  and  C_23
REMARK    6  A    between atoms: C_17  and  N_22
REMARK    7  A    between atoms: C_23  and  C_24
REMARK                            x       y       z     vdW  Elec       q    Type
REMARK                         _______ _______ _______ _____ _____    ______ ____
ROOT
ATOM      1  C   UNL     1      -6.398  -0.829   0.053  0.00  0.00    +0.263 C 
ATOM      2  C   UNL     1      -7.808  -1.349  -0.062  0.00  0.00    +0.262 C 
ATOM      3  O   UNL     1      -8.334  -1.448  -1.151  0.00  0.00    -0.271 OA
ATOM      4  N   UNL     1      -8.484  -1.703   1.051  0.00  0.00    -0.251 N 
ATOM      5  C   UNL     1      -7.908  -1.463   2.306  0.00  0.00    +0.081 A 
ATOM      6  C   UNL     1      -8.462  -2.014   3.450  0.00  0.00    +0.050 A 
ATOM      7  C   UNL     1      -7.873  -1.778   4.685  0.00  0.00    +0.027 A 
ATOM      8  C   UNL     1      -6.730  -0.993   4.771  0.00  0.00    +0.026 A 
ATOM      9  C   UNL     1      -6.181  -0.440   3.630  0.00  0.00    +0.049 A 
ATOM     10  C   UNL     1      -6.769  -0.667   2.398  0.00  0.00    +0.143 A 
ATOM     11  O   UNL     1      -6.253  -0.100   1.274  0.00  0.00    -0.477 OA
ENDROOT
BRANCH   7  12
ATOM     12  N   UNL     1      -8.430  -2.333   5.843  0.00  0.00    -0.358 N 
ATOM     13  H   UNL     1      -9.227  -2.881   5.783  0.00  0.00    +0.142 HD
ATOM     14  H   UNL     1      -8.018  -2.168   6.706  0.00  0.00    +0.142 HD
ENDBRANCH   7  12
BRANCH   1  15
ATOM     15  C   UNL     1      -5.419  -2.005   0.043  0.00  0.00    +0.089 C 
BRANCH  15  19
ATOM     16  C   UNL     1      -1.412  -0.526   0.013  0.00  0.00    -0.048 A 
ATOM     17  C   UNL     1      -2.051  -0.766   1.215  0.00  0.00    +0.004 A 
ATOM     18  C   UNL     1      -3.348  -1.244   1.225  0.00  0.00    +0.004 A 
ATOM     19  C   UNL     1      -4.006  -1.482   0.032  0.00  0.00    -0.043 A 
ATOM     20  C   UNL     1      -3.367  -1.241  -1.170  0.00  0.00    +0.004 A 
ATOM     21  C   UNL     1      -2.072  -0.758  -1.179  0.00  0.00    +0.004 A 
BRANCH  16  23
ATOM     22  C   UNL     1      -0.019   1.526   0.010  0.00  0.00    +0.009 C 
ATOM     23  C   UNL     1       0.002  -0.004   0.002  0.00  0.00    +0.032 C 
ENDBRANCH  16  23
ENDBRANCH  15  19
ENDBRANCH   1  15
BRANCH   4  24
ATOM     24  C   UNL     1      -9.804  -2.330   0.949  0.00  0.00    +0.232 C 
BRANCH  24  25
ATOM     25  C   UNL     1      -9.648  -3.792   0.878  0.00  0.00    +0.082 C 
ATOM     26  N   UNL     1      -9.527  -4.921   0.824  0.00  0.00    -0.195 NA
ENDBRANCH  24  25
ENDBRANCH   4  24
TORSDOF 6
