REMARK  Name = ZINC32891430
REMARK  6 active torsions:
REMARK  status: ('A' for Active; 'I' for Inactive)
REMARK    1  A    between atoms: C_3  and  N_27
REMARK    2  A    between atoms: C_4  and  N_10
REMARK    3  A    between atoms: C_6  and  C_7
REMARK    4  A    between atoms: C_11  and  C_13
REMARK    5  A    between atoms: C_13  and  N_14
REMARK    6  A    between atoms: C_15  and  C_17
REMARK                            x       y       z     vdW  Elec       q    Type
REMARK                         _______ _______ _______ _____ _____    ______ ____
ROOT
ATOM      1  N   UNL     1      -8.507   0.969   2.546  0.00  0.00    -0.283 N 
ATOM      2  C   UNL     1      -7.221   1.307   2.323  0.00  0.00    +0.234 C 
ATOM      3  O   UNL     1      -6.635   2.015   3.114  0.00  0.00    -0.274 OA
ATOM      4  H   UNL     1      -9.067   0.404   1.786  0.00  0.00    +0.155 HD
ENDROOT
BRANCH   1   8
ATOM      5  C   UNL     1     -10.387   2.068   6.119  0.00  0.00    +0.015 A 
ATOM      6  C   UNL     1     -11.140   1.839   4.988  0.00  0.00    +0.026 A 
ATOM      7  C   UNL     1     -10.520   1.480   3.797  0.00  0.00    +0.051 A 
ATOM      8  C   UNL     1      -9.130   1.337   3.746  0.00  0.00    +0.055 A 
ATOM      9  C   UNL     1      -8.371   1.565   4.878  0.00  0.00    +0.038 A 
ATOM     10  C   UNL     1      -8.997   1.932   6.073  0.00  0.00    +0.038 A 
BRANCH  10  11
ATOM     11  C   UNL     1      -8.191   2.176   7.284  0.00  0.00    +0.242 C 
ATOM     12  O   UNL     1      -6.981   2.058   7.243  0.00  0.00    -0.270 OA
ATOM     13  N   UNL     1      -8.795   2.530   8.436  0.00  0.00    -0.325 N 
ATOM     14  H   UNL     1      -8.194   2.712   9.339  0.00  0.00    +0.145 HD
ATOM     15  H   UNL     1      -9.889   2.638   8.473  0.00  0.00    +0.145 HD
ENDBRANCH  10  11
BRANCH   7  16
ATOM     16  N   UNL     1     -11.284   1.256   2.655  0.00  0.00    -0.328 N 
ATOM     17  C   UNL     1     -12.705   1.625   2.885  0.00  0.00    +0.105 C 
ATOM     18  C   UNL     1     -13.256   1.821   1.450  0.00  0.00    +0.020 C 
ATOM     19  C   UNL     1     -12.069   2.479   0.710  0.00  0.00    +0.020 C 
ATOM     20  C   UNL     1     -10.823   2.103   1.534  0.00  0.00    +0.105 C 
ENDBRANCH   7  16
ENDBRANCH   1   8
BRANCH   2  21
ATOM     21  C   UNL     1      -6.513   0.806   1.090  0.00  0.00    +0.200 C 
BRANCH  21  22
ATOM     22  N   UNL     1      -5.138   1.310   1.079  0.00  0.00    -0.306 N 
ATOM     23  C   UNL     1      -4.310   0.988   0.065  0.00  0.00    +0.220 C 
ATOM     24  O   UNL     1      -4.705   0.281  -0.838  0.00  0.00    -0.275 OA
ATOM     25  H   UNL     1      -4.780   1.950   1.899  0.00  0.00    +0.149 HD
BRANCH  23  26
ATOM     26  C   UNL     1      -2.895   1.505   0.053  0.00  0.00    +0.048 C 
ATOM     27  C   UNL     1      -2.176   0.996  -1.198  0.00  0.00    +0.019 C 
ATOM     28  C   UNL     1      -0.739   1.522  -1.209  0.00  0.00    -0.009 C 
ATOM     29  C   UNL     1      -0.005   1.027   0.038  0.00  0.00    +0.007 C 
ATOM     30  C   UNL     1      -0.724   1.536   1.289  0.00  0.00    -0.009 C 
ATOM     31  C   UNL     1      -2.161   1.010   1.301  0.00  0.00    +0.019 C 
ATOM     32  C   UNL     1      -0.741   3.065   1.281  0.00  0.00    +0.007 C 
ATOM     33  C   UNL     1      -1.475   3.561   0.034  0.00  0.00    -0.009 C 
ATOM     34  C   UNL     1      -0.756   3.052  -1.218  0.00  0.00    +0.007 C 
ATOM     35  C   UNL     1      -2.912   3.035   0.045  0.00  0.00    +0.019 C 
ENDBRANCH  23  26
ENDBRANCH  21  22
ENDBRANCH   2  21
TORSDOF 6
