REMARK  Name = ZINC66756851
REMARK  8 active torsions:
REMARK  status: ('A' for Active; 'I' for Inactive)
REMARK    1  A    between atoms: C_1  and  C_2
REMARK    2  A    between atoms: C_2  and  C_3
REMARK    3  A    between atoms: C_2  and  C_4
REMARK    4  A    between atoms: C_2  and  N_5
REMARK    5  A    between atoms: C_6  and  C_8
REMARK    6  A    between atoms: C_8  and  N_9
REMARK    7  A    between atoms: C_10  and  C_12
REMARK    8  A    between atoms: C_15  and  C_17
REMARK                            x       y       z     vdW  Elec       q    Type
REMARK                         _______ _______ _______ _____ _____    ______ ____
ROOT
ATOM      1  C   UNL     1       6.258   0.090  -3.708  0.00  0.00    +0.133 A 
ATOM      2  C   UNL     1       7.102  -0.214  -4.743  0.00  0.00    +0.080 A 
ATOM      3  S   UNL     1       8.519   0.580  -4.302  0.00  0.00    -0.075 S 
ATOM      4  C   UNL     1       7.947   1.286  -2.766  0.00  0.00    +0.109 A 
ATOM      5  N   UNL     1       6.700   0.854  -2.718  0.00  0.00    -0.234 NA
ENDROOT
BRANCH   4   6
ATOM      6  C   UNL     1       8.677   2.136  -1.801  0.00  0.00    +0.011 A 
ATOM      7  C   UNL     1       8.042   2.584  -0.643  0.00  0.00    +0.014 A 
ATOM      8  C   UNL     1       8.725   3.378   0.254  0.00  0.00    +0.050 A 
ATOM      9  C   UNL     1      10.045   3.733   0.011  0.00  0.00    +0.162 A 
ATOM     10  C   UNL     1      10.685   3.288  -1.142  0.00  0.00    +0.163 A 
ATOM     11  C   UNL     1      10.005   2.488  -2.044  0.00  0.00    +0.060 A 
ATOM     12  O   UNL     1      11.981   3.621  -1.392  0.00  0.00    -0.485 OA
ATOM     13  C   UNL     1      12.517   4.723  -0.651  0.00  0.00    +0.270 C 
ATOM     14  C   UNL     1      12.127   4.546   0.822  0.00  0.00    +0.270 C 
ATOM     15  O   UNL     1      10.698   4.520   0.908  0.00  0.00    -0.485 OA
ENDBRANCH   4   6
BRANCH   1  17
ATOM     16  N   UNL     1       4.051  -0.111  -2.677  0.00  0.00    -0.301 N 
ATOM     17  C   UNL     1       4.876  -0.420  -3.698  0.00  0.00    +0.263 C 
ATOM     18  O   UNL     1       4.479  -1.120  -4.610  0.00  0.00    -0.269 OA
ATOM     19  H   UNL     1       4.368   0.447  -1.950  0.00  0.00    +0.150 HD
BRANCH  16  20
ATOM     20  C   UNL     1       2.677  -0.618  -2.667  0.00  0.00    +0.200 C 
BRANCH  20  22
ATOM     21  N   UNL     1       0.688  -0.476  -1.203  0.00  0.00    -0.309 N 
ATOM     22  C   UNL     1       1.972  -0.132  -1.427  0.00  0.00    +0.231 C 
ATOM     23  O   UNL     1       2.559   0.569  -0.630  0.00  0.00    -0.274 OA
ATOM     24  H   UNL     1       0.218  -1.037  -1.840  0.00  0.00    +0.149 HD
BRANCH  21  26
ATOM     25  C   UNL     1      -0.019   1.526   0.010  0.00  0.00    +0.031 C 
ATOM     26  C   UNL     1       0.002  -0.004   0.002  0.00  0.00    +0.026 C 
ATOM     27  C   UNL     1       0.742  -0.511   1.242  0.00  0.00    +0.031 C 
ATOM     28  C   UNL     1      -1.433  -0.534   0.013  0.00  0.00    +0.031 C 
ENDBRANCH  21  26
ENDBRANCH  20  22
ENDBRANCH  16  20
ENDBRANCH   1  17
TORSDOF 5
