REMARK  Name = ZINC04902902
REMARK  6 active torsions:
REMARK  status: ('A' for Active; 'I' for Inactive)
REMARK    1  A    between atoms: C_1  and  O_2
REMARK    2  A    between atoms: O_2  and  C_3
REMARK    3  A    between atoms: C_5  and  N_23
REMARK    4  A    between atoms: C_8  and  N_9
REMARK    5  A    between atoms: C_10  and  C_12
REMARK    6  A    between atoms: C_15  and  C_17
REMARK                            x       y       z     vdW  Elec       q    Type
REMARK                         _______ _______ _______ _____ _____    ______ ____
ROOT
ATOM      1  N   UNL     1       1.771   6.251   2.704  0.00  0.00    -0.282 N 
ATOM      2  C   UNL     1       1.208   5.581   1.679  0.00  0.00    +0.221 C 
ATOM      3  O   UNL     1       0.207   6.014   1.148  0.00  0.00    -0.275 OA
ATOM      4  H   UNL     1       2.532   5.872   3.171  0.00  0.00    +0.155 HD
ENDROOT
BRANCH   1  10
ATOM      5  C   UNL     1       2.113   8.486   3.568  0.00  0.00    +0.143 A 
ATOM      6  C   UNL     1       1.601   9.716   3.947  0.00  0.00    +0.080 A 
ATOM      7  C   UNL     1       0.241   9.953   3.866  0.00  0.00    +0.130 A 
ATOM      8  C   UNL     1      -0.610   8.967   3.402  0.00  0.00    +0.035 A 
ATOM      9  C   UNL     1      -0.106   7.739   3.017  0.00  0.00    +0.029 A 
ATOM     10  C   UNL     1       1.257   7.495   3.095  0.00  0.00    +0.076 A 
BRANCH   7  11
ATOM     11  N   UNL     1      -0.305  11.266   4.278  0.00  0.00    +0.057 N 
ATOM     12  O   UNL     1      -1.503  11.476   4.208  0.00  0.00    -0.126 OA
ATOM     13  O   UNL     1       0.443  12.136   4.687  0.00  0.00    -0.126 OA
ENDBRANCH   7  11
BRANCH   5  15
ATOM     14  C   UNL     1       4.267   9.313   4.146  0.00  0.00    +0.277 C 
ATOM     15  O   UNL     1       3.450   8.250   3.652  0.00  0.00    -0.493 OA
ENDBRANCH   5  15
ENDBRANCH   1  10
BRANCH   2  16
ATOM     16  C   UNL     1       1.820   4.292   1.194  0.00  0.00    +0.083 C 
ATOM     17  C   UNL     1       2.467   4.296  -0.194  0.00  0.00    +0.022 C 
ATOM     18  C   UNL     1       1.133   3.579   0.027  0.00  0.00    +0.032 C 
BRANCH  18  19
ATOM     19  C   UNL     1       1.146   2.072   0.029  0.00  0.00    -0.044 A 
ATOM     20  C   UNL     1      -0.046   1.371   0.042  0.00  0.00    +0.004 A 
ATOM     21  C   UNL     1      -0.035  -0.011   0.043  0.00  0.00    +0.000 A 
ATOM     22  C   UNL     1       1.168  -0.693   0.031  0.00  0.00    +0.000 A 
ATOM     23  C   UNL     1       2.359   0.008   0.017  0.00  0.00    +0.000 A 
ATOM     24  C   UNL     1       2.348   1.390   0.015  0.00  0.00    +0.004 A 
ENDBRANCH  18  19
ENDBRANCH   2  16
TORSDOF 5
