REMARK  Name = ZINC12263448
REMARK  14 active torsions:
REMARK  status: ('A' for Active; 'I' for Inactive)
REMARK    1  A    between atoms: C_1  and  C_2
REMARK    2  A    between atoms: C_3  and  C_36
REMARK    3  A    between atoms: N_4  and  C_31
REMARK    4  A    between atoms: C_5  and  N_9
REMARK    5  A    between atoms: C_6  and  C_7
REMARK    6  A    between atoms: C_10  and  C_12
REMARK    7  A    between atoms: C_12  and  O_13
REMARK    8  A    between atoms: O_13  and  C_14
REMARK    9  A    between atoms: C_14  and  C_16
REMARK   10  A    between atoms: C_16  and  C_18
REMARK   11  A    between atoms: C_16  and  N_21
REMARK   12  A    between atoms: C_18  and  C_19
REMARK   13  A    between atoms: C_18  and  C_20
REMARK   14  A    between atoms: C_22  and  C_24
REMARK                            x       y       z     vdW  Elec       q    Type
REMARK                         _______ _______ _______ _____ _____    ______ ____
ROOT
ATOM      1  C   UNL     1      -4.620  -5.967   1.738  0.00  0.00    +0.328 C 
ENDROOT
BRANCH   1   3
ATOM      2  N   UNL     1      -5.511  -8.135   0.946  0.00  0.00    -0.268 N 
ATOM      3  C   UNL     1      -5.710  -6.815   1.133  0.00  0.00    +0.256 C 
ATOM      4  O   UNL     1      -6.765  -6.309   0.814  0.00  0.00    -0.272 OA
ATOM      5  H   UNL     1      -4.679  -8.545   1.230  0.00  0.00    +0.156 HD
BRANCH   2  10
ATOM      6  C   UNL     1      -9.011  -9.895  -2.246  0.00  0.00    +0.047 C 
ATOM      7  C   UNL     1      -8.081  -9.728  -1.073  0.00  0.00    -0.011 A 
ATOM      8  C   UNL     1      -7.966 -10.551  -0.017  0.00  0.00    +0.022 A 
ATOM      9  N   UNL     1      -7.011 -10.064   0.835  0.00  0.00    -0.329 N 
ATOM     10  C   UNL     1      -6.495  -8.906   0.347  0.00  0.00    +0.124 A 
ATOM     11  C   UNL     1      -7.124  -8.635  -0.861  0.00  0.00    +0.095 A 
ATOM     12  C   UNL     1      -8.759 -11.815   0.193  0.00  0.00    +0.064 C 
BRANCH   9  13
ATOM     13  C   UNL     1      -6.607 -10.698   2.092  0.00  0.00    +0.089 C 
ATOM     14  C   UNL     1      -6.621  -9.662   3.235  0.00  0.00    +0.025 C 
ATOM     15  C   UNL     1      -5.403 -10.047   4.111  0.00  0.00    +0.002 C 
ATOM     16  C   UNL     1      -4.346 -10.471   3.061  0.00  0.00    +0.002 C 
ATOM     17  C   UNL     1      -5.161 -11.213   1.982  0.00  0.00    +0.025 C 
ENDBRANCH   9  13
BRANCH  11  18
ATOM     18  C   UNL     1      -6.888  -7.517  -1.723  0.00  0.00    +0.103 C 
ATOM     19  N   UNL     1      -6.701  -6.630  -2.407  0.00  0.00    -0.191 NA
ENDBRANCH  11  18
ENDBRANCH   2  10
ENDBRANCH   1   3
BRANCH   1  20
ATOM     20  O   UNL     1      -5.119  -4.620   1.954  0.00  0.00    -0.454 OA
BRANCH  20  21
ATOM     21  C   UNL     1      -4.242  -3.712   2.409  0.00  0.00    +0.328 C 
ATOM     22  O   UNL     1      -3.125  -4.053   2.719  0.00  0.00    -0.249 OA
BRANCH  21  23
ATOM     23  C   UNL     1      -4.650  -2.266   2.532  0.00  0.00    +0.185 C 
BRANCH  23  24
ATOM     24  N   UNL     1      -3.815  -1.607   3.539  0.00  0.00    -0.298 N 
ATOM     25  C   UNL     1      -4.274  -0.518   4.186  0.00  0.00    +0.246 C 
ATOM     26  O   UNL     1      -5.381  -0.082   3.935  0.00  0.00    -0.270 OA
ATOM     27  H   UNL     1      -2.932  -1.954   3.739  0.00  0.00    +0.150 HD
BRANCH  25  28
ATOM     28  C   UNL     1      -3.431   0.147   5.202  0.00  0.00    +0.055 A 
ATOM     29  C   UNL     1      -2.159  -0.350   5.493  0.00  0.00    +0.014 A 
ATOM     30  C   UNL     1      -1.378   0.276   6.441  0.00  0.00    +0.001 A 
ATOM     31  C   UNL     1      -1.851   1.395   7.105  0.00  0.00    +0.001 A 
ATOM     32  C   UNL     1      -3.110   1.893   6.823  0.00  0.00    +0.021 A 
ATOM     33  C   UNL     1      -3.904   1.276   5.875  0.00  0.00    +0.053 A 
ATOM     34 CL   UNL     1      -5.481   1.908   5.517  0.00  0.00    -0.083 Cl
ENDBRANCH  25  28
ENDBRANCH  23  24
BRANCH  23  35
ATOM     35  C   UNL     1      -4.469  -1.568   1.182  0.00  0.00    +0.014 C 
ATOM     36  C   UNL     1      -5.197  -2.362   0.096  0.00  0.00    +0.009 C 
ATOM     37  C   UNL     1      -5.050  -0.155   1.257  0.00  0.00    +0.009 C 
ENDBRANCH  23  35
ENDBRANCH  21  23
ENDBRANCH  20  21
ENDBRANCH   1  20
TORSDOF 10
