REMARK  Name = ZINC19536901
REMARK  7 active torsions:
REMARK  status: ('A' for Active; 'I' for Inactive)
REMARK    1  A    between atoms: C_1  and  N_2
REMARK    2  A    between atoms: C_5  and  N_8
REMARK    3  A    between atoms: N_8  and  C_9
REMARK    4  A    between atoms: C_10  and  C_12
REMARK    5  A    between atoms: C_12  and  C_13
REMARK    6  A    between atoms: N_20  and  C_21
REMARK    7  A    between atoms: C_21  and  C_22
REMARK                            x       y       z     vdW  Elec       q    Type
REMARK                         _______ _______ _______ _____ _____    ______ ____
ROOT
ATOM      1  C   UNL     1       3.350   2.392  -0.146  0.00  0.00    +0.028 C 
ATOM      2  C   UNL     1       3.409   3.228   1.101  0.00  0.00    +0.200 C 
ATOM      3  O   UNL     1       3.079   2.725   2.154  0.00  0.00    -0.278 OA
ATOM      4  N   UNL     1       3.810   4.504   1.098  0.00  0.00    -0.318 N 
ATOM      5  C   UNL     1       4.192   5.213  -0.120  0.00  0.00    +0.085 C 
ATOM      6  C   UNL     1       4.498   4.212  -1.235  0.00  0.00    -0.058 C 
ATOM      7  N   UNL     1       3.381   3.257  -1.333  0.00  0.00    +0.391 N 
ATOM      8  H   UNL     1       3.844   5.020   2.069  0.00  0.00    +0.149 HD
ATOM      9  H   UNL     1       2.439   3.823  -1.375  0.00  0.00    -0.080 HD
ENDROOT
BRANCH   1  10
ATOM     10  C   UNL     1       2.056   1.574  -0.148  0.00  0.00    +0.090 C 
BRANCH  10  13
ATOM     11  N   UNL     1      -0.377   2.012  -0.066  0.00  0.00    -0.302 N 
ATOM     12  C   UNL     1      -0.584   0.569   0.073  0.00  0.00    +0.132 C 
ATOM     13  C   UNL     1       0.873   2.507  -0.172  0.00  0.00    +0.214 C 
ATOM     14  O   UNL     1       1.044   3.702  -0.287  0.00  0.00    -0.276 OA
BRANCH  11  19
ATOM     15  C   UNL     1      -5.650   4.050  -0.017  0.00  0.00    -0.096 C 
ATOM     16  N   UNL     1      -4.389   3.296  -0.005  0.00  0.00    +0.378 N 
ATOM     17  C   UNL     1      -3.662   3.469  -1.269  0.00  0.00    -0.077 C 
ATOM     18  C   UNL     1      -2.431   2.559  -1.279  0.00  0.00    +0.004 C 
ATOM     19  C   UNL     1      -1.528   2.918  -0.096  0.00  0.00    +0.072 C 
ATOM     20  C   UNL     1      -2.324   2.777   1.205  0.00  0.00    +0.004 C 
ATOM     21  C   UNL     1      -3.558   3.680   1.143  0.00  0.00    -0.077 C 
ATOM     22  H   UNL     1      -4.632   2.229   0.099  0.00  0.00    -0.082 HD
ENDBRANCH  11  19
ENDBRANCH  10  13
ENDBRANCH   1  10
BRANCH   7  23
ATOM     23  C   UNL     1       3.476   2.460  -2.563  0.00  0.00    -0.042 C 
BRANCH  23  24
ATOM     24  C   UNL     1       3.125   3.322  -3.748  0.00  0.00    -0.061 A 
ATOM     25  C   UNL     1       4.115   4.029  -4.405  0.00  0.00    +0.003 A 
ATOM     26  C   UNL     1       3.796   4.821  -5.492  0.00  0.00    +0.023 A 
ATOM     27  C   UNL     1       2.485   4.905  -5.925  0.00  0.00    +0.076 A 
ATOM     28  C   UNL     1       1.492   4.197  -5.267  0.00  0.00    +0.142 A 
ATOM     29  C   UNL     1       1.815   3.401  -4.181  0.00  0.00    +0.041 A 
ATOM     30  F   UNL     1       0.211   4.279  -5.688  0.00  0.00    -0.204 F 
ATOM     31 CL   UNL     1       2.083   5.898  -7.291  0.00  0.00    -0.081 Cl
ENDBRANCH  23  24
ENDBRANCH   7  23
TORSDOF 5
