REMARK  Name = ZINC37027749
REMARK  11 active torsions:
REMARK  status: ('A' for Active; 'I' for Inactive)
REMARK    1  A    between atoms: C_1  and  C_2
REMARK    2  A    between atoms: C_2  and  C_4
REMARK    3  A    between atoms: C_2  and  N_10
REMARK    4  A    between atoms: C_4  and  C_5
REMARK    5  A    between atoms: C_5  and  C_6
REMARK    6  A    between atoms: C_5  and  C_7
REMARK    7  A    between atoms: C_5  and  O_8
REMARK    8  A    between atoms: O_8  and  C_9
REMARK    9  A    between atoms: N_10  and  C_11
REMARK   10  A    between atoms: C_16  and  C_17
REMARK   11  A    between atoms: N_21  and  C_22
REMARK                            x       y       z     vdW  Elec       q    Type
REMARK                         _______ _______ _______ _____ _____    ______ ____
ROOT
ATOM      1  C   UNL     1      -0.064  -0.518   2.437  0.00  0.00    +0.038 A 
ATOM      2  C   UNL     1      -1.434  -0.309   2.362  0.00  0.00    +0.023 A 
ATOM      3  C   UNL     1      -2.207  -0.369   3.505  0.00  0.00    +0.002 A 
ATOM      4  C   UNL     1      -1.623  -0.640   4.731  0.00  0.00    +0.001 A 
ATOM      5  C   UNL     1      -0.263  -0.851   4.823  0.00  0.00    +0.013 A 
ATOM      6  C   UNL     1       0.529  -0.798   3.675  0.00  0.00    +0.040 A 
ENDROOT
BRANCH   6   7
ATOM      7  C   UNL     1       1.986  -1.029   3.767  0.00  0.00    +0.166 A 
ATOM      8  N   UNL     1       2.704  -1.812   2.992  0.00  0.00    -0.129 NA
ATOM      9  N   UNL     1       3.936  -1.772   3.357  0.00  0.00    -0.138 NA
ATOM     10  C   UNL     1       4.075  -0.969   4.377  0.00  0.00    +0.225 A 
ATOM     11  N   UNL     1       2.845  -0.464   4.670  0.00  0.00    -0.317 N 
ATOM     12  C   UNL     1       2.510   0.486   5.734  0.00  0.00    +0.152 C 
ENDBRANCH   6   7
BRANCH   1  13
ATOM     13  N   UNL     1       0.717  -0.458   1.284  0.00  0.00    -0.341 N 
ATOM     14  H   UNL     1       1.674  -0.608   1.339  0.00  0.00    +0.146 HD
BRANCH  13  16
ATOM     15  C   UNL     1      -0.026   1.349  -0.187  0.00  0.00    +0.028 C 
ATOM     16  C   UNL     1       0.094  -0.165  -0.009  0.00  0.00    +0.070 C 
BRANCH  16  17
ATOM     17  C   UNL     1       0.956  -0.744  -1.133  0.00  0.00    +0.056 C 
BRANCH  17  18
ATOM     18  C   UNL     1       0.957  -2.272  -1.039  0.00  0.00    +0.065 C 
ATOM     19  C   UNL     1      -0.475  -2.792  -1.175  0.00  0.00    +0.041 C 
ATOM     20  C   UNL     1       1.820  -2.850  -2.163  0.00  0.00    +0.041 C 
BRANCH  18  21
ATOM     21  O   UNL     1       1.491  -2.671   0.225  0.00  0.00    -0.377 OA
ATOM     22  C   UNL     1       1.537  -4.086   0.415  0.00  0.00    +0.194 C 
ENDBRANCH  18  21
ENDBRANCH  17  18
ENDBRANCH  16  17
ENDBRANCH  13  16
ENDBRANCH   1  13
TORSDOF 6
