REMARK  Name = ZINC07787385
REMARK  5 active torsions:
REMARK  status: ('A' for Active; 'I' for Inactive)
REMARK    1  A    between atoms: C_1  and  C_2
REMARK    2  A    between atoms: C_2  and  C_25
REMARK    3  A    between atoms: C_3  and  C_19
REMARK    4  A    between atoms: N_6  and  O_7
REMARK    5  A    between atoms: N_13  and  N_14
REMARK                            x       y       z     vdW  Elec       q    Type
REMARK                         _______ _______ _______ _____ _____    ______ ____
ROOT
ATOM      1  C   UNL     1      -5.184   4.170  -0.628  0.00  0.00    +0.037 C 
ATOM      2  C   UNL     1      -4.501   2.833  -0.921  0.00  0.00    +0.088 C 
ATOM      3  C   UNL     1      -5.219   1.706  -0.211  0.00  0.00    +0.089 C 
ATOM      4  N   UNL     1      -4.351   0.930   0.350  0.00  0.00    -0.138 N 
ATOM      5  C   UNL     1      -2.994   1.416   0.098  0.00  0.00    +0.197 C 
ATOM      6  N   UNL     1      -3.129   2.817  -0.352  0.00  0.00    -0.145 NA
ATOM      7  C   UNL     1      -2.316   0.582  -0.988  0.00  0.00    +0.056 C 
ATOM      8  C   UNL     1      -0.866   1.041  -1.151  0.00  0.00    +0.005 C 
ATOM      9  C   UNL     1      -0.096   0.797   0.148  0.00  0.00    +0.006 C 
ATOM     10  C   UNL     1      -0.691   1.659   1.266  0.00  0.00    +0.056 C 
ATOM     11  C   UNL     1      -2.173   1.363   1.362  0.00  0.00    +0.082 C 
ATOM     12  N   UNL     1      -2.714   1.076   2.486  0.00  0.00    -0.184 NA
ATOM     13  O   UNL     1      -4.668  -0.228   1.101  0.00  0.00    -0.167 OA
ATOM     14  C   UNL     1      -4.457   2.574  -2.428  0.00  0.00    +0.037 C 
ENDROOT
BRANCH  12  15
ATOM     15  N   UNL     1      -4.087   1.282   2.675  0.00  0.00    -0.191 N 
ATOM     16  C   UNL     1      -4.677   0.879   3.818  0.00  0.00    +0.317 C 
ATOM     17  O   UNL     1      -5.869   1.057   3.982  0.00  0.00    -0.251 OA
ATOM     18  N   UNL     1      -3.947   0.279   4.779  0.00  0.00    -0.312 N 
ATOM     19  H   UNL     1      -4.612   1.713   1.984  0.00  0.00    +0.179 HD
ATOM     20  H   UNL     1      -2.997   0.137   4.648  0.00  0.00    +0.147 HD
ATOM     21  H   UNL     1      -4.372  -0.011   5.601  0.00  0.00    +0.147 HD
ENDBRANCH  12  15
BRANCH   3  22
ATOM     22  C   UNL     1      -6.683   1.522  -0.167  0.00  0.00    -0.001 A 
ATOM     23  C   UNL     1      -7.270   0.822   0.889  0.00  0.00    +0.010 A 
ATOM     24  C   UNL     1      -8.639   0.657   0.926  0.00  0.00    +0.001 A 
ATOM     25  C   UNL     1      -9.430   1.176  -0.084  0.00  0.00    +0.000 A 
ATOM     26  C   UNL     1      -8.854   1.866  -1.136  0.00  0.00    +0.001 A 
ATOM     27  C   UNL     1      -7.487   2.043  -1.183  0.00  0.00    +0.010 A 
ENDBRANCH   3  22
BRANCH   6  28
ATOM     28  O   UNL     1      -2.134   3.137  -1.375  0.00  0.00    -0.309 OA
ATOM     29  H   UNL     1      -2.183   4.046  -1.701  0.00  0.00    +0.237 HD
ENDBRANCH   6  28
TORSDOF 3
