REMARK  Name = ZINC33551994
REMARK  7 active torsions:
REMARK  status: ('A' for Active; 'I' for Inactive)
REMARK    1  A    between atoms: C_1  and  N_2
REMARK    2  A    between atoms: C_6  and  C_7
REMARK    3  A    between atoms: C_10  and  N_14
REMARK    4  A    between atoms: N_14  and  C_15
REMARK    5  A    between atoms: N_14  and  C_16
REMARK    6  A    between atoms: N_19  and  C_20
REMARK    7  A    between atoms: C_24  and  C_26
REMARK                            x       y       z     vdW  Elec       q    Type
REMARK                         _______ _______ _______ _____ _____    ______ ____
ROOT
ATOM      1  C   UNL     1      -0.852   1.350   0.058  0.00  0.00    +0.140 C 
ATOM      2  N   UNL     1      -0.478  -0.066   0.029  0.00  0.00    -0.249 N 
ATOM      3  C   UNL     1      -0.456  -0.714  -1.124  0.00  0.00    +0.259 C 
ATOM      4  O   UNL     1      -0.741  -0.161  -2.170  0.00  0.00    -0.269 OA
ATOM      5  C   UNL     1      -0.071  -2.137  -1.084  0.00  0.00    +0.078 C 
ATOM      6  C   UNL     1       0.033  -3.030  -2.102  0.00  0.00    +0.028 C 
ATOM      7  S   UNL     1       0.220  -2.371   0.663  0.00  0.00    -0.049 S 
ATOM      8  C   UNL     1      -0.147  -0.709   1.202  0.00  0.00    +0.168 C 
ATOM      9  N   UNL     1      -0.112  -0.218   2.420  0.00  0.00    -0.225 NA
ENDROOT
BRANCH   6  10
ATOM     10  C   UNL     1      -0.090  -2.576  -3.492  0.00  0.00    -0.023 A 
ATOM     11  C   UNL     1       0.493  -1.366  -3.891  0.00  0.00    +0.010 A 
ATOM     12  C   UNL     1       0.375  -0.944  -5.195  0.00  0.00    +0.025 A 
ATOM     13  C   UNL     1      -0.323  -1.717  -6.119  0.00  0.00    +0.043 A 
ATOM     14  C   UNL     1      -0.904  -2.921  -5.728  0.00  0.00    +0.039 A 
ATOM     15  C   UNL     1      -0.786  -3.354  -4.426  0.00  0.00    +0.025 A 
ATOM     16 BR   UNL     1      -1.850  -3.966  -6.989  0.00  0.00    -0.048 Br
BRANCH  13  17
ATOM     17  N   UNL     1      -0.440  -1.285  -7.438  0.00  0.00    -0.335 N 
ATOM     18  C   UNL     1       0.569  -1.671  -8.427  0.00  0.00    +0.129 C 
ATOM     19  C   UNL     1      -1.573  -0.446  -7.836  0.00  0.00    +0.129 C 
ENDBRANCH  13  17
ENDBRANCH   6  10
BRANCH   9  20
ATOM     20  C   UNL     1       0.245  -1.020   3.471  0.00  0.00    +0.067 A 
ATOM     21  C   UNL     1      -0.285  -2.309   3.580  0.00  0.00    +0.028 A 
ATOM     22  C   UNL     1       0.074  -3.119   4.639  0.00  0.00    +0.003 A 
ATOM     23  C   UNL     1       0.958  -2.663   5.597  0.00  0.00    +0.015 A 
ATOM     24  C   UNL     1       1.496  -1.376   5.501  0.00  0.00    +0.065 A 
ATOM     25  C   UNL     1       1.142  -0.554   4.431  0.00  0.00    +0.043 A 
BRANCH  24  26
ATOM     26  C   UNL     1       2.439  -0.891   6.527  0.00  0.00    +0.387 C 
ATOM     27  O   UNL     1       2.751  -1.614   7.462  0.00  0.00    -0.241 OA
ATOM     28  O   UNL     1       2.909   0.235   6.441  0.00  0.00    -0.241 OA
ENDBRANCH  24  26
ENDBRANCH   9  20
TORSDOF 4
