REMARK  Name = ZINC63256930
REMARK  9 active torsions:
REMARK  status: ('A' for Active; 'I' for Inactive)
REMARK    1  A    between atoms: C_6  and  C_7
REMARK    2  A    between atoms: C_7  and  N_8
REMARK    3  A    between atoms: N_11  and  C_12
REMARK    4  A    between atoms: C_12  and  C_13
REMARK    5  A    between atoms: C_13  and  C_14
REMARK    6  A    between atoms: C_13  and  O_25
REMARK    7  A    between atoms: C_14  and  O_15
REMARK    8  A    between atoms: O_15  and  C_16
REMARK    9  A    between atoms: C_19  and  N_22
REMARK                            x       y       z     vdW  Elec       q    Type
REMARK                         _______ _______ _______ _____ _____    ______ ____
ROOT
ATOM      1  C   UNL     1      -4.505  -2.651  -3.135  0.00  0.00    +0.140 C 
ENDROOT
BRANCH   1   5
ATOM      2  N   UNL     1      -1.726  -1.017  -1.368  0.00  0.00    -0.295 N 
ATOM      3  C   UNL     1      -2.867  -1.693  -1.607  0.00  0.00    +0.300 C 
ATOM      4  O   UNL     1      -3.537  -2.102  -0.679  0.00  0.00    -0.253 OA
ATOM      5  N   UNL     1      -3.265  -1.916  -2.875  0.00  0.00    -0.297 N 
ATOM      6  H   UNL     1      -1.191  -0.691  -2.109  0.00  0.00    +0.151 HD
ATOM      7  H   UNL     1      -2.731  -1.590  -3.616  0.00  0.00    +0.150 HD
BRANCH   2   8
ATOM      8  C   UNL     1      -1.293  -0.775   0.010  0.00  0.00    +0.141 C 
BRANCH   8  14
ATOM      9  C   UNL     1      -0.017   1.378   0.010  0.00  0.00    +0.008 A 
ATOM     10  C   UNL     1       1.170   2.086   0.002  0.00  0.00    +0.038 A 
ATOM     11  C   UNL     1       2.379   1.410  -0.013  0.00  0.00    +0.123 A 
ATOM     12  C   UNL     1       2.396   0.026  -0.021  0.00  0.00    +0.038 A 
ATOM     13  C   UNL     1       1.208  -0.680  -0.013  0.00  0.00    +0.008 A 
ATOM     14  C   UNL     1       0.002  -0.004   0.002  0.00  0.00    -0.030 A 
ATOM     15  F   UNL     1       3.540   2.101  -0.021  0.00  0.00    -0.205 F 
ENDBRANCH   8  14
ENDBRANCH   2   8
ENDBRANCH   1   5
BRANCH   1  16
ATOM     16  C   UNL     1      -4.724  -2.765  -4.645  0.00  0.00    +0.169 C 
BRANCH  16  17
ATOM     17  O   UNL     1      -3.686  -3.561  -5.218  0.00  0.00    -0.387 OA
ATOM     18  H   UNL     1      -3.642  -4.462  -4.868  0.00  0.00    +0.210 HD
ENDBRANCH  16  17
BRANCH  16  19
ATOM     19  C   UNL     1      -6.079  -3.422  -4.916  0.00  0.00    +0.261 C 
BRANCH  19  20
ATOM     20  O   UNL     1      -6.336  -3.422  -6.322  0.00  0.00    -0.489 OA
BRANCH  20  21
ATOM     21  C   UNL     1      -7.507  -3.974  -6.735  0.00  0.00    +0.121 A 
ATOM     22  C   UNL     1      -8.394  -4.498  -5.806  0.00  0.00    +0.048 A 
ATOM     23  C   UNL     1      -9.584  -5.058  -6.229  0.00  0.00    +0.036 A 
ATOM     24  C   UNL     1      -9.892  -5.096  -7.577  0.00  0.00    +0.126 A 
ATOM     25  C   UNL     1      -9.009  -4.574  -8.504  0.00  0.00    +0.036 A 
ATOM     26  C   UNL     1      -7.820  -4.008  -8.086  0.00  0.00    +0.048 A 
BRANCH  24  27
ATOM     27  N   UNL     1     -11.168  -5.696  -8.027  0.00  0.00    +0.056 N 
ATOM     28  O   UNL     1     -11.940  -6.152  -7.216  0.00  0.00    -0.126 OA
ATOM     29  O   UNL     1     -11.438  -5.729  -9.205  0.00  0.00    -0.126 OA
ENDBRANCH  24  27
ENDBRANCH  20  21
ENDBRANCH  19  20
ENDBRANCH  16  19
ENDBRANCH   1  16
TORSDOF 9
