REMARK  Name = ZINC32935673
REMARK  10 active torsions:
REMARK  status: ('A' for Active; 'I' for Inactive)
REMARK    1  A    between atoms: C_1  and  C_2
REMARK    2  A    between atoms: C_3  and  C_27
REMARK    3  A    between atoms: C_5  and  N_11
REMARK    4  A    between atoms: C_6  and  C_7
REMARK    5  A    between atoms: C_7  and  O_9
REMARK    6  A    between atoms: O_9  and  C_10
REMARK    7  A    between atoms: C_12  and  C_14
REMARK    8  A    between atoms: C_14  and  N_15
REMARK    9  A    between atoms: C_19  and  C_22
REMARK   10  A    between atoms: C_22  and  N_23
REMARK                            x       y       z     vdW  Elec       q    Type
REMARK                         _______ _______ _______ _____ _____    ______ ____
ROOT
ATOM      1  C   UNL     1      -6.163   1.111  -0.325  0.00  0.00    +0.019 C 
ENDROOT
BRANCH   1   2
ATOM      2  N   UNL     1      -4.876   0.446  -0.077  0.00  0.00    +0.386 N 
ATOM      3  C   UNL     1      -4.904  -0.300   1.187  0.00  0.00    -0.078 C 
ATOM      4  C   UNL     1      -3.605  -1.094   1.341  0.00  0.00    -0.018 C 
ATOM      5  C   UNL     1      -2.417  -0.128   1.323  0.00  0.00    +0.001 C 
ATOM      6  C   UNL     1      -2.439   0.671   0.017  0.00  0.00    -0.011 C 
ATOM      7  C   UNL     1      -3.772   1.414  -0.098  0.00  0.00    -0.073 C 
ATOM      8  H   UNL     1      -4.705  -0.276  -0.889  0.00  0.00    -0.081 HD
BRANCH   6   9
ATOM      9  C   UNL     1      -1.290   1.681   0.017  0.00  0.00    +0.107 C 
BRANCH   9  10
ATOM     10  N   UNL     1      -0.011   0.966   0.007  0.00  0.00    -0.299 N 
ATOM     11  C   UNL     1       1.147   1.655   0.000  0.00  0.00    +0.297 C 
ATOM     12  O   UNL     1       1.130   2.871   0.007  0.00  0.00    -0.253 OA
ATOM     13  N   UNL     1       2.323   0.998  -0.015  0.00  0.00    -0.313 N 
ATOM     14  H   UNL     1       0.004  -0.134   0.006  0.00  0.00    +0.150 HD
ATOM     15  H   UNL     1       3.268   1.560  -0.021  0.00  0.00    +0.146 HD
ATOM     16  H   UNL     1       2.338  -0.102  -0.021  0.00  0.00    +0.146 HD
ENDBRANCH   9  10
ENDBRANCH   6   9
ENDBRANCH   1   2
BRANCH   1  18
ATOM     17  N   UNL     1      -8.502   0.450  -0.785  0.00  0.00    -0.281 N 
ATOM     18  C   UNL     1      -7.232   0.071  -0.539  0.00  0.00    +0.201 C 
ATOM     19  O   UNL     1      -6.950  -1.108  -0.491  0.00  0.00    -0.278 OA
ATOM     20  H   UNL     1      -8.758   1.519  -0.829  0.00  0.00    +0.155 HD
BRANCH  17  25
ATOM     21  C   UNL     1     -13.119  -1.417  -1.697  0.00  0.00    +0.045 C 
ATOM     22  C   UNL     1     -11.642  -1.502  -1.409  0.00  0.00    -0.025 A 
ATOM     23  C   UNL     1     -11.017  -2.687  -1.294  0.00  0.00    -0.008 A 
ATOM     24  S   UNL     1      -9.328  -2.231  -0.962  0.00  0.00    -0.078 S 
ATOM     25  C   UNL     1      -9.485  -0.506  -0.983  0.00  0.00    +0.086 A 
ATOM     26  C   UNL     1     -10.838  -0.314  -1.241  0.00  0.00    +0.091 A 
ATOM     27  C   UNL     1     -11.605  -4.069  -1.415  0.00  0.00    +0.052 C 
BRANCH  26  28
ATOM     28  C   UNL     1     -11.419   1.027  -1.340  0.00  0.00    +0.342 C 
ATOM     29  O   UNL     1     -11.462   1.593  -2.416  0.00  0.00    -0.245 OA
BRANCH  28  30
ATOM     30  O   UNL     1     -11.905   1.634  -0.238  0.00  0.00    -0.464 OA
ATOM     31  C   UNL     1     -12.466   2.962  -0.411  0.00  0.00    +0.280 C 
ENDBRANCH  28  30
ENDBRANCH  26  28
ENDBRANCH  17  25
ENDBRANCH   1  18
TORSDOF 7
