REMARK  Name = ZINC47895505
REMARK  7 active torsions:
REMARK  status: ('A' for Active; 'I' for Inactive)
REMARK    1  A    between atoms: C_1  and  C_2
REMARK    2  A    between atoms: C_4  and  N_7
REMARK    3  A    between atoms: C_8  and  C_10
REMARK    4  A    between atoms: C_10  and  C_12
REMARK    5  A    between atoms: C_10  and  S_13
REMARK    6  A    between atoms: S_13  and  C_14
REMARK    7  A    between atoms: C_17  and  O_20
REMARK                            x       y       z     vdW  Elec       q    Type
REMARK                         _______ _______ _______ _____ _____    ______ ____
ROOT
ATOM      1  C   UNL     1      -0.048  -5.588  -1.605  0.00  0.00    +0.134 C 
ATOM      2  C   UNL     1      -1.388  -5.904  -2.274  0.00  0.00    +0.029 C 
ENDROOT
BRANCH   1   4
ATOM      3  N   UNL     1      -0.494  -3.416  -0.509  0.00  0.00    -0.253 N 
ATOM      4  C   UNL     1      -0.284  -4.741  -0.382  0.00  0.00    +0.232 C 
ATOM      5  O   UNL     1      -0.285  -5.252   0.718  0.00  0.00    -0.274 OA
ATOM      6  H   UNL     1      -0.493  -3.008  -1.389  0.00  0.00    +0.158 HD
BRANCH   3  10
ATOM      7  C   UNL     1      -1.375   0.503   2.443  0.00  0.00    +0.069 C 
ATOM      8  C   UNL     1      -1.106  -0.901   1.966  0.00  0.00    +0.082 A 
ATOM      9  C   UNL     1      -0.935  -1.297   0.633  0.00  0.00    +0.092 A 
ATOM     10  C   UNL     1      -0.711  -2.636   0.617  0.00  0.00    +0.224 A 
ATOM     11  O   UNL     1      -0.739  -3.072   1.888  0.00  0.00    -0.339 OA
ATOM     12  N   UNL     1      -0.985  -1.956   2.724  0.00  0.00    -0.081 NA
ENDBRANCH   3  10
ENDBRANCH   1   4
BRANCH   1  13
ATOM     13  S   UNL     1       0.765  -7.136  -1.122  0.00  0.00    -0.113 S 
BRANCH  13  14
ATOM     14  C   UNL     1       2.376  -6.631  -0.617  0.00  0.00    +0.009 A 
ATOM     15  C   UNL     1       2.771  -5.308  -0.774  0.00  0.00    +0.018 A 
ATOM     16  C   UNL     1       4.034  -4.914  -0.378  0.00  0.00    +0.046 A 
ATOM     17  C   UNL     1       4.908  -5.838   0.176  0.00  0.00    +0.117 A 
ATOM     18  C   UNL     1       4.515  -7.159   0.332  0.00  0.00    +0.046 A 
ATOM     19  C   UNL     1       3.251  -7.554  -0.058  0.00  0.00    +0.018 A 
BRANCH  17  20
ATOM     20  O   UNL     1       6.152  -5.448   0.565  0.00  0.00    -0.507 OA
ATOM     21  H   UNL     1       6.200  -5.147   1.482  0.00  0.00    +0.292 HD
ENDBRANCH  17  20
ENDBRANCH  13  14
ENDBRANCH   1  13
TORSDOF 5
