REMARK  Name = ZINC44877847
REMARK  7 active torsions:
REMARK  status: ('A' for Active; 'I' for Inactive)
REMARK    1  A    between atoms: C_1  and  C_2
REMARK    2  A    between atoms: C_2  and  C_3
REMARK    3  A    between atoms: C_3  and  C_5
REMARK    4  A    between atoms: C_3  and  C_9
REMARK    5  A    between atoms: N_6  and  O_7
REMARK    6  A    between atoms: C_16  and  C_18
REMARK    7  A    between atoms: N_20  and  C_21
REMARK                            x       y       z     vdW  Elec       q    Type
REMARK                         _______ _______ _______ _____ _____    ______ ____
ROOT
ATOM      1  C   UNL     1      -1.595  -2.075   0.065  0.00  0.00    +0.226 C 
ATOM      2  O   UNL     1      -2.022  -2.697  -0.886  0.00  0.00    -0.275 OA
ATOM      3  N   UNL     1      -1.006  -2.728   1.087  0.00  0.00    -0.289 N 
ATOM      4  C   UNL     1      -0.590  -2.004   2.296  0.00  0.00    +0.108 C 
ATOM      5  C   UNL     1       0.889  -2.300   2.563  0.00  0.00    +0.019 C 
ATOM      6  C   UNL     1       1.098  -3.814   2.634  0.00  0.00    +0.004 C 
ATOM      7  C   UNL     1       0.713  -4.447   1.295  0.00  0.00    +0.032 C 
ATOM      8  C   UNL     1      -0.773  -4.176   1.015  0.00  0.00    +0.162 C 
ENDROOT
BRANCH   8   9
ATOM      9  C   UNL     1      -1.130  -4.678  -0.360  0.00  0.00    +0.233 C 
ATOM     10  O   UNL     1      -0.558  -4.237  -1.334  0.00  0.00    -0.274 OA
ATOM     11  N   UNL     1      -2.085  -5.618  -0.508  0.00  0.00    -0.317 N 
ATOM     12  C   UNL     1      -2.432  -6.106  -1.845  0.00  0.00    +0.128 C 
ATOM     13  H   UNL     1      -2.543  -5.971   0.271  0.00  0.00    +0.148 HD
ENDBRANCH   8   9
BRANCH   1  14
ATOM     14  C   UNL     1      -1.722  -0.574   0.102  0.00  0.00    +0.141 C 
BRANCH  14  15
ATOM     15  C   UNL     1      -2.807  -0.138  -0.849  0.00  0.00    +0.144 C 
ATOM     16  N   UNL     1      -2.504   0.226  -2.051  0.00  0.00    -0.076 NA
ATOM     17  N   UNL     1      -4.121  -0.129  -0.438  0.00  0.00    -0.343 N 
ATOM     18  H   UNL     1      -4.349  -0.402   0.465  0.00  0.00    +0.144 HD
ATOM     19  H   UNL     1      -4.819   0.152  -1.050  0.00  0.00    +0.144 HD
BRANCH  16  20
ATOM     20  O   UNL     1      -3.522   0.636  -2.945  0.00  0.00    -0.408 OA
ATOM     21  H   UNL     1      -3.199   0.890  -3.820  0.00  0.00    +0.328 HD
ENDBRANCH  16  20
ENDBRANCH  14  15
BRANCH  14  23
ATOM     22  C   UNL     1      -0.490   1.582  -0.174  0.00  0.00    +0.005 C 
ATOM     23  C   UNL     1      -0.394   0.061  -0.313  0.00  0.00    +0.017 C 
ENDBRANCH  14  23
ENDBRANCH   1  14
TORSDOF 5
