REMARK  Name = ZINC32116356
REMARK  9 active torsions:
REMARK  status: ('A' for Active; 'I' for Inactive)
REMARK    1  A    between atoms: C_1  and  C_2
REMARK    2  A    between atoms: C_5  and  O_8
REMARK    3  A    between atoms: O_8  and  C_9
REMARK    4  A    between atoms: C_9  and  C_10
REMARK    5  A    between atoms: N_12  and  C_13
REMARK    6  A    between atoms: C_13  and  N_15
REMARK    7  A    between atoms: N_15  and  C_16
REMARK    8  A    between atoms: C_23  and  C_25
REMARK    9  A    between atoms: C_28  and  O_32
REMARK                            x       y       z     vdW  Elec       q    Type
REMARK                         _______ _______ _______ _____ _____    ______ ____
ROOT
ATOM      1  C   UNL     1       0.050 -10.651   2.800  0.00  0.00    +0.035 A 
ATOM      2  C   UNL     1       1.074 -11.329   2.143  0.00  0.00    +0.027 A 
ATOM      3  C   UNL     1       0.998 -12.692   1.952  0.00  0.00    +0.050 A 
ATOM      4  C   UNL     1      -0.102 -13.397   2.415  0.00  0.00    +0.156 A 
ATOM      5  C   UNL     1      -1.139 -12.721   3.078  0.00  0.00    +0.112 A 
ATOM      6  C   UNL     1      -1.052 -11.341   3.273  0.00  0.00    +0.054 A 
ATOM      7  N   UNL     1      -2.065 -13.657   3.410  0.00  0.00    -0.209 NA
ATOM      8  C   UNL     1      -1.651 -14.827   2.992  0.00  0.00    +0.228 A 
ATOM      9  O   UNL     1      -0.458 -14.702   2.381  0.00  0.00    -0.435 OA
ENDROOT
BRANCH   8  10
ATOM     10  C   UNL     1      -2.385 -16.097   3.166  0.00  0.00    +0.038 A 
ATOM     11  C   UNL     1      -3.622 -16.108   3.813  0.00  0.00    +0.017 A 
ATOM     12  C   UNL     1      -4.304 -17.294   3.973  0.00  0.00    +0.047 A 
ATOM     13  C   UNL     1      -3.762 -18.479   3.492  0.00  0.00    +0.131 A 
ATOM     14  C   UNL     1      -2.531 -18.473   2.847  0.00  0.00    +0.060 A 
ATOM     15  C   UNL     1      -1.846 -17.289   2.678  0.00  0.00    +0.032 A 
ATOM     16 BR   UNL     1      -1.799 -20.090   2.194  0.00  0.00    -0.047 Br
BRANCH  13  17
ATOM     17  O   UNL     1      -4.437 -19.647   3.652  0.00  0.00    -0.506 OA
ATOM     18  H   UNL     1      -5.039 -19.856   2.924  0.00  0.00    +0.292 HD
ENDBRANCH  13  17
ENDBRANCH   8  10
BRANCH   1  19
ATOM     19  N   UNL     1       0.138  -9.266   2.988  0.00  0.00    -0.297 N 
ATOM     20  H   UNL     1      -0.071  -8.879   3.852  0.00  0.00    +0.154 HD
BRANCH  19  21
ATOM     21  C   UNL     1       0.515  -8.470   1.968  0.00  0.00    +0.141 C 
ATOM     22  S   UNL     1       0.990  -9.160   0.474  0.00  0.00    -0.018 S 
BRANCH  21  25
ATOM     23  C   UNL     1       0.896  -6.336   1.102  0.00  0.00    +0.256 C 
ATOM     24  O   UNL     1       1.232  -6.825   0.044  0.00  0.00    -0.272 OA
ATOM     25  N   UNL     1       0.519  -7.132   2.123  0.00  0.00    -0.265 N 
ATOM     26  H   UNL     1       0.250  -6.741   2.969  0.00  0.00    +0.157 HD
BRANCH  23  27
ATOM     27  C   UNL     1       0.899  -4.839   1.275  0.00  0.00    +0.324 C 
BRANCH  27  28
ATOM     28  O   UNL     1       1.334  -4.220   0.063  0.00  0.00    -0.483 OA
BRANCH  28  33
ATOM     29  C   UNL     1       1.583   1.407   0.010  0.00  0.00    +0.044 C 
ATOM     30  C   UNL     1       1.516  -0.099   0.024  0.00  0.00    -0.050 A 
ATOM     31  C   UNL     1       1.868  -0.816  -1.105  0.00  0.00    +0.007 A 
ATOM     32  C   UNL     1       1.808  -2.196  -1.094  0.00  0.00    +0.046 A 
ATOM     33  C   UNL     1       1.394  -2.863   0.050  0.00  0.00    +0.121 A 
ATOM     34  C   UNL     1       1.042  -2.141   1.181  0.00  0.00    +0.046 A 
ATOM     35  C   UNL     1       1.109  -0.761   1.168  0.00  0.00    +0.007 A 
ENDBRANCH  28  33
ENDBRANCH  27  28
ENDBRANCH  23  27
ENDBRANCH  21  25
ENDBRANCH  19  21
ENDBRANCH   1  19
TORSDOF 8
