REMARK  Name = ZINC66908193
REMARK  6 active torsions:
REMARK  status: ('A' for Active; 'I' for Inactive)
REMARK    1  A    between atoms: C_1  and  C_2
REMARK    2  A    between atoms: C_10  and  C_11
REMARK    3  A    between atoms: N_13  and  N_14
REMARK    4  A    between atoms: N_17  and  C_18
REMARK    5  A    between atoms: C_18  and  C_19
REMARK    6  A    between atoms: C_19  and  O_29
REMARK                            x       y       z     vdW  Elec       q    Type
REMARK                         _______ _______ _______ _____ _____    ______ ____
ROOT
ATOM      1  N   UNL     1       0.601  -0.907   4.805  0.00  0.00    -0.218 N 
ATOM      2  C   UNL     1       0.479  -1.806   5.803  0.00  0.00    +0.316 C 
ATOM      3  O   UNL     1       0.572  -1.445   6.960  0.00  0.00    -0.251 OA
ATOM      4  N   UNL     1       0.255  -3.103   5.517  0.00  0.00    -0.295 N 
ATOM      5  H   UNL     1       0.762   0.027   5.011  0.00  0.00    +0.174 HD
ATOM      6  H   UNL     1       0.181  -3.391   4.594  0.00  0.00    +0.150 HD
ENDROOT
BRANCH   1   9
ATOM      7  C   UNL     1       0.616  -0.425   2.474  0.00  0.00    +0.296 C 
ATOM      8  O   UNL     1       0.818   0.747   2.732  0.00  0.00    -0.265 OA
ATOM      9  N   UNL     1       0.494  -1.323   3.471  0.00  0.00    -0.227 N 
ATOM     10  H   UNL     1       0.333  -2.257   3.266  0.00  0.00    +0.173 HD
BRANCH   7  20
ATOM     11  C   UNL     1       0.857   1.439  -0.004  0.00  0.00    +0.048 C 
ATOM     12  C   UNL     1       0.609  -0.048  -0.008  0.00  0.00    +0.008 A 
ATOM     13  C   UNL     1       0.440  -0.908  -1.178  0.00  0.00    +0.024 A 
ATOM     14  C   UNL     1       0.445  -0.687  -2.558  0.00  0.00    +0.012 A 
ATOM     15  C   UNL     1       0.251  -1.736  -3.412  0.00  0.00    +0.001 A 
ATOM     16  C   UNL     1       0.049  -3.017  -2.918  0.00  0.00    +0.004 A 
ATOM     17  C   UNL     1       0.040  -3.256  -1.561  0.00  0.00    +0.047 A 
ATOM     18  C   UNL     1       0.235  -2.205  -0.672  0.00  0.00    +0.136 A 
ATOM     19  O   UNL     1       0.278  -2.128   0.672  0.00  0.00    -0.450 OA
ATOM     20  C   UNL     1       0.504  -0.861   1.075  0.00  0.00    +0.195 A 
ENDBRANCH   7  20
ENDBRANCH   1   9
BRANCH   4  21
ATOM     21  C   UNL     1       0.123  -4.080   6.601  0.00  0.00    +0.145 C 
BRANCH  21  22
ATOM     22  C   UNL     1       0.011  -5.486   6.010  0.00  0.00    +0.107 C 
ATOM     23  C   UNL     1       1.236  -5.768   5.143  0.00  0.00    +0.041 C 
ATOM     24  C   UNL     1       1.214  -7.247   4.740  0.00  0.00    +0.008 C 
ATOM     25  C   UNL     1       1.500  -8.089   5.981  0.00  0.00    +0.035 C 
ATOM     26  C   UNL     1       0.593  -7.686   7.115  0.00  0.00    -0.041 A 
ATOM     27  C   UNL     1      -0.088  -6.489   7.130  0.00  0.00    -0.011 A 
ATOM     28  C   UNL     1      -0.904  -6.176   8.209  0.00  0.00    +0.007 A 
ATOM     29  C   UNL     1      -1.040  -7.055   9.264  0.00  0.00    +0.000 A 
ATOM     30  C   UNL     1      -0.359  -8.258   9.247  0.00  0.00    +0.000 A 
ATOM     31  C   UNL     1       0.453  -8.570   8.176  0.00  0.00    +0.004 A 
BRANCH  22  32
ATOM     32  O   UNL     1      -1.166  -5.565   5.202  0.00  0.00    -0.382 OA
ATOM     33  H   UNL     1      -1.986  -5.389   5.683  0.00  0.00    +0.211 HD
ENDBRANCH  22  32
ENDBRANCH  21  22
ENDBRANCH   4  21
TORSDOF 5
