REMARK  Name = ZINC65394090
REMARK  2 active torsions:
REMARK  status: ('A' for Active; 'I' for Inactive)
REMARK    1  A    between atoms: C_1  and  C_2
REMARK    2  A    between atoms: C_4  and  C_15
REMARK                            x       y       z     vdW  Elec       q    Type
REMARK                         _______ _______ _______ _____ _____    ______ ____
ROOT
ATOM      1  C   UNL     1      -2.340   0.360   0.887  0.00  0.00    +0.051 C 
ATOM      2  C   UNL     1      -1.855   0.412   2.337  0.00  0.00    +0.106 C 
ATOM      3  C   UNL     1      -2.168  -0.891   3.024  0.00  0.00    +0.218 C 
ATOM      4  O   UNL     1      -1.377  -1.356   3.817  0.00  0.00    -0.275 OA
ATOM      5  N   UNL     1      -3.315  -1.542   2.768  0.00  0.00    -0.285 N 
ATOM      6  C   UNL     1      -4.191  -1.086   1.778  0.00  0.00    +0.039 A 
ATOM      7  C   UNL     1      -3.757  -0.151   0.846  0.00  0.00    -0.020 A 
ATOM      8  C   UNL     1      -4.628   0.312  -0.127  0.00  0.00    +0.013 A 
ATOM      9  C   UNL     1      -5.910  -0.167  -0.179  0.00  0.00    +0.001 A 
ATOM     10  C   UNL     1      -6.361  -1.128   0.736  0.00  0.00    +0.090 A 
ATOM     11  C   UNL     1      -5.482  -1.587   1.715  0.00  0.00    +0.053 A 
ATOM     12  N   UNL     1      -7.661  -1.427   0.450  0.00  0.00    -0.178 NA
ATOM     13  N   UNL     1      -8.135  -0.811  -0.505  0.00  0.00    -0.304 N 
ATOM     14  C   UNL     1      -7.110   0.090  -1.060  0.00  0.00    +0.171 C 
ATOM     15  H   UNL     1      -3.537  -2.339   3.275  0.00  0.00    +0.155 HD
ATOM     16  H   UNL     1      -9.041  -0.904  -0.839  0.00  0.00    +0.183 HD
ENDROOT
BRANCH   1  19
ATOM     17  C   UNL     1       0.229   1.269   0.586  0.00  0.00    +0.026 C 
ATOM     18  C   UNL     1       0.055  -0.228   0.321  0.00  0.00    +0.073 C 
ATOM     19  C   UNL     1      -1.437  -0.575   0.082  0.00  0.00    +0.099 C 
ATOM     20  N   UNL     1      -1.568  -1.954   0.558  0.00  0.00    -0.311 N 
ATOM     21  C   UNL     1      -2.628  -2.834   0.427  0.00  0.00    +0.092 C 
ATOM     22  C   UNL     1      -2.843  -3.641   1.493  0.00  0.00    +0.054 C 
ATOM     23  C   UNL     1      -1.988  -3.512   2.680  0.00  0.00    +0.020 C 
ATOM     24  C   UNL     1      -0.811  -2.885   2.634  0.00  0.00    +0.012 C 
ATOM     25  C   UNL     1      -0.351  -2.289   1.327  0.00  0.00    +0.166 C 
ATOM     26  N   UNL     1       0.381  -1.024   1.540  0.00  0.00    -0.291 NA
ATOM     27 CL   UNL     1      -4.117  -4.819   1.456  0.00  0.00    -0.082 Cl
ATOM     28  H   UNL     1       1.375  -1.185   1.611  0.00  0.00    +0.124 HD
ENDBRANCH   1  19
TORSDOF 1
