REMARK  Name = ZINC13697049
REMARK  6 active torsions:
REMARK  status: ('A' for Active; 'I' for Inactive)
REMARK    1  A    between atoms: C_1  and  C_2
REMARK    2  A    between atoms: C_5  and  N_24
REMARK    3  A    between atoms: C_7  and  S_8
REMARK    4  A    between atoms: S_8  and  N_11
REMARK    5  A    between atoms: N_11  and  C_12
REMARK    6  A    between atoms: C_21  and  C_23
REMARK                            x       y       z     vdW  Elec       q    Type
REMARK                         _______ _______ _______ _____ _____    ______ ____
ROOT
ATOM      1  N   UNL     1      -5.894   0.900   1.158  0.00  0.00    -0.216 N 
ATOM      2  H   UNL     1      -6.018   0.218   1.837  0.00  0.00    +0.174 HD
ENDROOT
BRANCH   1   3
ATOM      3  C   UNL     1      -6.564   2.122   1.266  0.00  0.00    +0.050 A 
ATOM      4  C   UNL     1      -7.203   2.662   0.157  0.00  0.00    +0.025 A 
ATOM      5  C   UNL     1      -7.864   3.870   0.268  0.00  0.00    +0.007 A 
ATOM      6  C   UNL     1      -7.890   4.541   1.476  0.00  0.00    -0.024 A 
ATOM      7  C   UNL     1      -7.256   4.013   2.590  0.00  0.00    +0.041 A 
ATOM      8  C   UNL     1      -6.594   2.790   2.478  0.00  0.00    +0.048 A 
ATOM      9  N   UNL     1      -7.400   4.842   3.707  0.00  0.00    -0.271 N 
ATOM     10  C   UNL     1      -8.186   6.028   3.353  0.00  0.00    +0.118 C 
ATOM     11  C   UNL     1      -8.529   5.855   1.865  0.00  0.00    +0.056 C 
ATOM     12  C   UNL     1      -6.892   4.588   4.929  0.00  0.00    +0.217 C 
ATOM     13  O   UNL     1      -6.254   3.575   5.122  0.00  0.00    -0.276 OA
ATOM     14  C   UNL     1      -7.117   5.563   6.056  0.00  0.00    +0.109 C 
ENDBRANCH   1   3
BRANCH   1  15
ATOM     15  S   UNL     1      -4.889   0.617  -0.127  0.00  0.00    +0.073 S 
ATOM     16  O   UNL     1      -5.642   0.895  -1.300  0.00  0.00    -0.150 OA
ATOM     17  O   UNL     1      -4.279  -0.645   0.105  0.00  0.00    -0.150 OA
BRANCH  15  24
ATOM     18  C   UNL     1      -2.858   0.806   2.107  0.00  0.00    +0.046 C 
ATOM     19  C   UNL     1      -2.720   1.826   1.006  0.00  0.00    -0.024 A 
ATOM     20  C   UNL     1      -1.711   2.769   1.061  0.00  0.00    +0.007 A 
ATOM     21  C   UNL     1      -1.582   3.703   0.050  0.00  0.00    +0.033 A 
ATOM     22  C   UNL     1      -2.468   3.699  -1.012  0.00  0.00    +0.128 A 
ATOM     23  C   UNL     1      -3.477   2.756  -1.067  0.00  0.00    +0.061 A 
ATOM     24  C   UNL     1      -3.603   1.819  -0.058  0.00  0.00    +0.114 A 
BRANCH  22  25
ATOM     25  N   UNL     1      -2.333   4.702  -2.092  0.00  0.00    +0.056 N 
ATOM     26  O   UNL     1      -3.110   4.695  -3.030  0.00  0.00    -0.126 OA
ATOM     27  O   UNL     1      -1.447   5.537  -2.041  0.00  0.00    -0.126 OA
ENDBRANCH  22  25
ENDBRANCH  15  24
ENDBRANCH   1  15
TORSDOF 4
