REMARK  Name = ZINC66175782
REMARK  9 active torsions:
REMARK  status: ('A' for Active; 'I' for Inactive)
REMARK    1  A    between atoms: C_1  and  C_2
REMARK    2  A    between atoms: C_5  and  O_28
REMARK    3  A    between atoms: C_6  and  C_8
REMARK    4  A    between atoms: C_8  and  C_10
REMARK    5  A    between atoms: C_8  and  N_11
REMARK    6  A    between atoms: N_14  and  C_15
REMARK    7  A    between atoms: N_14  and  C_16
REMARK    8  A    between atoms: N_19  and  C_22
REMARK    9  A    between atoms: O_28  and  C_29
REMARK                            x       y       z     vdW  Elec       q    Type
REMARK                         _______ _______ _______ _____ _____    ______ ____
ROOT
ATOM      1  N   UNL     1      -0.537  -2.013   3.548  0.00  0.00    -0.293 N 
ATOM      2  C   UNL     1      -1.091  -2.594   4.631  0.00  0.00    +0.303 C 
ATOM      3  O   UNL     1      -1.101  -3.806   4.732  0.00  0.00    -0.253 OA
ATOM      4  N   UNL     1      -1.633  -1.832   5.601  0.00  0.00    -0.286 N 
ATOM      5  C   UNL     1      -1.621  -0.372   5.480  0.00  0.00    +0.134 C 
ATOM      6  H   UNL     1      -0.529  -1.046   3.468  0.00  0.00    +0.151 HD
ENDROOT
BRANCH   4   7
ATOM      7  C   UNL     1      -2.235  -2.464   6.778  0.00  0.00    +0.074 C 
ATOM      8  C   UNL     1      -3.711  -2.066   6.875  0.00  0.00    +0.004 C 
ATOM      9  C   UNL     1      -4.312  -2.664   8.148  0.00  0.00    -0.077 C 
ATOM     10  N   UNL     1      -3.589  -2.157   9.321  0.00  0.00    +0.382 N 
ATOM     11  C   UNL     1      -2.189  -2.596   9.271  0.00  0.00    -0.077 C 
ATOM     12  C   UNL     1      -1.506  -1.995   8.041  0.00  0.00    +0.004 C 
ATOM     13  H   UNL     1      -3.625  -1.149   9.326  0.00  0.00    -0.081 HD
BRANCH  10  14
ATOM     14  C   UNL     1      -4.219  -2.673  10.543  0.00  0.00    -0.064 C 
ATOM     15  C   UNL     1      -5.675  -2.200  10.609  0.00  0.00    +0.013 C 
ATOM     16  C   UNL     1      -6.299  -2.675  11.923  0.00  0.00    +0.158 C 
ATOM     17  O   UNL     1      -5.534  -2.175  13.021  0.00  0.00    -0.380 OA
ATOM     18  C   UNL     1      -4.177  -2.623  13.039  0.00  0.00    +0.158 C 
ATOM     19  C   UNL     1      -3.467  -2.145  11.769  0.00  0.00    +0.013 C 
ENDBRANCH  10  14
ENDBRANCH   4   7
BRANCH   1  20
ATOM     20  C   UNL     1       0.052  -2.841   2.493  0.00  0.00    +0.105 C 
ATOM     21  C   UNL     1       1.496  -3.187   2.864  0.00  0.00    +0.033 C 
BRANCH  20  27
ATOM     22  C   UNL     1      -0.018   1.503   0.010  0.00  0.00    +0.044 C 
ATOM     23  C   UNL     1       0.002  -0.004   0.002  0.00  0.00    -0.050 A 
ATOM     24  C   UNL     1       0.006  -0.688  -1.200  0.00  0.00    +0.007 A 
ATOM     25  C   UNL     1       0.024  -2.069  -1.210  0.00  0.00    +0.046 A 
ATOM     26  C   UNL     1       0.039  -2.770  -0.013  0.00  0.00    +0.125 A 
ATOM     27  C   UNL     1       0.036  -2.082   1.191  0.00  0.00    +0.014 A 
ATOM     28  C   UNL     1       0.023  -0.701   1.196  0.00  0.00    +0.012 A 
BRANCH  26  29
ATOM     29  O   UNL     1       0.057  -4.129  -0.021  0.00  0.00    -0.495 OA
ATOM     30  C   UNL     1       0.058  -4.771  -1.298  0.00  0.00    +0.277 C 
ENDBRANCH  26  29
ENDBRANCH  20  27
ENDBRANCH   1  20
TORSDOF 5
