REMARK  Name = ZINC50833482
REMARK  7 active torsions:
REMARK  status: ('A' for Active; 'I' for Inactive)
REMARK    1  A    between atoms: C_1  and  C_2
REMARK    2  A    between atoms: C_3  and  C_21
REMARK    3  A    between atoms: C_7  and  N_20
REMARK    4  A    between atoms: C_9  and  C_11
REMARK    5  A    between atoms: C_11  and  O_12
REMARK    6  A    between atoms: O_12  and  C_13
REMARK    7  A    between atoms: C_13  and  C_14
REMARK                            x       y       z     vdW  Elec       q    Type
REMARK                         _______ _______ _______ _____ _____    ______ ____
ROOT
ATOM      1  C   UNL     1      -1.596   1.384   0.669  0.00  0.00    +0.045 C 
ATOM      2  C   UNL     1      -1.424  -0.111   0.597  0.00  0.00    -0.028 A 
ATOM      3  C   UNL     1      -2.079  -0.826  -0.330  0.00  0.00    -0.008 A 
ATOM      4  S   UNL     1      -1.557  -2.500  -0.011  0.00  0.00    -0.074 S 
ATOM      5  C   UNL     1      -0.472  -2.195   1.358  0.00  0.00    +0.114 A 
ATOM      6  C   UNL     1      -0.541  -0.794   1.526  0.00  0.00    +0.050 A 
ATOM      7  C   UNL     1       0.255  -0.267   2.579  0.00  0.00    +0.128 A 
ATOM      8  N   UNL     1       0.991  -1.091   3.307  0.00  0.00    -0.215 NA
ATOM      9  C   UNL     1       1.012  -2.394   3.089  0.00  0.00    +0.158 A 
ATOM     10  N   UNL     1       0.286  -2.944   2.134  0.00  0.00    -0.222 NA
ATOM     11  C   UNL     1      -3.032  -0.331  -1.388  0.00  0.00    +0.052 C 
ENDROOT
BRANCH   7  12
ATOM     12  N   UNL     1       0.262   1.092   2.839  0.00  0.00    -0.343 N 
ATOM     13  H   UNL     1       0.110   1.724   2.119  0.00  0.00    +0.144 HD
ATOM     14  H   UNL     1       0.418   1.412   3.741  0.00  0.00    +0.144 HD
ENDBRANCH   7  12
BRANCH   9  15
ATOM     15  C   UNL     1       1.873  -3.273   3.958  0.00  0.00    +0.235 C 
BRANCH  15  16
ATOM     16  O   UNL     1       1.119  -3.711   5.090  0.00  0.00    -0.372 OA
BRANCH  16  17
ATOM     17  C   UNL     1       1.848  -4.555   5.984  0.00  0.00    +0.166 C 
BRANCH  17  18
ATOM     18  C   UNL     1       0.946  -4.960   7.152  0.00  0.00    +0.043 C 
ATOM     19  C   UNL     1       1.736  -5.811   8.175  0.00  0.00    +0.036 C 
ATOM     20  C   UNL     1       0.700  -6.896   8.564  0.00  0.00    +0.160 C 
ATOM     21  O   UNL     1       0.011  -7.163   7.323  0.00  0.00    -0.379 OA
ATOM     22  C   UNL     1      -0.178  -5.895   6.666  0.00  0.00    +0.165 C 
ENDBRANCH  17  18
ENDBRANCH  16  17
ENDBRANCH  15  16
ENDBRANCH   9  15
TORSDOF 5
