REMARK  Name = ZINC04017376
REMARK  12 active torsions:
REMARK  status: ('A' for Active; 'I' for Inactive)
REMARK    1  A    between atoms: C_1  and  C_2
REMARK    2  A    between atoms: C_2  and  C_3
REMARK    3  A    between atoms: C_3  and  C_4
REMARK    4  A    between atoms: C_4  and  C_5
REMARK    5  A    between atoms: C_5  and  C_6
REMARK    6  A    between atoms: N_8  and  C_9
REMARK    7  A    between atoms: C_9  and  C_11
REMARK    8  A    between atoms: C_9  and  N_15
REMARK    9  A    between atoms: N_15  and  C_16
REMARK   10  A    between atoms: C_16  and  N_18
REMARK   11  A    between atoms: N_18  and  C_19
REMARK   12  A    between atoms: C_23  and  N_25
REMARK                            x       y       z     vdW  Elec       q    Type
REMARK                         _______ _______ _______ _____ _____    ______ ____
ROOT
ATOM      1  N   UNL     1       1.061   7.274   0.231  0.00  0.00    -0.305 N 
ATOM      2  H   UNL     1       0.213   7.744   0.241  0.00  0.00    +0.150 HD
ENDROOT
BRANCH   1   3
ATOM      3  C   UNL     1       1.085   5.930   0.123  0.00  0.00    +0.136 C 
ATOM      4  S   UNL     1       2.582   5.099   0.105  0.00  0.00    -0.019 S 
BRANCH   3   5
ATOM      5  N   UNL     1      -0.069   5.241   0.029  0.00  0.00    -0.297 N 
ATOM      6  H   UNL     1      -0.912   5.715  -0.042  0.00  0.00    +0.154 HD
BRANCH   5   7
ATOM      7  C   UNL     1      -0.051   3.842   0.034  0.00  0.00    +0.035 A 
ATOM      8  C   UNL     1       0.784   3.160   0.909  0.00  0.00    +0.023 A 
ATOM      9  C   UNL     1       0.799   1.779   0.911  0.00  0.00    +0.004 A 
ATOM     10  C   UNL     1      -0.015   1.076   0.042  0.00  0.00    +0.033 A 
ATOM     11  C   UNL     1      -0.843   1.752  -0.835  0.00  0.00    +0.128 A 
ATOM     12  C   UNL     1      -0.867   3.133  -0.838  0.00  0.00    +0.056 A 
BRANCH  11  13
ATOM     13  N   UNL     1      -1.708   0.995  -1.767  0.00  0.00    +0.056 N 
ATOM     14  O   UNL     1      -1.691  -0.223  -1.762  0.00  0.00    -0.126 OA
ATOM     15  O   UNL     1      -2.438   1.591  -2.539  0.00  0.00    -0.126 OA
ENDBRANCH  11  13
ENDBRANCH   5   7
ENDBRANCH   3   5
ENDBRANCH   1   3
BRANCH   1  16
ATOM     16  C   UNL     1       2.316   8.023   0.333  0.00  0.00    +0.211 C 
BRANCH  16  19
ATOM     17  C   UNL     1       3.406   7.852   2.506  0.00  0.00    +0.214 C 
ATOM     18  O   UNL     1       4.058   6.925   2.074  0.00  0.00    -0.276 OA
ATOM     19  N   UNL     1       2.507   8.470   1.715  0.00  0.00    -0.294 N 
ATOM     20  H   UNL     1       1.985   9.212   2.061  0.00  0.00    +0.151 HD
BRANCH  17  21
ATOM     21  C   UNL     1       3.602   8.313   3.927  0.00  0.00    +0.096 C 
BRANCH  21  22
ATOM     22  C   UNL     1       4.671   7.450   4.600  0.00  0.00    +0.009 C 
BRANCH  22  23
ATOM     23  C   UNL     1       4.870   7.918   6.043  0.00  0.00    +0.000 C 
BRANCH  23  25
ATOM     24  C   UNL     1       6.138   7.523   8.160  0.00  0.00    +0.004 C 
ATOM     25  C   UNL     1       5.940   7.056   6.716  0.00  0.00    -0.003 C 
ENDBRANCH  23  25
ENDBRANCH  22  23
ENDBRANCH  21  22
ENDBRANCH  17  21
ENDBRANCH  16  19
BRANCH  16  26
ATOM     26  C   UNL     1       2.261   9.239  -0.594  0.00  0.00    +0.225 C 
ATOM     27 CL   UNL     1       0.886  10.300  -0.112  0.00  0.00    -0.080 Cl
ATOM     28 CL   UNL     1       3.806  10.160  -0.468  0.00  0.00    -0.080 Cl
ATOM     29 CL   UNL     1       2.027   8.687  -2.295  0.00  0.00    -0.080 Cl
ENDBRANCH  16  26
ENDBRANCH   1  16
TORSDOF 11
