REMARK  Name = ZINC41545132
REMARK  6 active torsions:
REMARK  status: ('A' for Active; 'I' for Inactive)
REMARK    1  A    between atoms: C_1  and  C_2
REMARK    2  A    between atoms: C_2  and  C_3
REMARK    3  A    between atoms: C_2  and  N_4
REMARK    4  A    between atoms: C_5  and  N_9
REMARK    5  A    between atoms: C_10  and  C_12
REMARK    6  A    between atoms: C_12  and  C_23
REMARK                            x       y       z     vdW  Elec       q    Type
REMARK                         _______ _______ _______ _____ _____    ______ ____
ROOT
ATOM      1  C   UNL     1      -2.888  -3.129   3.268  0.00  0.00    +0.258 C 
ATOM      2  C   UNL     1      -3.261  -3.430   4.697  0.00  0.00    +0.270 C 
ATOM      3  O   UNL     1      -3.084  -4.540   5.153  0.00  0.00    -0.271 OA
ATOM      4  N   UNL     1      -3.794  -2.459   5.468  0.00  0.00    -0.279 N 
ATOM      5  C   UNL     1      -4.109  -1.222   4.890  0.00  0.00    +0.076 A 
ATOM      6  C   UNL     1      -4.440  -0.136   5.685  0.00  0.00    +0.027 A 
ATOM      7  C   UNL     1      -4.735   1.081   5.099  0.00  0.00    +0.002 A 
ATOM      8  C   UNL     1      -4.699   1.218   3.723  0.00  0.00    +0.004 A 
ATOM      9  C   UNL     1      -4.374   0.137   2.924  0.00  0.00    +0.047 A 
ATOM     10  C   UNL     1      -4.084  -1.087   3.503  0.00  0.00    +0.144 A 
ATOM     11  O   UNL     1      -3.793  -2.165   2.727  0.00  0.00    -0.465 OA
ATOM     12  C   UNL     1      -2.960  -4.415   2.442  0.00  0.00    +0.076 C 
ATOM     13  H   UNL     1      -3.958  -2.615   6.412  0.00  0.00    +0.155 HD
ENDROOT
BRANCH   1  15
ATOM     14  N   UNL     1      -1.103  -1.794   2.196  0.00  0.00    -0.267 N 
ATOM     15  C   UNL     1      -1.485  -2.581   3.221  0.00  0.00    +0.271 C 
ATOM     16  O   UNL     1      -0.699  -2.849   4.105  0.00  0.00    -0.270 OA
ATOM     17  H   UNL     1      -1.731  -1.580   1.488  0.00  0.00    +0.156 HD
BRANCH  14  19
ATOM     18  N   UNL     1       0.711  -0.489   1.189  0.00  0.00    -0.248 N 
ATOM     19  C   UNL     1       0.196  -1.287   2.152  0.00  0.00    +0.124 A 
ATOM     20  C   UNL     1       1.175  -1.505   3.072  0.00  0.00    +0.065 A 
ATOM     21  C   UNL     1       2.317  -0.818   2.652  0.00  0.00    +0.136 A 
ATOM     22  N   UNL     1       2.043  -0.214   1.524  0.00  0.00    -0.178 NA
BRANCH  18  24
ATOM     23  C   UNL     1      -0.019   1.526   0.010  0.00  0.00    +0.032 C 
ATOM     24  C   UNL     1       0.002  -0.004   0.002  0.00  0.00    +0.103 C 
ATOM     25  C   UNL     1       0.718  -0.497  -1.257  0.00  0.00    +0.032 C 
ENDBRANCH  18  24
ENDBRANCH  14  19
ENDBRANCH   1  15
TORSDOF 3
