REMARK  Name = ZINC00300796
REMARK  4 active torsions:
REMARK  status: ('A' for Active; 'I' for Inactive)
REMARK    1  A    between atoms: C_4  and  S_10
REMARK    2  A    between atoms: C_5  and  N_7
REMARK    3  A    between atoms: S_10  and  N_13
REMARK    4  A    between atoms: N_13  and  C_14
REMARK                            x       y       z     vdW  Elec       q    Type
REMARK                         _______ _______ _______ _____ _____    ______ ____
ROOT
ATOM      1  C   UNL     1      -1.488   3.005   0.265  0.00  0.00    +0.002 A 
ATOM      2  C   UNL     1      -1.105   2.199  -0.791  0.00  0.00    +0.002 A 
ATOM      3  C   UNL     1       0.183   1.700  -0.848  0.00  0.00    +0.031 A 
ATOM      4  C   UNL     1       1.088   2.007   0.151  0.00  0.00    +0.135 A 
ATOM      5  C   UNL     1       0.706   2.813   1.206  0.00  0.00    +0.152 A 
ATOM      6  C   UNL     1      -0.584   3.308   1.266  0.00  0.00    +0.035 A 
ENDROOT
BRANCH   5   7
ATOM      7  N   UNL     1       1.675   3.142   2.276  0.00  0.00    +0.058 N 
ATOM      8  O   UNL     1       1.378   3.947   3.140  0.00  0.00    -0.126 OA
ATOM      9  O   UNL     1       2.769   2.607   2.292  0.00  0.00    -0.126 OA
ENDBRANCH   5   7
BRANCH   4  10
ATOM     10  S   UNL     1       2.730   1.371   0.078  0.00  0.00    +0.061 S 
ATOM     11  O   UNL     1       2.787   0.524  -1.062  0.00  0.00    -0.153 OA
ATOM     12  O   UNL     1       3.603   2.479   0.248  0.00  0.00    -0.153 OA
BRANCH  10  13
ATOM     13  N   UNL     1       2.937   0.398   1.401  0.00  0.00    -0.187 NA
ATOM     14  H   UNL     1       3.591   0.631   2.078  0.00  0.00    +0.148 HD
BRANCH  13  15
ATOM     15  C   UNL     1       2.131  -0.817   1.550  0.00  0.00    +0.077 C 
ATOM     16  C   UNL     1       1.752  -1.244   2.970  0.00  0.00    +0.022 C 
ATOM     17  C   UNL     1       2.802  -2.036   2.188  0.00  0.00    +0.022 C 
ENDBRANCH  13  15
ENDBRANCH  10  13
ENDBRANCH   4  10
TORSDOF 4
