REMARK  Name = ZINC33011310
REMARK  4 active torsions:
REMARK  status: ('A' for Active; 'I' for Inactive)
REMARK    1  A    between atoms: C_1  and  C_2
REMARK    2  A    between atoms: C_5  and  C_9
REMARK    3  A    between atoms: C_6  and  C_8
REMARK    4  A    between atoms: C_17  and  C_29
REMARK                            x       y       z     vdW  Elec       q    Type
REMARK                         _______ _______ _______ _____ _____    ______ ____
ROOT
ATOM      1  C   UNL     1      -0.268   1.538   1.133  0.00  0.00    +0.063 C 
ATOM      2  C   UNL     1       0.831   1.155   0.135  0.00  0.00    +0.109 C 
ATOM      3  C   UNL     1       0.483   1.604  -1.256  0.00  0.00    +0.219 C 
ATOM      4  O   UNL     1       1.361   2.042  -1.969  0.00  0.00    -0.275 OA
ATOM      5  N   UNL     1      -0.777   1.537  -1.736  0.00  0.00    -0.270 N 
ATOM      6  C   UNL     1      -1.805   1.242  -0.842  0.00  0.00    +0.134 A 
ATOM      7  C   UNL     1      -1.604   1.224   0.513  0.00  0.00    +0.023 A 
ATOM      8  C   UNL     1      -2.805   0.887   1.120  0.00  0.00    +0.066 A 
ATOM      9  N   UNL     1      -3.706   0.711   0.181  0.00  0.00    -0.168 NA
ATOM     10  N   UNL     1      -3.100   0.933  -1.066  0.00  0.00    -0.198 N 
ATOM     11  C   UNL     1      -3.725   0.850  -2.314  0.00  0.00    +0.176 A 
ATOM     12  C   UNL     1      -4.863   0.037  -2.468  0.00  0.00    +0.054 A 
ATOM     13  C   UNL     1      -5.483  -0.047  -3.675  0.00  0.00    +0.054 A 
ATOM     14  C   UNL     1      -4.963   0.677  -4.764  0.00  0.00    +0.178 A 
ATOM     15  N   UNL     1      -5.316   0.803  -6.033  0.00  0.00    -0.128 NA
ATOM     16  N   UNL     1      -4.496   1.599  -6.625  0.00  0.00    -0.136 NA
ATOM     17  C   UNL     1      -3.587   2.021  -5.781  0.00  0.00    +0.249 A 
ATOM     18  N   UNL     1      -3.847   1.457  -4.582  0.00  0.00    -0.198 N 
ATOM     19  N   UNL     1      -3.239   1.526  -3.327  0.00  0.00    -0.144 NA
ATOM     20  C   UNL     1      -3.036   0.747   2.602  0.00  0.00    +0.068 C 
ATOM     21  H   UNL     1      -0.968   1.712  -2.805  0.00  0.00    +0.156 HD
ENDROOT
BRANCH   1  26
ATOM     22  C   UNL     1       0.056   7.186   2.311  0.00  0.00    +0.044 C 
ATOM     23  C   UNL     1      -0.028   5.713   2.004  0.00  0.00    -0.050 A 
ATOM     24  C   UNL     1      -0.366   5.290   0.732  0.00  0.00    +0.003 A 
ATOM     25  C   UNL     1      -0.440   3.939   0.449  0.00  0.00    +0.005 A 
ATOM     26  C   UNL     1      -0.183   3.010   1.440  0.00  0.00    -0.036 A 
ATOM     27  C   UNL     1       0.155   3.433   2.712  0.00  0.00    -0.046 A 
ATOM     28  C   UNL     1       0.233   4.784   2.994  0.00  0.00    +0.007 A 
ATOM     29  C   UNL     1       0.441   2.420   3.791  0.00  0.00    +0.044 C 
ENDBRANCH   1  26
TORSDOF 1
