REMARK  Name = ZINC38980834
REMARK  7 active torsions:
REMARK  status: ('A' for Active; 'I' for Inactive)
REMARK    1  A    between atoms: C_1  and  C_2
REMARK    2  A    between atoms: C_4  and  C_8
REMARK    3  A    between atoms: C_14  and  C_17
REMARK    4  A    between atoms: C_18  and  O_25
REMARK    5  A    between atoms: C_22  and  O_23
REMARK    6  A    between atoms: O_23  and  C_24
REMARK    7  A    between atoms: O_25  and  C_26
REMARK                            x       y       z     vdW  Elec       q    Type
REMARK                         _______ _______ _______ _____ _____    ______ ____
ROOT
ATOM      1  C   UNL     1      -0.969  -2.926  -1.248  0.00  0.00    +0.181 A 
ATOM      2  N   UNL     1      -0.495  -2.753  -2.446  0.00  0.00    -0.129 NA
ATOM      3  N   UNL     1      -1.097  -3.532  -3.275  0.00  0.00    -0.121 NA
ATOM      4  C   UNL     1      -1.994  -4.224  -2.643  0.00  0.00    +0.211 A 
ATOM      5  N   UNL     1      -1.942  -3.908  -1.310  0.00  0.00    -0.222 N 
ATOM      6  N   UNL     1      -2.754  -4.569  -0.437  0.00  0.00    -0.263 N 
ATOM      7  C   UNL     1      -3.950  -5.204  -1.052  0.00  0.00    +0.190 C 
ATOM      8  S   UNL     1      -3.292  -5.436  -2.758  0.00  0.00    -0.056 S 
ATOM      9  H   UNL     1      -2.231  -5.237   0.109  0.00  0.00    +0.168 HD
ENDROOT
BRANCH   1  13
ATOM     10  C   UNL     1      -0.018   1.503   0.010  0.00  0.00    +0.067 C 
ATOM     11  C   UNL     1       0.002  -0.004   0.002  0.00  0.00    +0.059 C 
ATOM     12  C   UNL     1      -1.086  -0.777   0.003  0.00  0.00    +0.034 C 
ATOM     13  C   UNL     1      -0.531  -2.190  -0.007  0.00  0.00    +0.222 C 
ATOM     14  N   UNL     1       0.926  -1.973  -0.013  0.00  0.00    -0.172 NA
ATOM     15  N   UNL     1       1.125  -0.756  -0.013  0.00  0.00    -0.159 NA
ENDBRANCH   1  13
BRANCH   7  16
ATOM     16  C   UNL     1      -5.137  -4.275  -1.044  0.00  0.00    +0.068 A 
ATOM     17  C   UNL     1      -5.269  -3.325  -0.043  0.00  0.00    +0.129 A 
ATOM     18  C   UNL     1      -6.362  -2.471  -0.038  0.00  0.00    +0.046 A 
ATOM     19  C   UNL     1      -7.320  -2.567  -1.030  0.00  0.00    +0.007 A 
ATOM     20  C   UNL     1      -7.191  -3.513  -2.029  0.00  0.00    +0.046 A 
ATOM     21  C   UNL     1      -6.096  -4.366  -2.041  0.00  0.00    +0.129 A 
BRANCH  21  22
ATOM     22  O   UNL     1      -5.967  -5.292  -3.027  0.00  0.00    -0.495 OA
ATOM     23  C   UNL     1      -6.992  -5.329  -4.021  0.00  0.00    +0.277 C 
ENDBRANCH  21  22
BRANCH  17  24
ATOM     24  O   UNL     1      -4.328  -3.231   0.933  0.00  0.00    -0.495 OA
ATOM     25  C   UNL     1      -4.527  -2.229   1.932  0.00  0.00    +0.277 C 
ENDBRANCH  17  24
ENDBRANCH   7  16
TORSDOF 4
