REMARK  Name = ZINC44785386
REMARK  8 active torsions:
REMARK  status: ('A' for Active; 'I' for Inactive)
REMARK    1  A    between atoms: C_1  and  C_2
REMARK    2  A    between atoms: C_2  and  C_3
REMARK    3  A    between atoms: C_2  and  C_4
REMARK    4  A    between atoms: C_2  and  C_8
REMARK    5  A    between atoms: N_5  and  O_6
REMARK    6  A    between atoms: N_13  and  C_16
REMARK    7  A    between atoms: C_16  and  C_17
REMARK    8  A    between atoms: C_17  and  O_18
REMARK                            x       y       z     vdW  Elec       q    Type
REMARK                         _______ _______ _______ _____ _____    ______ ____
ROOT
ATOM      1  C   UNL     1       0.773  -0.390  -1.235  0.00  0.00    +0.229 C 
ATOM      2  O   UNL     1       0.232  -1.032  -2.110  0.00  0.00    -0.275 OA
ATOM      3  N   UNL     1       2.067  -0.034  -1.361  0.00  0.00    -0.298 N 
ATOM      4  C   UNL     1       2.717   0.818  -0.354  0.00  0.00    +0.123 C 
ATOM      5  C   UNL     1       4.020   0.142   0.086  0.00  0.00    +0.103 C 
ATOM      6  N   UNL     1       4.838  -0.155  -1.097  0.00  0.00    -0.297 NA
ATOM      7  C   UNL     1       4.163  -1.111  -1.985  0.00  0.00    +0.103 C 
ATOM      8  C   UNL     1       2.867  -0.492  -2.507  0.00  0.00    +0.123 C 
ENDROOT
BRANCH   1  10
ATOM      9  C   UNL     1       0.638  -0.625   1.230  0.00  0.00    +0.028 C 
ATOM     10  C   UNL     1      -0.002   0.010  -0.006  0.00  0.00    +0.100 C 
ATOM     11  C   UNL     1      -1.448  -0.473  -0.136  0.00  0.00    +0.028 C 
BRANCH  10  12
ATOM     12  C   UNL     1       0.016   1.510   0.133  0.00  0.00    +0.146 C 
ATOM     13  N   UNL     1       0.525   2.055   1.188  0.00  0.00    -0.076 NA
ATOM     14  N   UNL     1      -0.510   2.301  -0.864  0.00  0.00    -0.343 N 
ATOM     15  H   UNL     1      -0.893   1.892  -1.656  0.00  0.00    +0.144 HD
ATOM     16  H   UNL     1      -0.499   3.267  -0.775  0.00  0.00    +0.144 HD
BRANCH  13  17
ATOM     17  O   UNL     1       0.543   3.465   1.319  0.00  0.00    -0.408 OA
ATOM     18  H   UNL     1       0.944   3.779   2.141  0.00  0.00    +0.328 HD
ENDBRANCH  13  17
ENDBRANCH  10  12
ENDBRANCH   1  10
BRANCH   6  19
ATOM     19  C   UNL     1       6.167  -0.645  -0.709  0.00  0.00    +0.112 C 
BRANCH  19  20
ATOM     20  C   UNL     1       7.069  -0.706  -1.944  0.00  0.00    +0.171 C 
BRANCH  20  21
ATOM     21  O   UNL     1       7.284   0.616  -2.442  0.00  0.00    -0.394 OA
ATOM     22  H   UNL     1       7.848   0.653  -3.226  0.00  0.00    +0.209 HD
ENDBRANCH  20  21
ENDBRANCH  19  20
ENDBRANCH   6  19
TORSDOF 6
