REMARK  Name = ZINC02907759
REMARK  12 active torsions:
REMARK  status: ('A' for Active; 'I' for Inactive)
REMARK    1  A    between atoms: C_1  and  C_2
REMARK    2  A    between atoms: C_2  and  C_3
REMARK    3  A    between atoms: C_2  and  C_10
REMARK    4  A    between atoms: C_2  and  O_25
REMARK    5  A    between atoms: C_10  and  C_12
REMARK    6  A    between atoms: C_10  and  C_19
REMARK    7  A    between atoms: C_12  and  N_13
REMARK    8  A    between atoms: N_13  and  C_14
REMARK    9  A    between atoms: C_14  and  C_15
REMARK   10  A    between atoms: C_15  and  C_16
REMARK   11  A    between atoms: C_16  and  C_17
REMARK   12  A    between atoms: C_17  and  O_18
REMARK                            x       y       z     vdW  Elec       q    Type
REMARK                         _______ _______ _______ _____ _____    ______ ____
ROOT
ATOM      1  C   UNL     1      -1.476  -0.257  -0.129  0.00  0.00    +0.038 C 
ENDROOT
BRANCH   1   2
ATOM      2  C   UNL     1      -1.694  -1.708  -0.469  0.00  0.00    -0.043 A 
ATOM      3  C   UNL     1      -1.062  -2.263  -1.566  0.00  0.00    +0.004 A 
ATOM      4  C   UNL     1      -1.262  -3.595  -1.879  0.00  0.00    +0.000 A 
ATOM      5  C   UNL     1      -2.094  -4.372  -1.094  0.00  0.00    +0.000 A 
ATOM      6  C   UNL     1      -2.726  -3.817   0.003  0.00  0.00    +0.000 A 
ATOM      7  C   UNL     1      -2.523  -2.486   0.318  0.00  0.00    +0.004 A 
ENDBRANCH   1   2
BRANCH   1   9
ATOM      8  C   UNL     1       0.184   1.418   0.696  0.00  0.00    +0.047 C 
ATOM      9  C   UNL     1      -0.034  -0.054   0.341  0.00  0.00    +0.093 C 
BRANCH   9  10
ATOM     10  C   UNL     1       0.223  -0.907   1.556  0.00  0.00    -0.016 A 
ATOM     11  C   UNL     1      -0.813  -1.207   2.421  0.00  0.00    +0.007 A 
ATOM     12  C   UNL     1      -0.577  -1.990   3.536  0.00  0.00    +0.015 A 
ATOM     13  C   UNL     1       0.694  -2.474   3.785  0.00  0.00    +0.018 A 
ATOM     14  C   UNL     1       1.730  -2.173   2.919  0.00  0.00    +0.015 A 
ATOM     15  C   UNL     1       1.493  -1.395   1.802  0.00  0.00    +0.007 A 
ATOM     16 BR   UNL     1       1.017  -3.545   5.310  0.00  0.00    -0.050 Br
ENDBRANCH   9  10
BRANCH   9  17
ATOM     17  O   UNL     1       0.864  -0.430  -0.704  0.00  0.00    -0.384 OA
ATOM     18  H   UNL     1       0.866  -1.378  -0.899  0.00  0.00    +0.211 HD
ENDBRANCH   9  17
ENDBRANCH   1   9
BRANCH   1  19
ATOM     19  C   UNL     1      -1.734   0.603  -1.368  0.00  0.00    -0.071 C 
BRANCH  19  20
ATOM     20  N   UNL     1      -3.150   0.501  -1.748  0.00  0.00    +0.380 N 
ATOM     21  H   UNL     1      -3.375  -0.461  -1.953  0.00  0.00    -0.086 HD
ATOM     22  H   UNL     1      -3.727   0.827  -0.987  0.00  0.00    -0.086 HD
BRANCH  20  23
ATOM     23  C   UNL     1      -3.398   1.326  -2.938  0.00  0.00    -0.083 C 
BRANCH  23  24
ATOM     24  C   UNL     1      -4.872   1.220  -3.334  0.00  0.00    -0.017 C 
BRANCH  24  25
ATOM     25  C   UNL     1      -5.130   2.079  -4.574  0.00  0.00    +0.026 C 
BRANCH  25  26
ATOM     26  C   UNL     1      -6.604   1.973  -4.970  0.00  0.00    +0.156 C 
BRANCH  26  27
ATOM     27  O   UNL     1      -6.845   2.776  -6.127  0.00  0.00    -0.395 OA
ATOM     28  H   UNL     1      -7.761   2.756  -6.435  0.00  0.00    +0.209 HD
ENDBRANCH  26  27
ENDBRANCH  25  26
ENDBRANCH  24  25
ENDBRANCH  23  24
ENDBRANCH  20  23
ENDBRANCH  19  20
ENDBRANCH   1  19
TORSDOF 11
