REMARK  Name = ZINC16740781
REMARK  9 active torsions:
REMARK  status: ('A' for Active; 'I' for Inactive)
REMARK    1  A    between atoms: C_1  and  C_2
REMARK    2  A    between atoms: C_2  and  C_4
REMARK    3  A    between atoms: C_15  and  C_37
REMARK    4  A    between atoms: C_22  and  C_23
REMARK    5  A    between atoms: C_26  and  O_34
REMARK    6  A    between atoms: C_27  and  O_29
REMARK    7  A    between atoms: O_29  and  C_30
REMARK    8  A    between atoms: C_30  and  C_31
REMARK    9  A    between atoms: O_34  and  C_35
REMARK                            x       y       z     vdW  Elec       q    Type
REMARK                         _______ _______ _______ _____ _____    ______ ____
ROOT
ATOM      1  C   UNL     1      -3.065  -6.393  -0.241  0.00  0.00    +0.149 C 
ATOM      2  C   UNL     1      -1.719  -6.193   0.476  0.00  0.00    +0.142 C 
ATOM      3  C   UNL     1      -1.940  -6.402   1.958  0.00  0.00    +0.018 A 
ATOM      4  C   UNL     1      -0.866  -6.770   2.748  0.00  0.00    +0.009 A 
ATOM      5  C   UNL     1      -1.036  -6.960   4.107  0.00  0.00    +0.001 A 
ATOM      6  C   UNL     1      -2.284  -6.780   4.677  0.00  0.00    +0.004 A 
ATOM      7  C   UNL     1      -3.357  -6.416   3.891  0.00  0.00    +0.046 A 
ATOM      8  C   UNL     1      -3.192  -6.229   2.521  0.00  0.00    +0.129 A 
ATOM      9  O   UNL     1      -4.257  -5.903   1.779  0.00  0.00    -0.464 OA
ATOM     10  C   UNL     1      -4.105  -5.487   0.428  0.00  0.00    +0.213 C 
ATOM     11  N   UNL     1      -3.667  -4.090   0.352  0.00  0.00    -0.215 NA
ATOM     12  C   UNL     1      -2.405  -3.824   0.285  0.00  0.00    +0.176 A 
ATOM     13  N   UNL     1      -1.369  -4.750   0.312  0.00  0.00    -0.278 N 
ATOM     14  C   UNL     1      -0.119  -4.307   0.201  0.00  0.00    +0.268 A 
ATOM     15  O   UNL     1       0.822  -5.079   0.194  0.00  0.00    -0.266 OA
ATOM     16  C   UNL     1       0.089  -2.853   0.087  0.00  0.00    +0.081 A 
ATOM     17  C   UNL     1       1.248  -2.155  -0.022  0.00  0.00    +0.028 C 
ATOM     18  S   UNL     1      -1.595  -2.254   0.140  0.00  0.00    -0.046 S 
ATOM     19  C   UNL     1      -5.443  -5.636  -0.298  0.00  0.00    +0.084 C 
ENDROOT
BRANCH  17  20
ATOM     20  C   UNL     1       1.231  -0.689   0.051  0.00  0.00    -0.020 A 
ATOM     21  C   UNL     1       0.058  -0.016   0.413  0.00  0.00    +0.012 A 
ATOM     22  C   UNL     1       0.045   1.360   0.479  0.00  0.00    +0.050 A 
ATOM     23  C   UNL     1       1.194   2.083   0.189  0.00  0.00    +0.162 A 
ATOM     24  C   UNL     1       2.367   1.421  -0.172  0.00  0.00    +0.163 A 
ATOM     25  C   UNL     1       2.389   0.042  -0.242  0.00  0.00    +0.057 A 
BRANCH  23  26
ATOM     26  O   UNL     1       1.175   3.440   0.256  0.00  0.00    -0.491 OA
ATOM     27  C   UNL     1      -0.059   4.054   0.632  0.00  0.00    +0.277 C 
ENDBRANCH  23  26
BRANCH  24  28
ATOM     28  O   UNL     1       3.490   2.134  -0.456  0.00  0.00    -0.479 OA
BRANCH  28  29
ATOM     29  C   UNL     1       4.656   1.391  -0.818  0.00  0.00    +0.324 C 
BRANCH  29  30
ATOM     30  C   UNL     1       5.792   2.342  -1.094  0.00  0.00    +0.248 C 
ATOM     31  O   UNL     1       5.620   3.539  -0.991  0.00  0.00    -0.272 OA
ATOM     32  N   UNL     1       6.999   1.864  -1.456  0.00  0.00    -0.327 N 
ATOM     33  H   UNL     1       7.136   0.907  -1.539  0.00  0.00    +0.145 HD
ATOM     34  H   UNL     1       7.730   2.476  -1.634  0.00  0.00    +0.145 HD
ENDBRANCH  29  30
ENDBRANCH  28  29
ENDBRANCH  24  28
ENDBRANCH  17  20
BRANCH   1  36
ATOM     35  C   UNL     1      -3.872  -6.600  -2.715  0.00  0.00    +0.086 C 
ATOM     36  C   UNL     1      -2.926  -6.019  -1.695  0.00  0.00    +0.141 C 
ATOM     37  O   UNL     1      -2.058  -5.255  -2.042  0.00  0.00    -0.297 OA
ENDBRANCH   1  36
TORSDOF 6
