REMARK  Name = ZINC41311487
REMARK  5 active torsions:
REMARK  status: ('A' for Active; 'I' for Inactive)
REMARK    1  A    between atoms: C_6  and  C_7
REMARK    2  A    between atoms: C_7  and  C_9
REMARK    3  A    between atoms: C_7  and  N_23
REMARK    4  A    between atoms: C_9  and  N_10
REMARK    5  A    between atoms: C_11  and  C_13
REMARK                            x       y       z     vdW  Elec       q    Type
REMARK                         _______ _______ _______ _____ _____    ______ ____
ROOT
ATOM      1  C   UNL     1      -1.040  -0.723  -0.029  0.00  0.00    -0.020 C 
ENDROOT
BRANCH   1   7
ATOM      2  C   UNL     1       0.059   1.525  -0.102  0.00  0.00    +0.003 A 
ATOM      3  C   UNL     1       1.182   2.325  -0.194  0.00  0.00    +0.020 A 
ATOM      4  C   UNL     1       2.434   1.748  -0.314  0.00  0.00    +0.041 A 
ATOM      5  C   UNL     1       2.560   0.370  -0.342  0.00  0.00    +0.020 A 
ATOM      6  C   UNL     1       1.436  -0.429  -0.250  0.00  0.00    +0.003 A 
ATOM      7  C   UNL     1       0.186   0.148  -0.130  0.00  0.00    -0.059 A 
ATOM      8 CL   UNL     1       3.845   2.752  -0.430  0.00  0.00    -0.084 Cl
ENDBRANCH   1   7
BRANCH   1   9
ATOM      9  N   UNL     1      -0.747  -1.883   0.824  0.00  0.00    +0.385 N 
ATOM     10  C   UNL     1      -1.955  -2.706   0.960  0.00  0.00    -0.078 C 
ATOM     11  C   UNL     1      -1.635  -3.956   1.781  0.00  0.00    -0.019 C 
ATOM     12  C   UNL     1      -1.142  -3.537   3.169  0.00  0.00    -0.004 C 
ATOM     13  C   UNL     1       0.073  -2.618   3.013  0.00  0.00    -0.019 C 
ATOM     14  C   UNL     1      -0.310  -1.417   2.146  0.00  0.00    -0.078 C 
ATOM     15  H   UNL     1      -0.013  -2.433   0.403  0.00  0.00    -0.081 HD
ENDBRANCH   1   9
BRANCH   1  16
ATOM     16  C   UNL     1      -1.438  -1.206  -1.426  0.00  0.00    +0.094 C 
BRANCH  16  17
ATOM     17  N   UNL     1      -1.806  -0.055  -2.253  0.00  0.00    -0.310 N 
ATOM     18  C   UNL     1      -2.091  -0.227  -3.559  0.00  0.00    +0.279 C 
ATOM     19  O   UNL     1      -2.043  -1.339  -4.051  0.00  0.00    -0.267 OA
ATOM     20  H   UNL     1      -1.845   0.832  -1.862  0.00  0.00    +0.149 HD
BRANCH  18  21
ATOM     21  C   UNL     1      -2.461   0.927  -4.390  0.00  0.00    +0.190 A 
ATOM     22  C   UNL     1      -2.773   0.873  -5.711  0.00  0.00    +0.063 A 
ATOM     23  C   UNL     1      -3.070   2.247  -6.114  0.00  0.00    +0.022 A 
ATOM     24  C   UNL     1      -3.449   2.848  -7.317  0.00  0.00    +0.031 A 
ATOM     25  C   UNL     1      -3.657   4.198  -7.364  0.00  0.00    +0.042 A 
ATOM     26  C   UNL     1      -3.493   4.975  -6.223  0.00  0.00    +0.023 A 
ATOM     27  C   UNL     1      -3.120   4.400  -5.028  0.00  0.00    +0.048 A 
ATOM     28  C   UNL     1      -2.904   3.029  -4.956  0.00  0.00    +0.136 A 
ATOM     29  O   UNL     1      -2.547   2.202  -3.954  0.00  0.00    -0.450 OA
ATOM     30 CL   UNL     1      -4.128   4.947  -8.857  0.00  0.00    -0.084 Cl
ENDBRANCH  18  21
ENDBRANCH  16  17
ENDBRANCH   1  16
TORSDOF 5
