REMARK  Name = ZINC39211737
REMARK  3 active torsions:
REMARK  status: ('A' for Active; 'I' for Inactive)
REMARK    1  A    between atoms: C_1  and  C_2
REMARK    2  A    between atoms: C_2  and  C_25
REMARK    3  A    between atoms: C_6  and  C_16
REMARK                            x       y       z     vdW  Elec       q    Type
REMARK                         _______ _______ _______ _____ _____    ______ ____
ROOT
ATOM      1  C   UNL     1      -0.026   1.435  -0.195  0.00  0.00    +0.011 C 
ATOM      2  C   UNL     1       0.033  -0.092  -0.264  0.00  0.00    -0.023 C 
ATOM      3  C   UNL     1       0.863  -0.524  -1.472  0.00  0.00    +0.058 C 
ATOM      4  C   UNL     1       2.273   0.031  -1.355  0.00  0.00    +0.017 C 
ATOM      5  C   UNL     1       2.847   0.179  -0.149  0.00  0.00    +0.034 C 
ATOM      6  C   UNL     1       4.243   0.694   0.111  0.00  0.00    +0.132 C 
ATOM      7  N   UNL     1       4.885   1.290  -1.041  0.00  0.00    -0.333 N 
ATOM      8  C   UNL     1       5.194   0.528  -2.167  0.00  0.00    +0.049 A 
ATOM      9  C   UNL     1       6.506   0.305  -2.553  0.00  0.00    +0.025 A 
ATOM     10  C   UNL     1       6.766  -0.495  -3.652  0.00  0.00    +0.002 A 
ATOM     11  C   UNL     1       5.727  -1.071  -4.359  0.00  0.00    +0.002 A 
ATOM     12  C   UNL     1       4.414  -0.837  -3.987  0.00  0.00    +0.025 A 
ATOM     13  C   UNL     1       4.153  -0.020  -2.900  0.00  0.00    +0.052 A 
ATOM     14  N   UNL     1       2.860   0.341  -2.538  0.00  0.00    -0.316 N 
ATOM     15  C   UNL     1       2.130  -0.148   1.026  0.00  0.00    +0.163 C 
ATOM     16  O   UNL     1       2.682  -0.022   2.102  0.00  0.00    -0.292 OA
ATOM     17  C   UNL     1       0.716  -0.644   0.993  0.00  0.00    +0.086 C 
ATOM     18  C   UNL     1      -1.383  -0.660  -0.376  0.00  0.00    +0.011 C 
ATOM     19  H   UNL     1       5.104   2.235  -1.030  0.00  0.00    +0.147 HD
ATOM     20  H   UNL     1       2.340   0.852  -3.178  0.00  0.00    +0.152 HD
ENDROOT
BRANCH   6  21
ATOM     21  C   UNL     1       5.107  -0.472   0.596  0.00  0.00    +0.127 C 
ATOM     22  C   UNL     1       5.150  -1.563  -0.451  0.00  0.00    +0.001 C 
ATOM     23  C   UNL     1       6.430  -1.688  -0.797  0.00  0.00    +0.015 C 
ATOM     24  C   UNL     1       7.237  -0.736  -0.033  0.00  0.00    +0.078 C 
ATOM     25  N   UNL     1       6.499  -0.036   0.766  0.00  0.00    -0.382 N 
ATOM     26  H   UNL     1       6.809   0.657   1.370  0.00  0.00    +0.160 HD
ENDBRANCH   6  21
TORSDOF 1
