REMARK  Name = ZINC08346127
REMARK  5 active torsions:
REMARK  status: ('A' for Active; 'I' for Inactive)
REMARK    1  A    between atoms: C_1  and  C_2
REMARK    2  A    between atoms: C_3  and  C_15
REMARK    3  A    between atoms: C_4  and  C_14
REMARK    4  A    between atoms: N_5  and  C_7
REMARK    5  A    between atoms: C_7  and  C_8
REMARK                            x       y       z     vdW  Elec       q    Type
REMARK                         _______ _______ _______ _____ _____    ______ ____
ROOT
ATOM      1  C   UNL     1       1.754   3.237   0.003  0.00  0.00    +0.068 C 
ATOM      2  C   UNL     1       1.308   1.797  -0.001  0.00  0.00    +0.067 A 
ATOM      3  C   UNL     1      -0.016   1.349   0.009  0.00  0.00    +0.034 A 
ATOM      4  C   UNL     1       0.002  -0.004   0.002  0.00  0.00    +0.043 A 
ATOM      5  N   UNL     1       1.293  -0.398  -0.012  0.00  0.00    -0.264 N 
ATOM      6  N   UNL     1       2.094   0.751  -0.014  0.00  0.00    -0.176 NA
ATOM      7  C   UNL     1      -1.203  -0.909   0.009  0.00  0.00    +0.065 C 
ENDROOT
BRANCH   3   8
ATOM      8  C   UNL     1      -1.247   2.219   0.020  0.00  0.00    +0.193 C 
ATOM      9  N   UNL     1      -0.945   3.479   0.711  0.00  0.00    -0.322 N 
ATOM     10  C   UNL     1      -0.863   3.471   2.099  0.00  0.00    +0.041 A 
ATOM     11  C   UNL     1      -0.045   4.348   2.790  0.00  0.00    +0.024 A 
ATOM     12  C   UNL     1       0.003   4.296   4.170  0.00  0.00    +0.002 A 
ATOM     13  C   UNL     1      -0.762   3.374   4.867  0.00  0.00    +0.001 A 
ATOM     14  C   UNL     1      -1.584   2.494   4.194  0.00  0.00    +0.015 A 
ATOM     15  C   UNL     1      -1.643   2.536   2.803  0.00  0.00    +0.058 A 
ATOM     16  C   UNL     1      -2.510   1.625   2.035  0.00  0.00    +0.247 C 
ATOM     17  O   UNL     1      -3.375   0.980   2.595  0.00  0.00    -0.270 OA
ATOM     18  N   UNL     1      -2.331   1.516   0.705  0.00  0.00    -0.289 N 
ATOM     19  H   UNL     1      -0.807   4.298   0.211  0.00  0.00    +0.148 HD
ATOM     20  H   UNL     1      -2.936   0.957   0.192  0.00  0.00    +0.151 HD
ENDBRANCH   3   8
BRANCH   5  21
ATOM     21  C   UNL     1       1.771  -1.782  -0.024  0.00  0.00    +0.178 C 
BRANCH  21  22
ATOM     22  C   UNL     1       1.922  -2.250  -1.449  0.00  0.00    -0.026 A 
ATOM     23  C   UNL     1       0.861  -2.861  -2.091  0.00  0.00    +0.005 A 
ATOM     24  C   UNL     1       0.998  -3.285  -3.400  0.00  0.00    +0.000 A 
ATOM     25  C   UNL     1       2.198  -3.108  -4.062  0.00  0.00    +0.000 A 
ATOM     26  C   UNL     1       3.260  -2.503  -3.418  0.00  0.00    +0.000 A 
ATOM     27  C   UNL     1       3.122  -2.073  -2.111  0.00  0.00    +0.005 A 
ENDBRANCH  21  22
ENDBRANCH   5  21
TORSDOF 3
