REMARK  Name = ZINC32434073
REMARK  5 active torsions:
REMARK  status: ('A' for Active; 'I' for Inactive)
REMARK    1  A    between atoms: C_1  and  C_2
REMARK    2  A    between atoms: C_5  and  S_9
REMARK    3  A    between atoms: S_9  and  N_12
REMARK    4  A    between atoms: N_12  and  C_13
REMARK    5  A    between atoms: N_22  and  C_23
REMARK                            x       y       z     vdW  Elec       q    Type
REMARK                         _______ _______ _______ _____ _____    ______ ____
ROOT
ATOM      1  N   UNL     1      -2.765   0.338   0.989  0.00  0.00    -0.182 NA
ATOM      2  H   UNL     1      -2.065   0.209   1.827  0.00  0.00    +0.149 HD
ENDROOT
BRANCH   1   3
ATOM      3  C   UNL     1      -2.517   1.371  -0.020  0.00  0.00    +0.110 C 
ATOM      4  C   UNL     1      -3.269   2.653   0.356  0.00  0.00    +0.025 C 
ATOM      5  C   UNL     1      -2.809   3.800  -0.547  0.00  0.00    +0.008 C 
ATOM      6  C   UNL     1      -1.372   4.192  -0.185  0.00  0.00    +0.055 C 
ATOM      7  C   UNL     1      -0.533   2.940  -0.145  0.00  0.00    +0.044 A 
ATOM      8  C   UNL     1      -1.042   1.683  -0.081  0.00  0.00    +0.012 A 
ATOM      9  C   UNL     1       0.024   0.787  -0.061  0.00  0.00    +0.139 A 
ATOM     10  N   UNL     1       1.137   1.477  -0.120  0.00  0.00    -0.179 NA
ATOM     11  N   UNL     1       0.807   2.840  -0.173  0.00  0.00    -0.271 N 
ATOM     12  C   UNL     1       1.754   3.955  -0.245  0.00  0.00    +0.172 C 
ENDBRANCH   1   3
BRANCH   1  13
ATOM     13  S   UNL     1      -3.951  -0.791   0.743  0.00  0.00    +0.059 S 
ATOM     14  O   UNL     1      -3.922  -1.661   1.866  0.00  0.00    -0.153 OA
ATOM     15  O   UNL     1      -5.119  -0.077   0.363  0.00  0.00    -0.153 OA
BRANCH  13  20
ATOM     16  C   UNL     1      -2.311  -4.091  -4.035  0.00  0.00    +0.045 C 
ATOM     17  C   UNL     1      -2.720  -3.267  -2.842  0.00  0.00    -0.032 A 
ATOM     18  C   UNL     1      -2.333  -3.649  -1.572  0.00  0.00    +0.007 A 
ATOM     19  C   UNL     1      -2.709  -2.893  -0.477  0.00  0.00    +0.029 A 
ATOM     20  C   UNL     1      -3.472  -1.754  -0.653  0.00  0.00    +0.107 A 
ATOM     21  C   UNL     1      -3.865  -1.374  -1.922  0.00  0.00    +0.048 A 
ATOM     22  C   UNL     1      -3.485  -2.127  -3.018  0.00  0.00    +0.046 A 
ATOM     23 CL   UNL     1      -3.972  -1.647  -4.614  0.00  0.00    -0.083 Cl
ENDBRANCH  13  20
ENDBRANCH   1  13
TORSDOF 3
