REMARK  Name = ZINC21604727
REMARK  9 active torsions:
REMARK  status: ('A' for Active; 'I' for Inactive)
REMARK    1  A    between atoms: C_1  and  C_2
REMARK    2  A    between atoms: C_5  and  O_25
REMARK    3  A    between atoms: C_6  and  C_8
REMARK    4  A    between atoms: C_8  and  O_10
REMARK    5  A    between atoms: O_10  and  C_11
REMARK    6  A    between atoms: C_11  and  C_13
REMARK    7  A    between atoms: C_11  and  C_14
REMARK    8  A    between atoms: N_16  and  C_17
REMARK    9  A    between atoms: C_18  and  C_22
REMARK                            x       y       z     vdW  Elec       q    Type
REMARK                         _______ _______ _______ _____ _____    ______ ____
ROOT
ATOM      1  C   UNL     1       1.199  -2.169  -0.021  0.00  0.00    +0.259 C 
ATOM      2  C   UNL     1       0.496  -2.695   1.232  0.00  0.00    +0.062 C 
ENDROOT
BRANCH   1   3
ATOM      3  C   UNL     1       1.178  -0.662  -0.012  0.00  0.00    +0.258 C 
ATOM      4  O   UNL     1       2.220  -0.041  -0.018  0.00  0.00    -0.271 OA
ATOM      5  N   UNL     1       0.002  -0.004   0.002  0.00  0.00    -0.276 N 
ATOM      6  H   UNL     1      -0.943  -0.567   0.008  0.00  0.00    +0.155 HD
BRANCH   5   7
ATOM      7  C   UNL     1      -0.017   1.382   0.010  0.00  0.00    +0.084 A 
ATOM      8  C   UNL     1      -1.117   2.231   0.019  0.00  0.00    +0.065 A 
ATOM      9  C   UNL     1      -0.845   3.648   0.029  0.00  0.00    +0.022 A 
ATOM     10  C   UNL     1       0.447   4.025   0.019  0.00  0.00    +0.048 A 
ATOM     11  S   UNL     1       1.325   2.476   0.003  0.00  0.00    -0.081 S 
BRANCH   8  12
ATOM     12  C   UNL     1      -2.489   1.712   0.021  0.00  0.00    +0.244 C 
ATOM     13  O   UNL     1      -2.685   0.510   0.015  0.00  0.00    -0.270 OA
ATOM     14  N   UNL     1      -3.532   2.565   0.030  0.00  0.00    -0.325 N 
ATOM     15  H   UNL     1      -4.561   2.175   0.032  0.00  0.00    +0.145 HD
ATOM     16  H   UNL     1      -3.355   3.650   0.035  0.00  0.00    +0.145 HD
ENDBRANCH   8  12
ENDBRANCH   5   7
ENDBRANCH   1   3
BRANCH   1  17
ATOM     17  O   UNL     1       2.574  -2.634  -0.036  0.00  0.00    -0.449 OA
BRANCH  17  18
ATOM     18  C   UNL     1       2.815  -3.812  -0.644  0.00  0.00    +0.343 C 
ATOM     19  O   UNL     1       1.900  -4.433  -1.149  0.00  0.00    -0.245 OA
BRANCH  18  25
ATOM     20  C   UNL     1       7.659  -3.373   0.450  0.00  0.00    +0.044 C 
ATOM     21  C   UNL     1       6.522  -4.141  -0.174  0.00  0.00    -0.049 A 
ATOM     22  C   UNL     1       6.770  -5.352  -0.799  0.00  0.00    +0.007 A 
ATOM     23  C   UNL     1       5.738  -6.065  -1.375  0.00  0.00    +0.046 A 
ATOM     24  C   UNL     1       4.442  -5.572  -1.331  0.00  0.00    +0.131 A 
ATOM     25  C   UNL     1       4.187  -4.347  -0.698  0.00  0.00    +0.101 A 
ATOM     26  C   UNL     1       5.243  -3.633  -0.124  0.00  0.00    +0.022 A 
BRANCH  24  27
ATOM     27  O   UNL     1       3.427  -6.271  -1.897  0.00  0.00    -0.506 OA
ATOM     28  H   UNL     1       2.401  -5.877  -1.860  0.00  0.00    +0.292 HD
ENDBRANCH  24  27
ENDBRANCH  18  25
ENDBRANCH  17  18
ENDBRANCH   1  17
TORSDOF 7
