REMARK  Name = ZINC55276364
REMARK  7 active torsions:
REMARK  status: ('A' for Active; 'I' for Inactive)
REMARK    1  A    between atoms: C_1  and  C_2
REMARK    2  A    between atoms: C_5  and  N_9
REMARK    3  A    between atoms: N_9  and  N_10
REMARK    4  A    between atoms: C_11  and  C_13
REMARK    5  A    between atoms: C_13  and  C_14
REMARK    6  A    between atoms: C_14  and  C_15
REMARK    7  A    between atoms: C_16  and  C_25
REMARK                            x       y       z     vdW  Elec       q    Type
REMARK                         _______ _______ _______ _____ _____    ______ ____
ROOT
ATOM      1  N   UNL     1       0.074  -4.876   1.187  0.00  0.00    -0.236 N 
ATOM      2  C   UNL     1       0.092  -6.224   1.179  0.00  0.00    +0.229 C 
ATOM      3  O   UNL     1       0.095  -6.824   0.124  0.00  0.00    -0.274 OA
ATOM      4  H   UNL     1       0.072  -4.396   2.030  0.00  0.00    +0.173 HD
ENDROOT
BRANCH   1   5
ATOM      5  N   UNL     1       0.059  -4.168  -0.022  0.00  0.00    -0.264 N 
ATOM      6  H   UNL     1       0.060  -4.648  -0.865  0.00  0.00    +0.170 HD
BRANCH   5  11
ATOM      7  C   UNL     1      -0.018   1.503   0.010  0.00  0.00    +0.045 C 
ATOM      8  C   UNL     1       0.002  -0.004   0.002  0.00  0.00    -0.032 A 
ATOM      9  C   UNL     1       0.006  -0.688  -1.200  0.00  0.00    +0.006 A 
ATOM     10  C   UNL     1       0.025  -2.068  -1.212  0.00  0.00    +0.025 A 
ATOM     11  C   UNL     1       0.040  -2.772  -0.013  0.00  0.00    +0.046 A 
ATOM     12  C   UNL     1       0.037  -2.083   1.193  0.00  0.00    +0.044 A 
ATOM     13  C   UNL     1       0.023  -0.701   1.197  0.00  0.00    +0.046 A 
ATOM     14 CL   UNL     1       0.025   0.161   2.704  0.00  0.00    -0.083 Cl
ENDBRANCH   5  11
ENDBRANCH   1   5
BRANCH   2  15
ATOM     15  C   UNL     1       0.109  -6.985   2.479  0.00  0.00    +0.102 C 
BRANCH  15  16
ATOM     16  C   UNL     1       0.127  -8.487   2.190  0.00  0.00    +0.051 C 
BRANCH  16  17
ATOM     17  C   UNL     1       0.144  -9.249   3.490  0.00  0.00    +0.036 A 
ATOM     18  C   UNL     1      -1.006  -9.702   4.033  0.00  0.00    +0.026 A 
ATOM     19  N   UNL     1      -0.973 -10.392   5.214  0.00  0.00    -0.311 N 
ATOM     20  H   UNL     1      -1.799 -10.717   5.604  0.00  0.00    +0.170 HD
ATOM     21  C   UNL     1       0.196 -10.623   5.840  0.00  0.00    +0.327 A 
ATOM     22  O   UNL     1       0.202 -11.238   6.889  0.00  0.00    -0.247 OA
ATOM     23  N   UNL     1       1.357 -10.182   5.322  0.00  0.00    -0.275 N 
ATOM     24  H   UNL     1       2.191 -10.358   5.786  0.00  0.00    +0.173 HD
ATOM     25  C   UNL     1       1.367  -9.503   4.157  0.00  0.00    +0.257 A 
ATOM     26  O   UNL     1       2.418  -9.109   3.684  0.00  0.00    -0.267 OA
ATOM     27  C   UNL     1      -2.321  -9.450   3.341  0.00  0.00    +0.064 C 
ENDBRANCH  16  17
ENDBRANCH  15  16
ENDBRANCH   2  15
TORSDOF 5
