REMARK  Name = ZINC49554591
REMARK  12 active torsions:
REMARK  status: ('A' for Active; 'I' for Inactive)
REMARK    1  A    between atoms: C_1  and  C_2
REMARK    2  A    between atoms: C_2  and  C_3
REMARK    3  A    between atoms: C_2  and  C_4
REMARK    4  A    between atoms: C_4  and  C_5
REMARK    5  A    between atoms: C_5  and  C_7
REMARK    6  A    between atoms: C_5  and  N_11
REMARK    7  A    between atoms: C_7  and  N_8
REMARK    8  A    between atoms: N_8  and  C_9
REMARK    9  A    between atoms: N_8  and  C_10
REMARK   10  A    between atoms: N_11  and  S_12
REMARK   11  A    between atoms: S_12  and  C_15
REMARK   12  A    between atoms: C_20  and  N_21
REMARK                            x       y       z     vdW  Elec       q    Type
REMARK                         _______ _______ _______ _____ _____    ______ ____
ROOT
ATOM      1  S   UNL     1       0.102  -0.928  -3.189  0.00  0.00    +0.060 S 
ATOM      2  O   UNL     1       1.026  -0.000  -2.637  0.00  0.00    -0.153 OA
ATOM      3  O   UNL     1       0.503  -2.194  -3.694  0.00  0.00    -0.153 OA
ENDROOT
BRANCH   1   4
ATOM      4  C   UNL     1      -0.720  -0.098  -4.508  0.00  0.00    +0.126 A 
ATOM      5  C   UNL     1      -0.398   1.212  -4.807  0.00  0.00    +0.031 A 
ATOM      6  C   UNL     1      -1.041   1.864  -5.842  0.00  0.00    +0.017 A 
ATOM      7  C   UNL     1      -2.011   1.209  -6.581  0.00  0.00    +0.020 A 
ATOM      8  C   UNL     1      -2.338  -0.100  -6.286  0.00  0.00    +0.040 A 
ATOM      9  C   UNL     1      -1.689  -0.760  -5.250  0.00  0.00    +0.052 A 
ATOM     10 BR   UNL     1      -2.889   2.107  -7.995  0.00  0.00    -0.050 Br
BRANCH   9  11
ATOM     11  N   UNL     1      -2.013  -2.086  -4.953  0.00  0.00    -0.356 N 
ATOM     12  H   UNL     1      -1.621  -2.519  -4.179  0.00  0.00    +0.142 HD
ATOM     13  H   UNL     1      -2.631  -2.573  -5.520  0.00  0.00    +0.142 HD
ENDBRANCH   9  11
ENDBRANCH   1   4
BRANCH   1  14
ATOM     14  N   UNL     1      -1.030  -1.224  -2.016  0.00  0.00    -0.189 NA
ATOM     15  H   UNL     1      -1.296  -2.135  -1.817  0.00  0.00    +0.148 HD
BRANCH  14  16
ATOM     16  C   UNL     1      -1.628  -0.108  -1.278  0.00  0.00    +0.060 C 
BRANCH  16  17
ATOM     17  C   UNL     1      -1.167  -0.156   0.180  0.00  0.00    +0.021 C 
BRANCH  17  19
ATOM     18  C   UNL     1       0.622   1.540  -0.226  0.00  0.00    +0.007 C 
ATOM     19  C   UNL     1       0.337   0.113   0.248  0.00  0.00    -0.016 C 
ATOM     20  C   UNL     1       0.820  -0.051   1.691  0.00  0.00    +0.007 C 
ENDBRANCH  17  19
ENDBRANCH  16  17
BRANCH  16  21
ATOM     21  C   UNL     1      -3.153  -0.219  -1.335  0.00  0.00    -0.059 C 
BRANCH  21  22
ATOM     22  N   UNL     1      -3.597  -0.158  -2.734  0.00  0.00    +0.377 N 
ATOM     23  C   UNL     1      -5.037  -0.438  -2.804  0.00  0.00    -0.097 C 
ATOM     24  C   UNL     1      -3.332   1.182  -3.274  0.00  0.00    -0.097 C 
ATOM     25  H   UNL     1      -3.094  -0.845  -3.276  0.00  0.00    -0.083 HD
ENDBRANCH  21  22
ENDBRANCH  16  21
ENDBRANCH  14  16
ENDBRANCH   1  14
TORSDOF 8
