REMARK  Name = ZINC63376290
REMARK  5 active torsions:
REMARK  status: ('A' for Active; 'I' for Inactive)
REMARK    1  A    between atoms: C_7  and  C_10
REMARK    2  A    between atoms: C_10  and  C_11
REMARK    3  A    between atoms: C_11  and  C_13
REMARK    4  A    between atoms: C_11  and  N_16
REMARK    5  A    between atoms: C_17  and  O_28
REMARK                            x       y       z     vdW  Elec       q    Type
REMARK                         _______ _______ _______ _____ _____    ______ ____
ROOT
ATOM      1  C   UNL     1       0.457  -3.653  -1.462  0.00  0.00    +0.197 C 
ENDROOT
BRANCH   1   2
ATOM      2  N   UNL     1      -0.238  -2.603  -2.210  0.00  0.00    -0.242 N 
ATOM      3  C   UNL     1       0.394  -2.030  -3.399  0.00  0.00    +0.300 C 
ATOM      4  N   UNL     1      -0.625  -1.650  -4.384  0.00  0.00    -0.303 N 
ATOM      5  C   UNL     1      -1.774  -1.002  -3.944  0.00  0.00    +0.042 A 
ATOM      6  C   UNL     1      -2.469  -0.121  -4.755  0.00  0.00    +0.024 A 
ATOM      7  C   UNL     1      -3.612   0.492  -4.277  0.00  0.00    +0.002 A 
ATOM      8  C   UNL     1      -4.067   0.231  -2.994  0.00  0.00    +0.001 A 
ATOM      9  C   UNL     1      -3.384  -0.641  -2.172  0.00  0.00    +0.015 A 
ATOM     10  C   UNL     1      -2.227  -1.262  -2.639  0.00  0.00    +0.058 A 
ATOM     11  C   UNL     1      -1.451  -2.185  -1.794  0.00  0.00    +0.252 C 
ATOM     12  O   UNL     1      -1.898  -2.564  -0.729  0.00  0.00    -0.270 OA
ATOM     13  H   UNL     1      -0.500  -1.848  -5.326  0.00  0.00    +0.150 HD
BRANCH   3  14
ATOM     14  O   UNL     1       1.141  -0.870  -3.025  0.00  0.00    -0.359 OA
ATOM     15  H   UNL     1       1.588  -0.436  -3.764  0.00  0.00    +0.213 HD
ENDBRANCH   3  14
ENDBRANCH   1   2
BRANCH   1  16
ATOM     16  C   UNL     1      -0.385  -4.904  -1.452  0.00  0.00    +0.376 C 
ATOM     17  O   UNL     1      -1.535  -4.868  -1.856  0.00  0.00    -0.244 OA
ATOM     18  O   UNL     1       0.085  -5.951  -1.042  0.00  0.00    -0.244 OA
ENDBRANCH   1  16
BRANCH   1  19
ATOM     19  C   UNL     1       0.691  -3.186  -0.024  0.00  0.00    +0.067 C 
BRANCH  19  26
ATOM     20  C   UNL     1      -0.016   1.348   0.009  0.00  0.00    +0.001 A 
ATOM     21  C   UNL     1       1.166   2.101   0.002  0.00  0.00    +0.002 A 
ATOM     22  C   UNL     1       2.391   1.535  -0.013  0.00  0.00    +0.026 A 
ATOM     23  C   UNL     1       2.529   0.120  -0.022  0.00  0.00    +0.043 A 
ATOM     24  N   UNL     1       3.587  -0.654  -0.037  0.00  0.00    -0.380 N 
ATOM     25  C   UNL     1       3.143  -2.053  -0.041  0.00  0.00    +0.144 C 
ATOM     26  C   UNL     1       1.631  -2.008  -0.025  0.00  0.00    -0.039 C 
ATOM     27  C   UNL     1       1.295  -0.698  -0.014  0.00  0.00    -0.001 A 
ATOM     28  C   UNL     1       0.002  -0.004   0.002  0.00  0.00    +0.010 A 
ATOM     29  H   UNL     1       4.509  -0.353  -0.045  0.00  0.00    +0.160 HD
ENDBRANCH  19  26
ENDBRANCH   1  19
TORSDOF 5
