REMARK  Name = ZINC19812047
REMARK  9 active torsions:
REMARK  status: ('A' for Active; 'I' for Inactive)
REMARK    1  A    between atoms: C_1  and  C_2
REMARK    2  A    between atoms: C_3  and  C_9
REMARK    3  A    between atoms: C_4  and  O_8
REMARK    4  A    between atoms: C_9  and  C_10
REMARK    5  A    between atoms: C_9  and  C_26
REMARK    6  A    between atoms: N_12  and  C_19
REMARK    7  A    between atoms: C_19  and  C_20
REMARK    8  A    between atoms: C_27  and  C_33
REMARK    9  A    between atoms: C_31  and  O_32
REMARK                            x       y       z     vdW  Elec       q    Type
REMARK                         _______ _______ _______ _____ _____    ______ ____
ROOT
ATOM      1  C   UNL     1      -0.010  -0.350  -2.548  0.00  0.00    +0.095 C 
ENDROOT
BRANCH   1   2
ATOM      2  C   UNL     1      -1.059  -1.030  -3.391  0.00  0.00    -0.010 A 
ATOM      3  C   UNL     1      -1.230  -2.353  -3.538  0.00  0.00    +0.091 A 
ATOM      4  N   UNL     1      -2.281  -2.597  -4.379  0.00  0.00    -0.342 N 
ATOM      5  C   UNL     1      -2.826  -1.406  -4.805  0.00  0.00    +0.050 A 
ATOM      6  C   UNL     1      -2.088  -0.372  -4.200  0.00  0.00    +0.004 A 
ATOM      7  C   UNL     1      -2.422   0.960  -4.448  0.00  0.00    +0.010 A 
ATOM      8  C   UNL     1      -3.469   1.253  -5.276  0.00  0.00    +0.001 A 
ATOM      9  C   UNL     1      -4.203   0.237  -5.873  0.00  0.00    +0.002 A 
ATOM     10  C   UNL     1      -3.884  -1.084  -5.649  0.00  0.00    +0.026 A 
BRANCH   4  11
ATOM     11  C   UNL     1      -2.757  -3.927  -4.768  0.00  0.00    +0.157 C 
BRANCH  11  12
ATOM     12  C   UNL     1      -2.124  -4.323  -6.077  0.00  0.00    -0.028 A 
ATOM     13  C   UNL     1      -2.744  -4.000  -7.270  0.00  0.00    +0.005 A 
ATOM     14  C   UNL     1      -2.163  -4.364  -8.471  0.00  0.00    +0.000 A 
ATOM     15  C   UNL     1      -0.963  -5.050  -8.479  0.00  0.00    +0.000 A 
ATOM     16  C   UNL     1      -0.343  -5.372  -7.286  0.00  0.00    +0.000 A 
ATOM     17  C   UNL     1      -0.921  -5.005  -6.085  0.00  0.00    +0.005 A 
ENDBRANCH  11  12
ENDBRANCH   4  11
ENDBRANCH   1   2
BRANCH   1  20
ATOM     18  C   UNL     1      -0.886   1.637  -0.241  0.00  0.00    +0.068 C 
ATOM     19  C   UNL     1      -0.605   0.166  -0.081  0.00  0.00    +0.068 A 
ATOM     20  C   UNL     1      -0.218  -0.710  -1.100  0.00  0.00    +0.048 A 
ATOM     21  C   UNL     1      -0.064  -1.945  -0.552  0.00  0.00    +0.213 A 
ATOM     22  N   UNL     1      -0.345  -1.845   0.766  0.00  0.00    -0.247 N 
ATOM     23  H   UNL     1      -0.318  -2.568   1.412  0.00  0.00    +0.192 HD
ATOM     24  N   UNL     1      -0.675  -0.511   1.037  0.00  0.00    -0.176 NA
BRANCH  21  25
ATOM     25  O   UNL     1       0.304  -3.074  -1.210  0.00  0.00    -0.492 OA
ATOM     26  H   UNL     1       1.252  -3.262  -1.168  0.00  0.00    +0.294 HD
ENDBRANCH  21  25
ENDBRANCH   1  20
BRANCH   1  27
ATOM     27  C   UNL     1       1.358  -0.803  -2.987  0.00  0.00    +0.048 A 
ATOM     28  C   UNL     1       2.482  -0.784  -2.235  0.00  0.00    +0.041 A 
ATOM     29  N   UNL     1       3.492  -1.270  -2.988  0.00  0.00    -0.278 N 
ATOM     30  N   UNL     1       2.973  -1.600  -4.247  0.00  0.00    -0.136 NA
ATOM     31  H   UNL     1       4.414  -1.373  -2.707  0.00  0.00    +0.189 HD
ATOM     32  C   UNL     1       1.691  -1.325  -4.246  0.00  0.00    +0.236 A 
ATOM     33  C   UNL     1       2.589  -0.305  -0.810  0.00  0.00    +0.065 C 
BRANCH  32  34
ATOM     34  O   UNL     1       0.834  -1.512  -5.285  0.00  0.00    -0.491 OA
ATOM     35  H   UNL     1       0.820  -0.782  -5.919  0.00  0.00    +0.294 HD
ENDBRANCH  32  34
ENDBRANCH   1  27
TORSDOF 7
