REMARK  Name = ZINC04074051
REMARK  7 active torsions:
REMARK  status: ('A' for Active; 'I' for Inactive)
REMARK    1  A    between atoms: C_1  and  C_2
REMARK    2  A    between atoms: C_2  and  C_3
REMARK    3  A    between atoms: C_3  and  C_5
REMARK    4  A    between atoms: C_3  and  N_6
REMARK    5  A    between atoms: C_7  and  C_9
REMARK    6  A    between atoms: C_11  and  C_24
REMARK    7  A    between atoms: C_11  and  C_25
REMARK                            x       y       z     vdW  Elec       q    Type
REMARK                         _______ _______ _______ _____ _____    ______ ____
ROOT
ATOM      1  C   UNL     1      -4.140   0.357  -2.544  0.00  0.00    +0.179 C 
ATOM      2  C   UNL     1      -3.981   1.883  -2.740  0.00  0.00    +0.040 C 
ATOM      3  S   UNL     1      -5.728   2.402  -3.036  0.00  0.00    -0.125 S 
ATOM      4  C   UNL     1      -6.400   0.722  -3.390  0.00  0.00    +0.167 C 
ATOM      5  N   UNL     1      -5.535  -0.079  -2.477  0.00  0.00    -0.269 N 
ATOM      6  C   UNL     1      -6.361  -0.953  -1.863  0.00  0.00    +0.249 C 
ATOM      7  O   UNL     1      -6.017  -2.001  -1.350  0.00  0.00    -0.270 OA
ATOM      8  C   UNL     1      -7.745  -0.444  -1.907  0.00  0.00    +0.043 A 
ATOM      9  C   UNL     1      -7.799   0.600  -2.858  0.00  0.00    -0.005 A 
ATOM     10  C   UNL     1      -8.974   1.268  -3.109  0.00  0.00    +0.007 A 
ATOM     11  C   UNL     1     -10.136   0.900  -2.450  0.00  0.00    +0.000 A 
ATOM     12  C   UNL     1     -10.119  -0.142  -1.540  0.00  0.00    +0.001 A 
ATOM     13  C   UNL     1      -8.914  -0.822  -1.246  0.00  0.00    +0.013 A 
ATOM     14  C   UNL     1      -3.419   2.543  -1.480  0.00  0.00    +0.025 C 
ATOM     15  C   UNL     1      -3.104   2.191  -3.956  0.00  0.00    +0.025 C 
ENDROOT
BRANCH   1  17
ATOM     16  N   UNL     1      -2.105  -0.148  -1.230  0.00  0.00    -0.311 N 
ATOM     17  C   UNL     1      -3.448  -0.040  -1.265  0.00  0.00    +0.235 C 
ATOM     18  O   UNL     1      -4.100  -0.261  -0.267  0.00  0.00    -0.274 OA
ATOM     19  H   UNL     1      -1.584   0.029  -2.029  0.00  0.00    +0.149 HD
BRANCH  16  20
ATOM     20  C   UNL     1      -1.433  -0.534   0.013  0.00  0.00    +0.070 C 
ATOM     21  C   UNL     1      -1.413  -2.059   0.130  0.00  0.00    +0.028 C 
BRANCH  20  23
ATOM     22  C   UNL     1      -0.019   1.526   0.010  0.00  0.00    +0.005 C 
ATOM     23  C   UNL     1       0.002  -0.004   0.002  0.00  0.00    +0.018 C 
ENDBRANCH  20  23
ENDBRANCH  16  20
ENDBRANCH   1  17
TORSDOF 3
