REMARK  Name = ZINC12604710
REMARK  4 active torsions:
REMARK  status: ('A' for Active; 'I' for Inactive)
REMARK    1  A    between atoms: C_8  and  N_16
REMARK    2  A    between atoms: C_9  and  N_11
REMARK    3  A    between atoms: N_16  and  S_17
REMARK    4  A    between atoms: S_17  and  C_20
REMARK                            x       y       z     vdW  Elec       q    Type
REMARK                         _______ _______ _______ _____ _____    ______ ____
ROOT
ATOM      1  C   UNL     1       1.000   5.824  -1.415  0.00  0.00    +0.002 A 
ATOM      2  C   UNL     1       2.264   5.467  -1.877  0.00  0.00    +0.002 A 
ATOM      3  C   UNL     1       2.780   4.233  -1.619  0.00  0.00    +0.030 A 
ATOM      4  C   UNL     1       2.030   3.305  -0.879  0.00  0.00    +0.091 A 
ATOM      5  C   UNL     1       0.745   3.668  -0.410  0.00  0.00    +0.091 A 
ATOM      6  C   UNL     1       0.245   4.949  -0.694  0.00  0.00    +0.030 A 
ATOM      7  N   UNL     1       0.018   2.786   0.293  0.00  0.00    -0.226 NA
ATOM      8  C   UNL     1       0.510   1.592   0.552  0.00  0.00    +0.179 A 
ATOM      9  C   UNL     1       1.796   1.230   0.083  0.00  0.00    +0.164 A 
ATOM     10  N   UNL     1       2.517   2.084  -0.613  0.00  0.00    -0.227 NA
ENDROOT
BRANCH   9  11
ATOM     11  N   UNL     1       2.298  -0.033   0.359  0.00  0.00    -0.312 N 
ATOM     12  C   UNL     1       2.103  -0.947  -0.796  0.00  0.00    +0.106 C 
ATOM     13  C   UNL     1       3.142  -2.068  -0.540  0.00  0.00    +0.020 C 
ATOM     14  C   UNL     1       4.348  -1.295   0.041  0.00  0.00    +0.020 C 
ATOM     15  C   UNL     1       3.758   0.017   0.591  0.00  0.00    +0.106 C 
ENDBRANCH   9  11
BRANCH   8  16
ATOM     16  N   UNL     1      -0.239   0.683   1.283  0.00  0.00    -0.197 N 
ATOM     17  H   UNL     1       0.190  -0.092   1.680  0.00  0.00    +0.175 HD
BRANCH  16  18
ATOM     18  S   UNL     1      -1.866   0.918   1.480  0.00  0.00    +0.076 S 
ATOM     19  O   UNL     1      -2.342  -0.167   2.265  0.00  0.00    -0.150 OA
ATOM     20  O   UNL     1      -2.036   2.274   1.873  0.00  0.00    -0.150 OA
BRANCH  18  21
ATOM     21  C   UNL     1      -2.612   0.757  -0.108  0.00  0.00    +0.145 A 
ATOM     22  C   UNL     1      -2.966   1.886  -0.824  0.00  0.00    +0.069 A 
ATOM     23  C   UNL     1      -3.548   1.758  -2.073  0.00  0.00    +0.022 A 
ATOM     24  C   UNL     1      -3.784   0.503  -2.601  0.00  0.00    +0.003 A 
ATOM     25  C   UNL     1      -3.435  -0.626  -1.883  0.00  0.00    +0.022 A 
ATOM     26  C   UNL     1      -2.849  -0.500  -0.636  0.00  0.00    +0.069 A 
ATOM     27 CL   UNL     1      -2.411  -1.917   0.265  0.00  0.00    -0.081 Cl
ATOM     28 CL   UNL     1      -2.676   3.463  -0.158  0.00  0.00    -0.081 Cl
ENDBRANCH  18  21
ENDBRANCH  16  18
ENDBRANCH   8  16
TORSDOF 4
