REMARK  Name = ZINC39672904
REMARK  8 active torsions:
REMARK  status: ('A' for Active; 'I' for Inactive)
REMARK    1  A    between atoms: C_1  and  C_2
REMARK    2  A    between atoms: C_2  and  C_3
REMARK    3  A    between atoms: C_3  and  C_5
REMARK    4  A    between atoms: C_3  and  C_11
REMARK    5  A    between atoms: C_15  and  C_24
REMARK    6  A    between atoms: N_26  and  C_27
REMARK    7  A    between atoms: C_27  and  C_28
REMARK    8  A    between atoms: C_28  and  N_34
REMARK                            x       y       z     vdW  Elec       q    Type
REMARK                         _______ _______ _______ _____ _____    ______ ____
ROOT
ATOM      1  C   UNL     1       0.557  -2.197   0.885  0.00  0.00    +0.223 C 
ATOM      2  O   UNL     1       0.045  -2.932   1.702  0.00  0.00    -0.275 OA
ATOM      3  N   UNL     1       1.279  -2.716  -0.128  0.00  0.00    -0.300 N 
ATOM      4  C   UNL     1       1.980  -1.985  -1.211  0.00  0.00    +0.121 C 
ATOM      5  C   UNL     1       3.306  -2.755  -1.406  0.00  0.00    +0.100 C 
ATOM      6  C   UNL     1       3.018  -4.172  -0.881  0.00  0.00    -0.004 C 
ATOM      7  C   UNL     1       1.557  -4.145  -0.408  0.00  0.00    +0.115 C 
ATOM      8  C   UNL     1       3.193  -5.195  -1.999  0.00  0.00    -0.010 C 
ATOM      9  C   UNL     1       2.958  -6.601  -1.440  0.00  0.00    -0.082 C 
ATOM     10  N   UNL     1       3.911  -6.864  -0.355  0.00  0.00    +0.379 N 
ATOM     11  C   UNL     1       3.675  -5.934   0.756  0.00  0.00    -0.082 C 
ATOM     12  C   UNL     1       3.940  -4.500   0.289  0.00  0.00    -0.010 C 
ATOM     13  H   UNL     1       3.795  -7.812  -0.029  0.00  0.00    -0.086 HD
ATOM     14  H   UNL     1       4.852  -6.742  -0.699  0.00  0.00    -0.086 HD
ENDROOT
BRANCH   5  15
ATOM     15  C   UNL     1       3.677  -2.799  -2.866  0.00  0.00    +0.218 C 
ATOM     16  O   UNL     1       2.809  -2.809  -3.712  0.00  0.00    -0.275 OA
ATOM     17  N   UNL     1       4.974  -2.827  -3.231  0.00  0.00    -0.313 N 
ATOM     18  H   UNL     1       5.669  -2.820  -2.553  0.00  0.00    +0.149 HD
BRANCH  17  19
ATOM     19  C   UNL     1       5.335  -2.870  -4.650  0.00  0.00    +0.126 C 
BRANCH  19  20
ATOM     20  C   UNL     1       6.852  -3.020  -4.786  0.00  0.00    +0.038 C 
ATOM     21  C   UNL     1       7.242  -2.933  -6.263  0.00  0.00    +0.024 C 
ATOM     22  C   UNL     1       6.547  -4.052  -7.041  0.00  0.00    +0.002 C 
ATOM     23  C   UNL     1       6.977  -5.408  -6.479  0.00  0.00    +0.000 C 
ATOM     24  C   UNL     1       6.587  -5.495  -5.003  0.00  0.00    +0.002 C 
ATOM     25  C   UNL     1       7.282  -4.377  -4.224  0.00  0.00    +0.024 C 
BRANCH  20  26
ATOM     26  N   UNL     1       7.520  -1.946  -4.038  0.00  0.00    -0.291 NA
ATOM     27  C   UNL     1       7.086  -0.625  -4.514  0.00  0.00    +0.113 C 
ATOM     28  C   UNL     1       7.759   0.461  -3.671  0.00  0.00    +0.175 C 
ATOM     29  O   UNL     1       9.178   0.300  -3.740  0.00  0.00    -0.377 OA
ATOM     30  C   UNL     1       9.635  -0.976  -3.283  0.00  0.00    +0.175 C 
ATOM     31  C   UNL     1       8.982  -2.076  -4.122  0.00  0.00    +0.113 C 
ENDBRANCH  20  26
ENDBRANCH  19  20
ENDBRANCH  17  19
ENDBRANCH   5  15
BRANCH   1  32
ATOM     32  C   UNL     1       0.386  -0.704   1.001  0.00  0.00    +0.105 C 
BRANCH  32  33
ATOM     33  C   UNL     1      -0.457  -0.388   2.210  0.00  0.00    -0.036 A 
ATOM     34  C   UNL     1      -1.743  -0.885   2.304  0.00  0.00    +0.004 A 
ATOM     35  C   UNL     1      -2.517  -0.595   3.412  0.00  0.00    +0.000 A 
ATOM     36  C   UNL     1      -2.003   0.191   4.427  0.00  0.00    +0.000 A 
ATOM     37  C   UNL     1      -0.716   0.687   4.333  0.00  0.00    +0.000 A 
ATOM     38  C   UNL     1       0.059   0.394   3.227  0.00  0.00    +0.004 A 
ENDBRANCH  32  33
BRANCH  32  40
ATOM     39  C   UNL     1      -0.365   1.357  -0.193  0.00  0.00    +0.005 C 
ATOM     40  C   UNL     1      -0.303  -0.170  -0.256  0.00  0.00    +0.014 C 
ENDBRANCH  32  40
ENDBRANCH   1  32
TORSDOF 7
