REMARK  Name = ZINC17029105
REMARK  11 active torsions:
REMARK  status: ('A' for Active; 'I' for Inactive)
REMARK    1  A    between atoms: C_1  and  C_2
REMARK    2  A    between atoms: C_2  and  C_3
REMARK    3  A    between atoms: C_2  and  C_4
REMARK    4  A    between atoms: C_4  and  C_5
REMARK    5  A    between atoms: C_5  and  C_7
REMARK    6  A    between atoms: C_5  and  N_21
REMARK    7  A    between atoms: N_9  and  CA_10
REMARK    8  A    between atoms: CA_10  and  CB_12
REMARK    9  A    between atoms: CA_10  and  C_19
REMARK   10  A    between atoms: CB_12  and  CG_13
REMARK   11  A    between atoms: C_31  and  O_32
REMARK                            x       y       z     vdW  Elec       q    Type
REMARK                         _______ _______ _______ _____ _____    ______ ____
ROOT
ATOM      1  C   UNK A   0      -0.729   1.579   1.267  0.00  0.00    +0.181 C 
ENDROOT
BRANCH   1   2
ATOM      2  N   UNK A   0      -0.645   3.040   1.336  0.00  0.00    -0.250 N 
ATOM      3  C   UNK A   0      -1.779   3.778   1.346  0.00  0.00    +0.265 A 
ATOM      4  O   UNK A   0      -2.876   3.251   1.299  0.00  0.00    -0.267 OA
ATOM      5  C   UNK A   0      -1.639   5.239   1.416  0.00  0.00    +0.065 A 
ATOM      6  C   UNK A   0      -2.745   6.086   1.433  0.00  0.00    +0.015 A 
ATOM      7  C   UNK A   0      -2.556   7.439   1.499  0.00  0.00    +0.001 A 
ATOM      8  C   UNK A   0      -1.275   7.975   1.550  0.00  0.00    +0.002 A 
ATOM      9  C   UNK A   0      -0.174   7.167   1.535  0.00  0.00    +0.029 A 
ATOM     10  C   UNK A   0      -0.334   5.780   1.468  0.00  0.00    +0.081 A 
ATOM     11  N   UNK A   0       0.729   4.941   1.451  0.00  0.00    -0.196 NA
ATOM     12  C   UNK A   0       0.575   3.644   1.394  0.00  0.00    +0.300 A 
BRANCH  12  13
ATOM     13  O   UNK A   0       1.679   2.867   1.386  0.00  0.00    -0.479 OA
ATOM     14  H   UNK A   0       2.509   3.361   1.430  0.00  0.00    +0.295 HD
ENDBRANCH  12  13
ENDBRANCH   1   2
BRANCH   1  15
ATOM     15  C   UNK A   0      -0.074   0.981   2.485  0.00  0.00    +0.237 C 
ATOM     16  O   UNK A   0       0.415   1.703   3.327  0.00  0.00    -0.274 OA
ATOM     17  N   PHE A   1      -0.031  -0.358   2.638  0.00  0.00    -0.300 N 
ATOM     18  H   PHE A   1      -0.422  -0.936   1.964  0.00  0.00    +0.150 HD
BRANCH  17  19
ATOM     19  CA  PHE A   1       0.606  -0.940   3.822  0.00  0.00    +0.191 C 
BRANCH  19  20
ATOM     20  C   PHE A   1       2.088  -1.065   3.584  0.00  0.00    +0.376 C 
ATOM     21  O   PHE A   1       2.564  -0.705   2.534  0.00  0.00    -0.244 OA
ATOM     22  OXT PHE A   1       2.880  -1.577   4.540  0.00  0.00    -0.244 OA
ENDBRANCH  19  20
BRANCH  19  23
ATOM     23  CB  PHE A   1       0.013  -2.325   4.090  0.00  0.00    +0.069 C 
BRANCH  23  24
ATOM     24  CG  PHE A   1      -1.444  -2.187   4.449  0.00  0.00    -0.045 A 
ATOM     25  CD2 PHE A   1      -1.819  -2.031   5.770  0.00  0.00    +0.004 A 
ATOM     26  CE2 PHE A   1      -3.156  -1.900   6.098  0.00  0.00    +0.000 A 
ATOM     27  CZ  PHE A   1      -4.118  -1.936   5.106  0.00  0.00    +0.000 A 
ATOM     28  CE1 PHE A   1      -3.743  -2.097   3.785  0.00  0.00    +0.000 A 
ATOM     29  CD1 PHE A   1      -2.406  -2.223   3.456  0.00  0.00    +0.004 A 
ENDBRANCH  23  24
ENDBRANCH  19  23
ENDBRANCH  17  19
ENDBRANCH   1  15
BRANCH   1  30
ATOM     30  C   UNK A   0      -0.013   1.086   0.008  0.00  0.00    +0.037 C 
BRANCH  30  32
ATOM     31  C   UNK A   0       0.031   1.205  -2.487  0.00  0.00    +0.007 C 
ATOM     32  C   UNK A   0      -0.753   1.593  -1.232  0.00  0.00    -0.015 C 
ATOM     33  C   UNK A   0      -2.147   0.964  -1.286  0.00  0.00    +0.007 C 
ENDBRANCH  30  32
ENDBRANCH   1  30
TORSDOF 9
