REMARK  Name = ZINC50544287
REMARK  4 active torsions:
REMARK  status: ('A' for Active; 'I' for Inactive)
REMARK    1  A    between atoms: C_1  and  C_2
REMARK    2  A    between atoms: C_6  and  C_17
REMARK    3  A    between atoms: N_9  and  C_10
REMARK    4  A    between atoms: C_13  and  C_15
REMARK                            x       y       z     vdW  Elec       q    Type
REMARK                         _______ _______ _______ _____ _____    ______ ____
ROOT
ATOM      1  C   UNL     1      -0.019   1.526   0.010  0.00  0.00    +0.028 C 
ATOM      2  C   UNL     1       0.002  -0.004   0.002  0.00  0.00    +0.073 C 
ATOM      3  C   UNL     1      -1.434  -0.537   0.020  0.00  0.00    +0.023 C 
ATOM      4  C   UNL     1      -2.101  -0.151   1.343  0.00  0.00    +0.016 C 
ATOM      5  C   UNL     1      -1.335  -0.786   2.506  0.00  0.00    +0.092 C 
ATOM      6  C   UNL     1       0.102  -0.256   2.516  0.00  0.00    +0.121 C 
ATOM      7  N   UNL     1       0.706  -0.494   1.195  0.00  0.00    -0.298 N 
ENDROOT
BRANCH   7   8
ATOM      8  C   UNL     1       1.904  -1.163   1.077  0.00  0.00    +0.190 A 
ATOM      9  C   UNL     1       2.647  -1.669   2.121  0.00  0.00    +0.067 A 
ATOM     10  C   UNL     1       3.779  -2.265   1.567  0.00  0.00    +0.054 A 
ATOM     11  C   UNL     1       3.686  -2.101   0.194  0.00  0.00    +0.169 A 
ATOM     12  O   UNL     1       2.538  -1.435  -0.072  0.00  0.00    -0.439 OA
BRANCH  11  13
ATOM     13  C   UNL     1       4.617  -2.550  -0.755  0.00  0.00    +0.297 C 
ATOM     14  O   UNL     1       4.427  -2.346  -1.938  0.00  0.00    -0.292 OA
ENDBRANCH  11  13
ENDBRANCH   7   8
BRANCH   5  15
ATOM     15  C   UNL     1      -2.011  -0.433   3.805  0.00  0.00    +0.215 C 
ATOM     16  O   UNL     1      -1.405   0.180   4.658  0.00  0.00    -0.276 OA
ATOM     17  N   UNL     1      -3.291  -0.798   4.020  0.00  0.00    -0.329 N 
ATOM     18  H   UNL     1      -3.776  -1.288   3.338  0.00  0.00    +0.145 HD
ATOM     19  H   UNL     1      -3.726  -0.571   4.856  0.00  0.00    +0.145 HD
ENDBRANCH   5  15
TORSDOF 3
