REMARK  Name = ZINC41210194
REMARK  7 active torsions:
REMARK  status: ('A' for Active; 'I' for Inactive)
REMARK    1  A    between atoms: C_1  and  O_2
REMARK    2  A    between atoms: O_2  and  C_3
REMARK    3  A    between atoms: C_3  and  C_4
REMARK    4  A    between atoms: C_4  and  S_5
REMARK    5  A    between atoms: S_5  and  N_8
REMARK    6  A    between atoms: C_12  and  C_15
REMARK    7  A    between atoms: N_17  and  C_18
REMARK                            x       y       z     vdW  Elec       q    Type
REMARK                         _______ _______ _______ _____ _____    ______ ____
ROOT
ATOM      1  N   UNL     1      -2.517  -4.518   0.002  0.00  0.00    -0.180 NA
ATOM      2  C   UNL     1      -2.394  -5.248  -1.268  0.00  0.00    +0.109 C 
ATOM      3  C   UNL     1      -3.373  -6.426  -1.256  0.00  0.00    +0.018 C 
ATOM      4  C   UNL     1      -3.121  -7.281  -0.012  0.00  0.00    +0.015 C 
ATOM      5  C   UNL     1      -3.361  -6.441   1.244  0.00  0.00    +0.091 C 
ATOM      6  C   UNL     1      -2.376  -5.262   1.261  0.00  0.00    +0.121 C 
ENDROOT
BRANCH   5   7
ATOM      7  C   UNL     1      -3.145  -7.293   2.468  0.00  0.00    +0.218 C 
ATOM      8  O   UNL     1      -2.293  -6.989   3.276  0.00  0.00    -0.275 OA
ATOM      9  N   UNL     1      -3.897  -8.394   2.664  0.00  0.00    -0.312 N 
ATOM     10  H   UNL     1      -4.578  -8.638   2.018  0.00  0.00    +0.149 HD
BRANCH   9  11
ATOM     11  C   UNL     1      -3.687  -9.223   3.854  0.00  0.00    +0.073 C 
ATOM     12  C   UNL     1      -2.500 -10.173   3.597  0.00  0.00    +0.022 C 
ATOM     13  C   UNL     1      -1.963 -10.637   4.924  0.00  0.00    +0.002 C 
ATOM     14  C   UNL     1      -2.573 -11.980   5.369  0.00  0.00    +0.000 C 
ATOM     15  C   UNL     1      -4.087 -12.068   5.100  0.00  0.00    +0.000 C 
ATOM     16  C   UNL     1      -4.807 -10.790   5.435  0.00  0.00    +0.002 C 
ATOM     17  C   UNL     1      -4.918  -9.940   4.152  0.00  0.00    +0.022 C 
ENDBRANCH   9  11
ENDBRANCH   5   7
BRANCH   1  18
ATOM     18  S   UNL     1      -2.801  -2.887   0.013  0.00  0.00    +0.034 S 
ATOM     19  O   UNL     1      -3.445  -2.640   1.256  0.00  0.00    -0.158 OA
ATOM     20  O   UNL     1      -3.469  -2.626  -1.214  0.00  0.00    -0.158 OA
BRANCH  18  21
ATOM     21  C   UNL     1      -1.154  -2.126   0.002  0.00  0.00    +0.213 C 
BRANCH  21  22
ATOM     22  C   UNL     1      -1.295  -0.603   0.011  0.00  0.00    +0.183 C 
BRANCH  22  24
ATOM     23  C   UNL     1      -0.017   1.425   0.010  0.00  0.00    +0.194 C 
ATOM     24  O   UNL     1       0.002  -0.004   0.002  0.00  0.00    -0.381 OA
ENDBRANCH  22  24
ENDBRANCH  21  22
ENDBRANCH  18  21
ENDBRANCH   1  18
TORSDOF 6
