REMARK  Name = ZINC28676974
REMARK  8 active torsions:
REMARK  status: ('A' for Active; 'I' for Inactive)
REMARK    1  A    between atoms: C_1  and  C_2
REMARK    2  A    between atoms: C_4  and  C_30
REMARK    3  A    between atoms: C_5  and  N_9
REMARK    4  A    between atoms: C_10  and  C_12
REMARK    5  A    between atoms: C_12  and  C_14
REMARK    6  A    between atoms: C_12  and  S_15
REMARK    7  A    between atoms: S_15  and  C_16
REMARK    8  A    between atoms: C_27  and  C_29
REMARK                            x       y       z     vdW  Elec       q    Type
REMARK                         _______ _______ _______ _____ _____    ______ ____
ROOT
ATOM      1  C   UNL     1       0.102  -4.275  -0.112  0.00  0.00    +0.137 C 
ATOM      2  C   UNL     1       0.644  -4.875  -1.411  0.00  0.00    +0.029 C 
ENDROOT
BRANCH   1   4
ATOM      3  N   UNL     1       1.239  -2.080  -0.021  0.00  0.00    -0.283 N 
ATOM      4  C   UNL     1       0.099  -2.772  -0.216  0.00  0.00    +0.230 C 
ATOM      5  O   UNL     1      -0.930  -2.184  -0.475  0.00  0.00    -0.274 OA
ATOM      6  H   UNL     1       2.188  -2.615   0.133  0.00  0.00    +0.155 HD
BRANCH   3  11
ATOM      7  C   UNL     1       1.144   3.594   0.010  0.00  0.00    +0.044 C 
ATOM      8  C   UNL     1       1.169   2.087   0.001  0.00  0.00    -0.049 A 
ATOM      9  C   UNL     1       1.023   1.387   1.185  0.00  0.00    +0.008 A 
ATOM     10  C   UNL     1       1.046   0.006   1.181  0.00  0.00    -0.028 A 
ATOM     11  C   UNL     1       1.216  -0.680  -0.013  0.00  0.00    +0.055 A 
ATOM     12  C   UNL     1       1.363   0.025  -1.202  0.00  0.00    +0.063 A 
ATOM     13  C   UNL     1       1.339   1.407  -1.190  0.00  0.00    +0.025 A 
ATOM     14 CL   UNL     1       1.575  -0.829  -2.698  0.00  0.00    -0.082 Cl
ATOM     15  C   UNL     1       0.886  -0.754   2.473  0.00  0.00    +0.046 C 
ENDBRANCH   3  11
ENDBRANCH   1   4
BRANCH   1  16
ATOM     16  S   UNL     1      -1.586  -4.865   0.168  0.00  0.00    -0.073 S 
BRANCH  16  17
ATOM     17  C   UNL     1      -1.276  -6.584   0.397  0.00  0.00    +0.193 A 
ATOM     18  N   UNL     1      -0.042  -7.013   0.324  0.00  0.00    -0.222 NA
ATOM     19  C   UNL     1       0.274  -8.320   0.490  0.00  0.00    +0.077 A 
ATOM     20  C   UNL     1       1.597  -8.766   0.411  0.00  0.00    +0.028 A 
ATOM     21  C   UNL     1       1.879 -10.101   0.585  0.00  0.00    +0.002 A 
ATOM     22  C   UNL     1       0.865 -11.015   0.840  0.00  0.00    +0.001 A 
ATOM     23  C   UNL     1      -0.446 -10.601   0.922  0.00  0.00    +0.014 A 
ATOM     24  C   UNL     1      -0.755  -9.254   0.749  0.00  0.00    +0.045 A 
ATOM     25  C   UNL     1      -2.133  -8.755   0.826  0.00  0.00    +0.168 A 
ATOM     26  N   UNL     1      -2.335  -7.413   0.648  0.00  0.00    -0.188 N 
ATOM     27  N   UNL     1      -3.715  -7.212   0.777  0.00  0.00    -0.148 NA
ATOM     28  C   UNL     1      -4.254  -8.381   1.021  0.00  0.00    +0.149 A 
ATOM     29  N   UNL     1      -3.305  -9.312   1.042  0.00  0.00    -0.211 NA
ATOM     30  C   UNL     1      -5.725  -8.633   1.230  0.00  0.00    +0.090 C 
ENDBRANCH  16  17
ENDBRANCH   1  16
TORSDOF 4
