REMARK  Name = ZINC03482663
REMARK  8 active torsions:
REMARK  status: ('A' for Active; 'I' for Inactive)
REMARK    1  A    between atoms: C_1  and  C_2
REMARK    2  A    between atoms: C_2  and  C_3
REMARK    3  A    between atoms: C_2  and  C_4
REMARK    4  A    between atoms: C_9  and  N_10
REMARK    5  A    between atoms: C_20  and  S_21
REMARK    6  A    between atoms: S_21  and  C_22
REMARK    7  A    between atoms: C_22  and  C_23
REMARK    8  A    between atoms: N_28  and  C_29
REMARK                            x       y       z     vdW  Elec       q    Type
REMARK                         _______ _______ _______ _____ _____    ______ ____
ROOT
ATOM      1  N   UNL     1       0.037  -2.767  -0.012  0.00  0.00    -0.255 N 
ATOM      2  C   UNL     1       1.239  -2.146  -0.021  0.00  0.00    +0.267 A 
ATOM      3  O   UNL     1       2.277  -2.781  -0.035  0.00  0.00    -0.267 OA
ATOM      4  C   UNL     1       1.245  -0.677  -0.013  0.00  0.00    +0.065 A 
ATOM      5  C   UNL     1       2.432   0.055  -0.021  0.00  0.00    +0.015 A 
ATOM      6  C   UNL     1       2.381   1.421  -0.013  0.00  0.00    +0.001 A 
ATOM      7  C   UNL     1       1.161   2.086   0.002  0.00  0.00    +0.002 A 
ATOM      8  C   UNL     1      -0.017   1.394   0.010  0.00  0.00    +0.028 A 
ATOM      9  C   UNL     1       0.002  -0.004   0.002  0.00  0.00    +0.079 A 
ATOM     10  N   UNL     1      -1.141  -0.729   0.009  0.00  0.00    -0.223 NA
ATOM     11  C   UNL     1      -1.121  -2.039   0.003  0.00  0.00    +0.177 A 
ENDROOT
BRANCH   1  17
ATOM     12  C   UNL     1      -0.063  -4.856  -1.223  0.00  0.00    -0.021 A 
ATOM     13  C   UNL     1      -0.121  -6.236  -1.226  0.00  0.00    +0.006 A 
ATOM     14  C   UNL     1      -0.138  -6.931  -0.031  0.00  0.00    +0.000 A 
ATOM     15  C   UNL     1      -0.097  -6.248   1.170  0.00  0.00    +0.002 A 
ATOM     16  C   UNL     1      -0.034  -4.868   1.180  0.00  0.00    +0.026 A 
ATOM     17  C   UNL     1      -0.022  -4.167  -0.019  0.00  0.00    +0.055 A 
BRANCH  12  19
ATOM     18  C   UNL     1       1.180  -4.518  -3.342  0.00  0.00    +0.012 C 
ATOM     19  C   UNL     1      -0.044  -4.099  -2.526  0.00  0.00    +0.015 C 
ATOM     20  C   UNL     1      -1.316  -4.413  -3.317  0.00  0.00    +0.012 C 
ENDBRANCH  12  19
ENDBRANCH   1  17
BRANCH  11  21
ATOM     21  S   UNL     1      -2.657  -2.903   0.015  0.00  0.00    -0.078 S 
BRANCH  21  22
ATOM     22  C   UNL     1      -3.804  -1.504   0.033  0.00  0.00    +0.173 C 
BRANCH  22  23
ATOM     23  C   UNL     1      -5.221  -2.016   0.045  0.00  0.00    +0.231 C 
ATOM     24  O   UNL     1      -5.434  -3.210   0.042  0.00  0.00    -0.274 OA
ATOM     25  N   UNL     1      -6.252  -1.148   0.060  0.00  0.00    -0.240 N 
ATOM     26  C   UNL     1      -7.519  -1.606   0.071  0.00  0.00    +0.306 C 
ATOM     27  O   UNL     1      -7.733  -2.803   0.068  0.00  0.00    -0.252 OA
ATOM     28  N   UNL     1      -8.550  -0.738   0.086  0.00  0.00    -0.302 N 
ATOM     29  C   UNL     1      -9.928  -1.236   0.098  0.00  0.00    +0.129 C 
ATOM     30  H   UNL     1      -6.082  -0.193   0.063  0.00  0.00    +0.159 HD
ATOM     31  H   UNL     1      -8.380   0.217   0.089  0.00  0.00    +0.150 HD
ENDBRANCH  22  23
ENDBRANCH  21  22
ENDBRANCH  11  21
TORSDOF 5
