REMARK  Name = ZINC09124911
REMARK  8 active torsions:
REMARK  status: ('A' for Active; 'I' for Inactive)
REMARK    1  A    between atoms: C_1  and  C_2
REMARK    2  A    between atoms: C_3  and  C_25
REMARK    3  A    between atoms: C_4  and  C_17
REMARK    4  A    between atoms: N_9  and  C_10
REMARK    5  A    between atoms: C_10  and  C_11
REMARK    6  A    between atoms: C_20  and  C_23
REMARK    7  A    between atoms: N_27  and  C_28
REMARK    8  A    between atoms: C_31  and  N_34
REMARK                            x       y       z     vdW  Elec       q    Type
REMARK                         _______ _______ _______ _____ _____    ______ ____
ROOT
ATOM      1  C   UNL     1      -5.624   8.252  -0.533  0.00  0.00    +0.061 C 
ATOM      2  C   UNL     1      -6.735   7.266  -0.284  0.00  0.00    +0.020 C 
ATOM      3  C   UNL     1      -6.457   5.945  -0.258  0.00  0.00    +0.056 C 
ATOM      4  C   UNL     1      -7.603   4.988   0.001  0.00  0.00    +0.139 C 
ATOM      5  N   UNL     1      -8.937   5.581   0.199  0.00  0.00    -0.315 N 
ATOM      6  C   UNL     1      -9.057   6.922   0.139  0.00  0.00    +0.138 C 
ATOM      7  S   UNL     1     -10.601   7.626   0.367  0.00  0.00    -0.018 S 
ATOM      8  N   UNL     1      -8.008   7.722  -0.094  0.00  0.00    -0.284 N 
ATOM      9  H   UNL     1      -9.709   5.021   0.369  0.00  0.00    +0.149 HD
ENDROOT
BRANCH   4  10
ATOM     10  C   UNL     1      -7.687   4.036  -1.164  0.00  0.00    -0.023 A 
ATOM     11  C   UNL     1      -8.211   4.468  -2.369  0.00  0.00    +0.007 A 
ATOM     12  C   UNL     1      -8.287   3.603  -3.442  0.00  0.00    +0.019 A 
ATOM     13  C   UNL     1      -7.842   2.287  -3.305  0.00  0.00    +0.052 A 
ATOM     14  C   UNL     1      -7.318   1.856  -2.085  0.00  0.00    +0.019 A 
ATOM     15  C   UNL     1      -7.244   2.733  -1.022  0.00  0.00    +0.007 A 
BRANCH  13  16
ATOM     16  C   UNL     1      -7.922   1.382  -4.413  0.00  0.00    +0.099 C 
ATOM     17  N   UNL     1      -7.986   0.664  -5.291  0.00  0.00    -0.191 NA
ENDBRANCH  13  16
ENDBRANCH   4  10
BRANCH   3  18
ATOM     18  C   UNL     1      -5.139   5.470  -0.461  0.00  0.00    +0.248 C 
ATOM     19  O   UNL     1      -4.421   5.240   0.495  0.00  0.00    -0.270 OA
ATOM     20  N   UNL     1      -4.678   5.273  -1.712  0.00  0.00    -0.282 N 
ATOM     21  H   UNL     1      -5.202   5.568  -2.474  0.00  0.00    +0.155 HD
BRANCH  20  22
ATOM     22  C   UNL     1      -3.447   4.641  -1.913  0.00  0.00    +0.034 A 
ATOM     23  C   UNL     1      -3.248   3.843  -3.031  0.00  0.00    +0.025 A 
ATOM     24  C   UNL     1      -2.030   3.221  -3.227  0.00  0.00    +0.034 A 
ATOM     25  C   UNL     1      -1.009   3.393  -2.310  0.00  0.00    +0.126 A 
ATOM     26  C   UNL     1      -1.206   4.184  -1.192  0.00  0.00    +0.034 A 
ATOM     27  C   UNL     1      -2.420   4.812  -0.994  0.00  0.00    +0.025 A 
BRANCH  25  28
ATOM     28  N   UNL     1       0.294   2.725  -2.522  0.00  0.00    +0.056 N 
ATOM     29  O   UNL     1       0.467   2.025  -3.503  0.00  0.00    -0.126 OA
ATOM     30  O   UNL     1       1.196   2.880  -1.718  0.00  0.00    -0.126 OA
ENDBRANCH  25  28
ENDBRANCH  20  22
ENDBRANCH   3  18
BRANCH   8  31
ATOM     31  C   UNL     1      -8.239   9.168  -0.142  0.00  0.00    +0.144 C 
BRANCH  31  32
ATOM     32  C   UNL     1      -8.070   9.758   1.260  0.00  0.00    +0.136 C 
ATOM     33  C   UNL     1      -8.318  11.278   1.222  0.00  0.00    +0.035 C 
ATOM     34  C   UNL     1      -9.485  11.497   2.215  0.00  0.00    +0.031 C 
ATOM     35  C   UNL     1      -9.410  10.221   3.091  0.00  0.00    +0.160 C 
ATOM     36  O   UNL     1      -9.042   9.185   2.151  0.00  0.00    -0.375 OA
ENDBRANCH  31  32
ENDBRANCH   8  31
TORSDOF 7
