REMARK  Name = ZINC39695560
REMARK  9 active torsions:
REMARK  status: ('A' for Active; 'I' for Inactive)
REMARK    1  A    between atoms: C_1  and  C_2
REMARK    2  A    between atoms: C_2  and  N_3
REMARK    3  A    between atoms: C_7  and  C_9
REMARK    4  A    between atoms: C_9  and  N_10
REMARK    5  A    between atoms: C_11  and  C_13
REMARK    6  A    between atoms: C_24  and  C_26
REMARK    7  A    between atoms: C_30  and  N_32
REMARK    8  A    between atoms: N_32  and  C_33
REMARK    9  A    between atoms: N_32  and  C_34
REMARK                            x       y       z     vdW  Elec       q    Type
REMARK                         _______ _______ _______ _____ _____    ______ ____
ROOT
ATOM      1  C   UNL     1      -1.499  -1.930   4.895  0.00  0.00    +0.100 C 
ATOM      2  C   UNL     1      -0.003  -2.067   5.257  0.00  0.00    +0.121 C 
ATOM      3  N   UNL     1       0.025  -2.060   6.739  0.00  0.00    -0.296 N 
ATOM      4  C   UNL     1      -1.158  -2.860   7.134  0.00  0.00    +0.115 C 
ATOM      5  C   UNL     1      -2.253  -2.452   6.128  0.00  0.00    -0.004 C 
ATOM      6  C   UNL     1      -3.128  -1.350   6.719  0.00  0.00    -0.010 C 
ATOM      7  C   UNL     1      -3.911  -1.909   7.910  0.00  0.00    -0.082 C 
ATOM      8  N   UNL     1      -4.742  -3.035   7.466  0.00  0.00    +0.379 N 
ATOM      9  C   UNL     1      -3.888  -4.129   6.985  0.00  0.00    -0.082 C 
ATOM     10  C   UNL     1      -3.103  -3.663   5.755  0.00  0.00    -0.010 C 
ATOM     11  C   UNL     1       0.924  -1.460   7.545  0.00  0.00    +0.247 C 
ATOM     12  O   UNL     1       1.771  -0.728   7.073  0.00  0.00    -0.270 OA
ATOM     13  H   UNL     1      -5.302  -3.363   8.238  0.00  0.00    -0.086 HD
ATOM     14  H   UNL     1      -5.348  -2.731   6.719  0.00  0.00    -0.086 HD
ENDROOT
BRANCH  11  15
ATOM     15  C   UNL     1       0.879  -1.694   9.005  0.00  0.00    +0.039 A 
ATOM     16  C   UNL     1       0.222  -2.816   9.514  0.00  0.00    +0.013 A 
ATOM     17  C   UNL     1       0.182  -3.032  10.877  0.00  0.00    +0.003 A 
ATOM     18  C   UNL     1       0.790  -2.140  11.741  0.00  0.00    +0.023 A 
ATOM     19  C   UNL     1       1.446  -1.021  11.244  0.00  0.00    +0.030 A 
ATOM     20  C   UNL     1       1.498  -0.798   9.876  0.00  0.00    +0.036 A 
BRANCH  19  21
ATOM     21  N   UNL     1       2.058  -0.122  12.121  0.00  0.00    -0.336 N 
ATOM     22  C   UNL     1       1.888  -0.280  13.568  0.00  0.00    +0.129 C 
ATOM     23  C   UNL     1       2.870   0.978  11.595  0.00  0.00    +0.129 C 
ENDBRANCH  19  21
ENDBRANCH  11  15
BRANCH   1  25
ATOM     24  N   UNL     1      -2.900  -2.474   2.930  0.00  0.00    -0.317 N 
ATOM     25  C   UNL     1      -1.824  -2.770   3.686  0.00  0.00    +0.218 C 
ATOM     26  O   UNL     1      -1.118  -3.712   3.394  0.00  0.00    -0.275 OA
ATOM     27  H   UNL     1      -3.465  -1.721   3.164  0.00  0.00    +0.149 HD
BRANCH  24  28
ATOM     28  C   UNL     1      -3.217  -3.290   1.756  0.00  0.00    +0.089 C 
BRANCH  28  33
ATOM     29  N   UNL     1      -5.580  -2.677   2.057  0.00  0.00    +0.382 N 
ATOM     30  C   UNL     1      -6.671  -3.561   1.596  0.00  0.00    -0.078 C 
ATOM     31  C   UNL     1      -6.470  -3.673   0.064  0.00  0.00    -0.020 C 
ATOM     32  C   UNL     1      -4.923  -3.700  -0.047  0.00  0.00    -0.016 C 
ATOM     33  C   UNL     1      -4.477  -2.745   1.080  0.00  0.00    -0.051 C 
ATOM     34  H   UNL     1      -5.253  -2.986   2.960  0.00  0.00    -0.081 HD
BRANCH  29  36
ATOM     35  C   UNL     1      -7.127  -1.205   3.255  0.00  0.00    -0.017 C 
ATOM     36  C   UNL     1      -6.069  -1.295   2.153  0.00  0.00    -0.082 C 
ENDBRANCH  29  36
ENDBRANCH  28  33
ENDBRANCH  24  28
ENDBRANCH   1  25
TORSDOF 6
