REMARK  Name = ZINC04046704
REMARK  2 active torsions:
REMARK  status: ('A' for Active; 'I' for Inactive)
REMARK    1  A    between atoms: C_1  and  C_2
REMARK    2  A    between atoms: N_10  and  C_13
REMARK                            x       y       z     vdW  Elec       q    Type
REMARK                         _______ _______ _______ _____ _____    ______ ____
ROOT
ATOM      1  C   UNL     1       2.601  -5.504  -1.292  0.00  0.00    -0.013 C 
ATOM      2  C   UNL     1       1.560  -4.575  -0.665  0.00  0.00    -0.060 C 
ATOM      3  C   UNL     1       1.914  -4.290   0.810  0.00  0.00    +0.073 C 
ATOM      4  C   UNL     1       1.532  -2.799   1.032  0.00  0.00    +0.088 C 
ATOM      5  C   UNL     1       2.863  -2.139   1.313  0.00  0.00    +0.229 C 
ATOM      6  O   UNL     1       3.023  -0.962   1.556  0.00  0.00    -0.275 OA
ATOM      7  N   UNL     1       3.836  -3.055   1.254  0.00  0.00    -0.210 N 
ATOM      8  C   UNL     1       3.416  -4.310   0.977  0.00  0.00    +0.228 C 
ATOM      9  O   UNL     1       4.118  -5.293   0.876  0.00  0.00    -0.275 OA
ATOM     10  C   UNL     1       1.003  -2.330  -0.329  0.00  0.00    +0.050 C 
ATOM     11  C   UNL     1       1.378  -0.902  -0.605  0.00  0.00    -0.028 A 
ATOM     12  C   UNL     1       2.580  -0.238  -0.697  0.00  0.00    +0.004 A 
ATOM     13  C   UNL     1       2.603   1.118  -0.973  0.00  0.00    +0.000 A 
ATOM     14  C   UNL     1       1.416   1.804  -1.154  0.00  0.00    +0.002 A 
ATOM     15  C   UNL     1       0.209   1.143  -1.062  0.00  0.00    +0.023 A 
ATOM     16  C   UNL     1       0.177  -0.222  -0.785  0.00  0.00    +0.036 A 
ATOM     17  N   UNL     1      -0.901  -1.099  -0.644  0.00  0.00    -0.286 N 
ATOM     18  C   UNL     1      -0.500  -2.357  -0.374  0.00  0.00    +0.211 C 
ATOM     19  O   UNL     1      -1.213  -3.322  -0.201  0.00  0.00    -0.277 OA
ATOM     20  H   UNL     1      -1.830  -0.834  -0.730  0.00  0.00    +0.155 HD
ATOM     21  N   UNL     1       1.575  -3.252  -1.295  0.00  0.00    +0.394 N 
ATOM     22  H   UNL     1       1.013  -3.262  -2.153  0.00  0.00    -0.083 HD
ATOM     23  H   UNL     1       2.539  -2.978  -1.520  0.00  0.00    -0.083 HD
ENDROOT
BRANCH   7  24
ATOM     24  C   UNL     1       5.187  -2.742   1.466  0.00  0.00    +0.044 A 
ATOM     25  C   UNL     1       5.617  -2.338   2.723  0.00  0.00    +0.025 A 
ATOM     26  C   UNL     1       6.949  -2.036   2.932  0.00  0.00    +0.022 A 
ATOM     27  C   UNL     1       7.851  -2.124   1.886  0.00  0.00    +0.041 A 
ATOM     28  C   UNL     1       7.423  -2.521   0.631  0.00  0.00    +0.022 A 
ATOM     29  C   UNL     1       6.094  -2.829   0.419  0.00  0.00    +0.025 A 
ATOM     30 CL   UNL     1       9.523  -1.736   2.150  0.00  0.00    -0.084 Cl
ENDBRANCH   7  24
TORSDOF 1
