REMARK  Name = ZINC36543941
REMARK  9 active torsions:
REMARK  status: ('A' for Active; 'I' for Inactive)
REMARK    1  A    between atoms: C_5  and  N_7
REMARK    2  A    between atoms: N_7  and  C_8
REMARK    3  A    between atoms: C_8  and  C_10
REMARK    4  A    between atoms: C_8  and  C_19
REMARK    5  A    between atoms: C_11  and  O_18
REMARK    6  A    between atoms: C_13  and  O_17
REMARK    7  A    between atoms: C_15  and  O_16
REMARK    8  A    between atoms: N_21  and  C_22
REMARK    9  A    between atoms: C_28  and  C_30
REMARK                            x       y       z     vdW  Elec       q    Type
REMARK                         _______ _______ _______ _____ _____    ______ ____
ROOT
ATOM      1  C   UNL     1       1.076  -2.769  -1.271  0.00  0.00    +0.205 C 
ENDROOT
BRANCH   1   2
ATOM      2  C   UNL     1      -0.048  -3.436  -0.521  0.00  0.00    +0.065 A 
ATOM      3  C   UNL     1      -0.106  -4.819  -0.446  0.00  0.00    +0.129 A 
ATOM      4  C   UNL     1      -1.141  -5.433   0.245  0.00  0.00    +0.091 A 
ATOM      5  C   UNL     1      -2.116  -4.663   0.861  0.00  0.00    +0.124 A 
ATOM      6  C   UNL     1      -2.057  -3.279   0.786  0.00  0.00    +0.091 A 
ATOM      7  C   UNL     1      -1.020  -2.666   0.099  0.00  0.00    +0.129 A 
BRANCH   7   8
ATOM      8  O   UNL     1      -0.959  -1.310   0.030  0.00  0.00    -0.506 OA
ATOM      9  H   UNL     1      -1.493  -0.928  -0.680  0.00  0.00    +0.292 HD
ENDBRANCH   7   8
BRANCH   5  10
ATOM     10  O   UNL     1      -3.130  -5.264   1.537  0.00  0.00    -0.507 OA
ATOM     11  H   UNL     1      -2.942  -5.419   2.472  0.00  0.00    +0.292 HD
ENDBRANCH   5  10
BRANCH   3  12
ATOM     12  O   UNL     1       0.849  -5.574  -1.049  0.00  0.00    -0.506 OA
ATOM     13  H   UNL     1       1.563  -5.850  -0.458  0.00  0.00    +0.292 HD
ENDBRANCH   3  12
ENDBRANCH   1   2
BRANCH   1  14
ATOM     14  C   UNL     1       2.180  -3.766  -1.512  0.00  0.00    +0.239 C 
ATOM     15  O   UNL     1       3.038  -3.936  -0.672  0.00  0.00    -0.273 OA
ATOM     16  N   UNL     1       2.215  -4.469  -2.662  0.00  0.00    -0.311 N 
ATOM     17  H   UNL     1       1.571  -4.284  -3.363  0.00  0.00    +0.149 HD
BRANCH  16  18
ATOM     18  C   UNL     1       3.225  -5.512  -2.853  0.00  0.00    +0.073 C 
ATOM     19  C   UNL     1       4.519  -4.881  -3.371  0.00  0.00    +0.022 C 
ATOM     20  C   UNL     1       5.574  -5.971  -3.570  0.00  0.00    +0.002 C 
ATOM     21  C   UNL     1       5.064  -6.995  -4.585  0.00  0.00    +0.000 C 
ATOM     22  C   UNL     1       3.770  -7.627  -4.067  0.00  0.00    +0.002 C 
ATOM     23  C   UNL     1       2.715  -6.537  -3.868  0.00  0.00    +0.022 C 
ENDBRANCH  16  18
ENDBRANCH   1  14
BRANCH   1  24
ATOM     24  N   UNL     1       1.594  -1.649  -0.482  0.00  0.00    -0.247 N 
ATOM     25  C   UNL     1       1.887  -1.822   0.822  0.00  0.00    +0.287 C 
ATOM     26  O   UNL     1       1.804  -2.929   1.323  0.00  0.00    -0.266 OA
BRANCH  24  31
ATOM     27  C   UNL     1       1.028   1.837  -1.505  0.00  0.00    +0.002 A 
ATOM     28  C   UNL     1       2.157   2.073  -2.267  0.00  0.00    +0.002 A 
ATOM     29  C   UNL     1       3.100   1.077  -2.439  0.00  0.00    +0.022 A 
ATOM     30  C   UNL     1       2.917  -0.159  -1.848  0.00  0.00    +0.062 A 
ATOM     31  C   UNL     1       1.783  -0.399  -1.081  0.00  0.00    +0.056 A 
ATOM     32  C   UNL     1       0.838   0.604  -0.912  0.00  0.00    +0.025 A 
ATOM     33 CL   UNL     1       4.101  -1.410  -2.064  0.00  0.00    -0.082 Cl
ENDBRANCH  24  31
BRANCH  25  34
ATOM     34  C   UNL     1       2.308  -0.678   1.638  0.00  0.00    +0.190 A 
ATOM     35  C   UNL     1       2.638  -0.715   2.962  0.00  0.00    +0.054 A 
ATOM     36  C   UNL     1       2.976   0.596   3.330  0.00  0.00    +0.042 A 
ATOM     37  C   UNL     1       2.838   1.367   2.229  0.00  0.00    +0.196 A 
ATOM     38  O   UNL     1       2.442   0.594   1.209  0.00  0.00    -0.458 OA
ENDBRANCH  25  34
ENDBRANCH   1  24
TORSDOF 9
