REMARK  Name = ZINC46793436
REMARK  8 active torsions:
REMARK  status: ('A' for Active; 'I' for Inactive)
REMARK    1  A    between atoms: C_4  and  N_30
REMARK    2  A    between atoms: C_5  and  C_7
REMARK    3  A    between atoms: C_10  and  C_12
REMARK    4  A    between atoms: C_13  and  C_14
REMARK    5  A    between atoms: N_16  and  C_17
REMARK    6  A    between atoms: C_21  and  C_23
REMARK    7  A    between atoms: N_25  and  C_26
REMARK    8  A    between atoms: C_26  and  C_27
REMARK                            x       y       z     vdW  Elec       q    Type
REMARK                         _______ _______ _______ _____ _____    ______ ____
ROOT
ATOM      1  C   UNL     1       3.148  -7.644  -2.213  0.00  0.00    +0.241 C 
ATOM      2  O   UNL     1       2.677  -8.595  -1.617  0.00  0.00    -0.270 OA
ATOM      3  N   UNL     1       4.000  -7.846  -3.238  0.00  0.00    -0.282 N 
ATOM      4  H   UNL     1       4.323  -7.092  -3.756  0.00  0.00    +0.155 HD
ENDROOT
BRANCH   3   5
ATOM      5  C   UNL     1       4.418  -9.142  -3.555  0.00  0.00    +0.034 A 
ATOM      6  C   UNL     1       3.539 -10.210  -3.414  0.00  0.00    +0.023 A 
ATOM      7  C   UNL     1       3.947 -11.493  -3.726  0.00  0.00    +0.003 A 
ATOM      8  C   UNL     1       5.231 -11.723  -4.179  0.00  0.00    +0.013 A 
ATOM      9  C   UNL     1       6.121 -10.658  -4.324  0.00  0.00    +0.038 A 
ATOM     10  C   UNL     1       5.707  -9.362  -4.015  0.00  0.00    +0.036 A 
BRANCH   9  11
ATOM     11  C   UNL     1       7.497 -10.901  -4.809  0.00  0.00    +0.245 C 
ATOM     12  O   UNL     1       8.270  -9.972  -4.934  0.00  0.00    -0.270 OA
ATOM     13  N   UNL     1       7.892 -12.154  -5.112  0.00  0.00    -0.303 N 
ATOM     14  H   UNL     1       7.275 -12.895  -5.012  0.00  0.00    +0.150 HD
BRANCH  13  15
ATOM     15  C   UNL     1       9.255 -12.395  -5.592  0.00  0.00    +0.200 C 
BRANCH  15  16
ATOM     16  C   UNL     1       9.441 -13.867  -5.857  0.00  0.00    +0.228 C 
ATOM     17  O   UNL     1       8.525 -14.638  -5.663  0.00  0.00    -0.274 OA
ATOM     18  N   UNL     1      10.625 -14.326  -6.309  0.00  0.00    -0.328 N 
ATOM     19  H   UNL     1      11.357 -13.709  -6.463  0.00  0.00    +0.145 HD
ATOM     20  H   UNL     1      10.744 -15.274  -6.479  0.00  0.00    +0.145 HD
ENDBRANCH  15  16
ENDBRANCH  13  15
ENDBRANCH   9  11
ENDBRANCH   3   5
BRANCH   1  22
ATOM     21  C   UNL     1       1.944  -6.124  -0.799  0.00  0.00    +0.020 C 
ATOM     22  C   UNL     1       2.802  -6.327  -1.831  0.00  0.00    +0.068 C 
BRANCH  21  26
ATOM     23  C   UNL     1       1.228  -2.159  -0.043  0.00  0.00    +0.022 A 
ATOM     24  C   UNL     1       0.562  -3.047   0.788  0.00  0.00    +0.017 A 
ATOM     25  C   UNL     1       0.747  -4.387   0.602  0.00  0.00    +0.016 A 
ATOM     26  C   UNL     1       1.598  -4.807  -0.416  0.00  0.00    +0.013 A 
ATOM     27  S   UNL     1       2.134  -3.257  -1.121  0.00  0.00    -0.089 S 
BRANCH  23  32
ATOM     28  C   UNL     1      -0.059   1.368  -0.024  0.00  0.00    +0.001 A 
ATOM     29  C   UNL     1       1.125   2.086  -0.037  0.00  0.00    +0.002 A 
ATOM     30  C   UNL     1       2.341   1.427  -0.053  0.00  0.00    +0.033 A 
ATOM     31  C   UNL     1       2.382   0.048  -0.055  0.00  0.00    +0.134 A 
ATOM     32  C   UNL     1       1.192  -0.683  -0.040  0.00  0.00    +0.019 A 
ATOM     33  C   UNL     1      -0.032  -0.011  -0.025  0.00  0.00    +0.011 A 
BRANCH  31  34
ATOM     34  N   UNL     1       3.684  -0.656  -0.072  0.00  0.00    +0.057 N 
ATOM     35  O   UNL     1       4.714  -0.022  -0.085  0.00  0.00    -0.126 OA
ATOM     36  O   UNL     1       3.718  -1.864  -0.074  0.00  0.00    -0.126 OA
ENDBRANCH  31  34
ENDBRANCH  23  32
ENDBRANCH  21  26
ENDBRANCH   1  22
TORSDOF 8
