REMARK  Name = ZINC00292618
REMARK  12 active torsions:
REMARK  status: ('A' for Active; 'I' for Inactive)
REMARK    1  A    between atoms: C_1  and  C_2
REMARK    2  A    between atoms: C_2  and  O_3
REMARK    3  A    between atoms: O_3  and  C_4
REMARK    4  A    between atoms: C_6  and  C_11
REMARK    5  A    between atoms: C_9  and  O_10
REMARK    6  A    between atoms: C_13  and  C_25
REMARK    7  A    between atoms: C_14  and  N_24
REMARK    8  A    between atoms: C_16  and  C_23
REMARK    9  A    between atoms: C_17  and  C_18
REMARK   10  A    between atoms: C_18  and  O_20
REMARK   11  A    between atoms: O_20  and  C_21
REMARK   12  A    between atoms: C_21  and  C_22
REMARK                            x       y       z     vdW  Elec       q    Type
REMARK                         _______ _______ _______ _____ _____    ______ ____
ROOT
ATOM      1  C   UNL     1      -0.013   1.086   0.008  0.00  0.00    +0.105 C 
ATOM      2  C   UNL     1      -0.738   1.583  -1.213  0.00  0.00    +0.098 C 
ATOM      3  C   UNL     1      -1.633   2.596  -1.122  0.00  0.00    +0.198 C 
ATOM      4  O   UNL     1      -1.908   3.196   0.050  0.00  0.00    -0.445 OA
ATOM      5  C   UNL     1      -1.599   2.572   1.196  0.00  0.00    +0.115 C 
ATOM      6  C   UNL     1      -0.715   1.570   1.248  0.00  0.00    +0.087 C 
ATOM      7  C   UNL     1      -2.273   3.015   2.469  0.00  0.00    +0.087 C 
ENDROOT
BRANCH   1  10
ATOM      8  C   UNL     1       3.763   1.197  -0.027  0.00  0.00    +0.162 A 
ATOM      9  C   UNL     1       2.462   0.720  -0.018  0.00  0.00    +0.054 A 
ATOM     10  C   UNL     1       1.402   1.606  -0.003  0.00  0.00    -0.031 A 
ATOM     11  C   UNL     1       1.635   2.969  -0.003  0.00  0.00    +0.008 A 
ATOM     12  C   UNL     1       2.931   3.451  -0.007  0.00  0.00    +0.049 A 
ATOM     13  C   UNL     1       3.998   2.568  -0.022  0.00  0.00    +0.158 A 
BRANCH  13  14
ATOM     14  O   UNL     1       5.274   3.041  -0.032  0.00  0.00    -0.503 OA
ATOM     15  H   UNL     1       5.634   3.183  -0.919  0.00  0.00    +0.292 HD
ENDBRANCH  13  14
BRANCH   8  16
ATOM     16  O   UNL     1       4.808   0.326  -0.043  0.00  0.00    -0.489 OA
BRANCH  16  18
ATOM     17  C   UNL     1       5.785  -1.884  -0.065  0.00  0.00    +0.048 C 
ATOM     18  C   UNL     1       4.492  -1.067  -0.048  0.00  0.00    +0.226 C 
ENDBRANCH  16  18
ENDBRANCH   8  16
ENDBRANCH   1  10
BRANCH   3  19
ATOM     19  N   UNL     1      -2.278   3.021  -2.257  0.00  0.00    -0.328 N 
ATOM     20  H   UNL     1      -2.090   2.598  -3.109  0.00  0.00    +0.145 HD
ATOM     21  H   UNL     1      -2.921   3.746  -2.207  0.00  0.00    +0.145 HD
ENDBRANCH   3  19
BRANCH   6  22
ATOM     22  C   UNL     1      -0.434   0.954   2.492  0.00  0.00    +0.339 C 
ATOM     23  O   UNL     1      -0.995   1.338   3.501  0.00  0.00    -0.245 OA
BRANCH  22  24
ATOM     24  O   UNL     1       0.457  -0.057   2.559  0.00  0.00    -0.462 OA
BRANCH  24  25
ATOM     25  C   UNL     1       0.691  -0.631   3.846  0.00  0.00    +0.229 C 
ATOM     26  C   UNL     1       1.723  -1.755   3.723  0.00  0.00    +0.048 C 
ENDBRANCH  24  25
ENDBRANCH  22  24
ENDBRANCH   6  22
BRANCH   2  27
ATOM     27  C   UNL     1      -0.479   0.980  -2.486  0.00  0.00    +0.101 C 
ATOM     28  N   UNL     1      -0.274   0.501  -3.495  0.00  0.00    -0.191 NA
ENDBRANCH   2  27
TORSDOF 9
