REMARK  Name = ZINC10431296
REMARK  5 active torsions:
REMARK  status: ('A' for Active; 'I' for Inactive)
REMARK    1  A    between atoms: C_1  and  C_2
REMARK    2  A    between atoms: C_5  and  C_11
REMARK    3  A    between atoms: N_8  and  C_10
REMARK    4  A    between atoms: N_13  and  C_14
REMARK    5  A    between atoms: C_17  and  N_21
REMARK                            x       y       z     vdW  Elec       q    Type
REMARK                         _______ _______ _______ _____ _____    ______ ____
ROOT
ATOM      1  C   UNL     1       0.002  -1.888  -4.818  0.00  0.00    +0.255 C 
ATOM      2  O   UNL     1      -0.025  -0.871  -5.487  0.00  0.00    -0.269 OA
ATOM      3  N   UNL     1       0.017  -3.092  -5.423  0.00  0.00    -0.281 N 
ATOM      4  H   UNL     1       0.106  -3.900  -4.893  0.00  0.00    +0.155 HD
ENDROOT
BRANCH   1   9
ATOM      5  C   UNL     1      -0.007   1.502   0.011  0.00  0.00    +0.068 C 
ATOM      6  C   UNL     1       0.021  -0.004   0.002  0.00  0.00    +0.068 A 
ATOM      7  C   UNL     1       0.023  -0.829  -1.170  0.00  0.00    +0.031 A 
ATOM      8  C   UNL     1       0.005  -0.691  -2.567  0.00  0.00    +0.032 A 
ATOM      9  C   UNL     1       0.017  -1.802  -3.355  0.00  0.00    +0.077 A 
ATOM     10  S   UNL     1       0.055  -3.128  -2.161  0.00  0.00    -0.064 S 
ATOM     11  C   UNL     1       0.053  -2.145  -0.684  0.00  0.00    +0.107 A 
ATOM     12  N   UNL     1       0.067  -2.107   0.661  0.00  0.00    -0.260 N 
ATOM     13  N   UNL     1       0.051  -0.763   1.056  0.00  0.00    -0.175 NA
ATOM     14  C   UNL     1       0.098  -3.267   1.556  0.00  0.00    +0.173 C 
ENDBRANCH   1   9
BRANCH   3  15
ATOM     15  C   UNL     1      -0.095  -3.178  -6.816  0.00  0.00    +0.037 A 
ATOM     16  C   UNL     1      -0.784  -4.236  -7.394  0.00  0.00    +0.045 A 
ATOM     17  C   UNL     1      -0.895  -4.320  -8.768  0.00  0.00    +0.065 A 
ATOM     18  C   UNL     1      -0.316  -3.346  -9.573  0.00  0.00    +0.062 A 
ATOM     19  C   UNL     1       0.374  -2.288  -8.995  0.00  0.00    +0.065 A 
ATOM     20  C   UNL     1       0.479  -2.201  -7.620  0.00  0.00    +0.045 A 
ATOM     21 CL   UNL     1       1.098  -1.072 -10.000  0.00  0.00    -0.082 Cl
ATOM     22 CL   UNL     1      -1.757  -5.643  -9.490  0.00  0.00    -0.082 Cl
BRANCH  18  23
ATOM     23  N   UNL     1      -0.428  -3.432 -10.967  0.00  0.00    -0.356 N 
ATOM     24  H   UNL     1      -0.909  -4.171 -11.370  0.00  0.00    +0.142 HD
ATOM     25  H   UNL     1      -0.024  -2.752 -11.528  0.00  0.00    +0.142 HD
ENDBRANCH  18  23
ENDBRANCH   3  15
TORSDOF 3
