REMARK  Name = ZINC20692879
REMARK  8 active torsions:
REMARK  status: ('A' for Active; 'I' for Inactive)
REMARK    1  A    between atoms: C_1  and  C_2
REMARK    2  A    between atoms: C_2  and  O_3
REMARK    3  A    between atoms: O_3  and  C_4
REMARK    4  A    between atoms: C_4  and  C_6
REMARK    5  A    between atoms: C_19  and  C_22
REMARK    6  A    between atoms: C_25  and  O_30
REMARK    7  A    between atoms: C_26  and  O_28
REMARK    8  A    between atoms: O_28  and  C_29
REMARK                            x       y       z     vdW  Elec       q    Type
REMARK                         _______ _______ _______ _____ _____    ______ ____
ROOT
ATOM      1  C   UNL     1       4.985   3.610  -5.055  0.00  0.00    +0.059 A 
ATOM      2  C   UNL     1       5.761   2.489  -4.745  0.00  0.00    +0.017 A 
ATOM      3  C   UNL     1       6.064   2.216  -3.442  0.00  0.00    +0.024 A 
ATOM      4  C   UNL     1       5.605   3.047  -2.423  0.00  0.00    +0.031 A 
ATOM      5  C   UNL     1       4.834   4.166  -2.714  0.00  0.00    -0.019 A 
ATOM      6  C   UNL     1       4.525   4.444  -4.034  0.00  0.00    +0.021 A 
ATOM      7  C   UNL     1       4.324   5.086  -1.650  0.00  0.00    +0.049 C 
ATOM      8  C   UNL     1       2.847   4.883  -1.407  0.00  0.00    -0.023 C 
ATOM      9  C   UNL     1       2.573   5.027  -0.133  0.00  0.00    -0.030 C 
ATOM     10  C   UNL     1       3.847   5.355   0.664  0.00  0.00    +0.033 C 
ATOM     11  C   UNL     1       4.973   4.832  -0.276  0.00  0.00    +0.029 C 
ATOM     12  C   UNL     1       5.106   3.326  -0.034  0.00  0.00    +0.105 C 
ATOM     13  N   UNL     1       5.907   2.740  -1.113  0.00  0.00    -0.336 N 
ATOM     14  H   UNL     1       6.740   2.062  -0.875  0.00  0.00    +0.147 HD
ENDROOT
BRANCH  12  15
ATOM     15  C   UNL     1       3.738   2.693  -0.020  0.00  0.00    -0.023 A 
ATOM     16  C   UNL     1       3.098   2.410  -1.212  0.00  0.00    +0.009 A 
ATOM     17  C   UNL     1       1.843   1.830  -1.205  0.00  0.00    +0.049 A 
ATOM     18  C   UNL     1       1.224   1.533  -0.001  0.00  0.00    +0.158 A 
ATOM     19  C   UNL     1       1.866   1.824   1.198  0.00  0.00    +0.162 A 
ATOM     20  C   UNL     1       3.126   2.399   1.184  0.00  0.00    +0.054 A 
BRANCH  19  21
ATOM     21  O   UNL     1       1.260   1.539   2.382  0.00  0.00    -0.491 OA
ATOM     22  C   UNL     1       1.978   1.865   3.574  0.00  0.00    +0.277 C 
ENDBRANCH  19  21
BRANCH  18  23
ATOM     23  O   UNL     1      -0.011   0.963   0.007  0.00  0.00    -0.503 OA
ATOM     24  H   UNL     1      -0.501   0.727   0.963  0.00  0.00    +0.292 HD
ENDBRANCH  18  23
ENDBRANCH  12  15
BRANCH   1  25
ATOM     25  C   UNL     1       4.653   3.912  -6.459  0.00  0.00    +0.339 C 
ATOM     26  O   UNL     1       3.979   4.886  -6.728  0.00  0.00    -0.245 OA
BRANCH  25  27
ATOM     27  O   UNL     1       5.097   3.107  -7.444  0.00  0.00    -0.461 OA
BRANCH  27  29
ATOM     28  C   UNL     1       5.322   2.442  -9.776  0.00  0.00    +0.048 C 
ATOM     29  C   UNL     1       4.731   3.465  -8.803  0.00  0.00    +0.229 C 
ENDBRANCH  27  29
ENDBRANCH  25  27
ENDBRANCH   1  25
TORSDOF 6
