REMARK  Name = ZINC08275204
REMARK  6 active torsions:
REMARK  status: ('A' for Active; 'I' for Inactive)
REMARK    1  A    between atoms: C_1  and  C_2
REMARK    2  A    between atoms: C_5  and  N_9
REMARK    3  A    between atoms: C_6  and  C_8
REMARK    4  A    between atoms: C_13  and  C_15
REMARK    5  A    between atoms: C_15  and  N_60
REMARK    6  A    between atoms: C_19  and  C_21
REMARK                            x       y       z     vdW  Elec       q    Type
REMARK                         _______ _______ _______ _____ _____    ______ ____
ROOT
ATOM      1  C   UNL     1       3.728   4.974  -4.006  0.00  0.00    +0.020 C 
ENDROOT
BRANCH   1   6
ATOM      2  N   UNL     1       8.280   6.465  -3.590  0.00  0.00    -0.269 N 
ATOM      3  C   UNL     1       6.991   6.749  -3.864  0.00  0.00    +0.310 C 
ATOM      4  O   UNL     1       6.669   7.881  -4.166  0.00  0.00    -0.252 OA
ATOM      5  N   UNL     1       6.059   5.777  -3.801  0.00  0.00    -0.241 N 
ATOM      6  C   UNL     1       4.770   6.061  -4.075  0.00  0.00    +0.204 C 
ATOM      7  O   UNL     1       4.449   7.191  -4.377  0.00  0.00    -0.277 OA
ATOM      8  H   UNL     1       8.524   5.583  -3.270  0.00  0.00    +0.156 HD
ATOM      9  H   UNL     1       6.316   4.874  -3.560  0.00  0.00    +0.159 HD
BRANCH   2  14
ATOM     10  C   UNL     1      12.271  10.432  -4.310  0.00  0.00    +0.044 C 
ATOM     11  C   UNL     1      11.211   9.378  -4.119  0.00  0.00    -0.050 A 
ATOM     12  C   UNL     1      10.033   9.445  -4.841  0.00  0.00    +0.005 A 
ATOM     13  C   UNL     1       9.060   8.481  -4.668  0.00  0.00    +0.024 A 
ATOM     14  C   UNL     1       9.264   7.444  -3.768  0.00  0.00    +0.038 A 
ATOM     15  C   UNL     1      10.446   7.382  -3.041  0.00  0.00    -0.029 A 
ATOM     16  C   UNL     1      11.418   8.346  -3.223  0.00  0.00    +0.008 A 
ATOM     17  C   UNL     1      10.669   6.261  -2.059  0.00  0.00    +0.045 C 
ENDBRANCH   2  14
ENDBRANCH   1   6
BRANCH   1  22
ATOM     18  C   UNL     1       2.457   6.262  -5.642  0.00  0.00    -0.077 C 
ATOM     19  C   UNL     1       0.971   6.301  -6.080  0.00  0.00    -0.020 C 
ATOM     20  C   UNL     1       0.440   4.923  -5.625  0.00  0.00    -0.013 C 
ATOM     21  C   UNL     1       1.410   4.463  -4.521  0.00  0.00    -0.037 C 
ATOM     22  N   UNL     1       2.389   5.537  -4.361  0.00  0.00    +0.390 N 
ATOM     23  H   UNL     1       2.084   6.177  -3.617  0.00  0.00    -0.080 HD
BRANCH  21  24
ATOM     24  C   UNL     1       0.657   4.247  -3.233  0.00  0.00    -0.057 A 
ATOM     25  C   UNL     1       0.295   5.333  -2.457  0.00  0.00    +0.006 A 
ATOM     26  C   UNL     1      -0.396   5.143  -1.274  0.00  0.00    +0.049 A 
ATOM     27  C   UNL     1      -0.724   3.860  -0.869  0.00  0.00    +0.162 A 
ATOM     28  C   UNL     1      -0.361   2.771  -1.648  0.00  0.00    +0.162 A 
ATOM     29  C   UNL     1       0.331   2.964  -2.831  0.00  0.00    +0.051 A 
ATOM     30  O   UNL     1      -0.690   1.511  -1.240  0.00  0.00    -0.488 OA
ATOM     31  C   UNL     1      -0.015   1.035  -0.074  0.00  0.00    +0.232 C 
ATOM     32  C   UNL     1      -0.721   1.507   1.188  0.00  0.00    +0.082 C 
ATOM     33  C   UNL     1      -0.676   3.019   1.345  0.00  0.00    +0.232 C 
ATOM     34  O   UNL     1      -1.406   3.659   0.296  0.00  0.00    -0.488 OA
ENDBRANCH  21  24
ENDBRANCH   1  22
TORSDOF 4
