REMARK  Name = ZINC14851885
REMARK  2 active torsions:
REMARK  status: ('A' for Active; 'I' for Inactive)
REMARK    1  A    between atoms: C_7  and  C_10
REMARK    2  A    between atoms: C_10  and  C_11
REMARK                            x       y       z     vdW  Elec       q    Type
REMARK                         _______ _______ _______ _____ _____    ______ ____
ROOT
ATOM      1  C   UNL     1      -4.261   3.748   1.485  0.00  0.00    +0.226 C 
ATOM      2  O   UNL     1      -3.478   3.890   2.400  0.00  0.00    -0.275 OA
ATOM      3  N   UNL     1      -5.560   3.498   1.743  0.00  0.00    -0.261 N 
ATOM      4  C   UNL     1      -6.530   3.321   0.652  0.00  0.00    +0.209 C 
ATOM      5  C   UNL     1      -7.804   4.045   1.005  0.00  0.00    +0.235 C 
ATOM      6  O   UNL     1      -8.508   4.485   0.120  0.00  0.00    -0.274 OA
ATOM      7  N   UNL     1      -8.171   4.210   2.290  0.00  0.00    -0.283 N 
ATOM      8  C   UNL     1      -7.353   3.757   3.331  0.00  0.00    +0.055 A 
ATOM      9  C   UNL     1      -6.029   3.393   3.062  0.00  0.00    +0.058 A 
ATOM     10  C   UNL     1      -5.207   2.944   4.079  0.00  0.00    +0.025 A 
ATOM     11  C   UNL     1      -5.701   2.847   5.368  0.00  0.00    +0.002 A 
ATOM     12  C   UNL     1      -7.011   3.197   5.639  0.00  0.00    +0.002 A 
ATOM     13  C   UNL     1      -7.840   3.661   4.624  0.00  0.00    +0.025 A 
ATOM     14  H   UNL     1      -9.011   4.648   2.496  0.00  0.00    +0.155 HD
ENDROOT
BRANCH   1  15
ATOM     15  C   UNL     1      -3.782   3.850   0.060  0.00  0.00    +0.155 C 
BRANCH  15  22
ATOM     16  C   UNL     1      -0.013   1.076   0.008  0.00  0.00    +0.001 A 
ATOM     17  C   UNL     1       1.183   1.781   0.000  0.00  0.00    +0.004 A 
ATOM     18  C   UNL     1       1.185   3.159   0.008  0.00  0.00    +0.049 A 
ATOM     19  C   UNL     1      -0.020   3.851   0.023  0.00  0.00    +0.168 A 
ATOM     20  C   UNL     1      -1.228   3.134   0.031  0.00  0.00    +0.045 A 
ATOM     21  C   UNL     1      -1.208   1.737   0.017  0.00  0.00    +0.013 A 
ATOM     22  C   UNL     1      -2.301   4.132   0.047  0.00  0.00    +0.100 A 
ATOM     23  N   UNL     1      -1.743   5.303   0.048  0.00  0.00    -0.082 NA
ATOM     24  O   UNL     1      -0.337   5.161   0.033  0.00  0.00    -0.354 OA
ENDBRANCH  15  22
ENDBRANCH   1  15
TORSDOF 2
