REMARK  Name = ZINC49561913
REMARK  9 active torsions:
REMARK  status: ('A' for Active; 'I' for Inactive)
REMARK    1  A    between atoms: C_1  and  C_2
REMARK    2  A    between atoms: C_2  and  C_3
REMARK    3  A    between atoms: C_2  and  C_4
REMARK    4  A    between atoms: C_4  and  C_6
REMARK    5  A    between atoms: C_4  and  N_11
REMARK    6  A    between atoms: C_12  and  C_14
REMARK    7  A    between atoms: C_17  and  C_19
REMARK    8  A    between atoms: C_20  and  C_21
REMARK    9  A    between atoms: C_21  and  N_22
REMARK                            x       y       z     vdW  Elec       q    Type
REMARK                         _______ _______ _______ _____ _____    ______ ____
ROOT
ATOM      1  N   UNL     1       2.116  -0.004   1.231  0.00  0.00    -0.303 N 
ATOM      2  C   UNL     1       2.387   1.219   1.728  0.00  0.00    +0.251 C 
ATOM      3  O   UNL     1       1.490   1.903   2.186  0.00  0.00    -0.270 OA
ATOM      4  H   UNL     1       2.832  -0.548   0.866  0.00  0.00    +0.150 HD
ENDROOT
BRANCH   2   5
ATOM      5  C   UNL     1       3.761   1.726   1.718  0.00  0.00    +0.075 A 
ATOM      6  C   UNL     1       4.246   2.942   2.182  0.00  0.00    +0.022 A 
ATOM      7  C   UNL     1       5.581   3.202   2.067  0.00  0.00    +0.025 A 
ATOM      8  C   UNL     1       6.402   2.241   1.491  0.00  0.00    +0.063 A 
ATOM      9  S   UNL     1       5.244   0.936   1.113  0.00  0.00    -0.075 S 
BRANCH   8  10
ATOM     10  C   UNL     1       7.815   2.284   1.265  0.00  0.00    -0.061 C 
ATOM     11  C   UNL     1       8.974   2.319   1.079  0.00  0.00    -0.116 C 
BRANCH  11  12
ATOM     12  C   UNL     1      10.426   2.362   0.846  0.00  0.00    +0.005 C 
BRANCH  12  13
ATOM     13  N   UNL     1      10.858   1.111   0.207  0.00  0.00    +0.385 N 
ATOM     14  H   UNL     1      10.637   0.333   0.810  0.00  0.00    -0.089 HD
ATOM     15  H   UNL     1      10.379   1.001  -0.674  0.00  0.00    -0.089 HD
ATOM     16  H   UNL     1      11.854   1.141   0.048  0.00  0.00    -0.089 HD
ENDBRANCH  12  13
ENDBRANCH  11  12
ENDBRANCH   8  10
ENDBRANCH   2   5
BRANCH   1  17
ATOM     17  C   UNL     1       0.742  -0.511   1.242  0.00  0.00    +0.113 C 
BRANCH  17  18
ATOM     18  C   UNL     1       0.762  -2.018   1.233  0.00  0.00    +0.010 A 
ATOM     19  C   UNL     1      -0.030  -2.886   1.909  0.00  0.00    +0.013 A 
ATOM     20  C   UNL     1       0.172  -4.244   1.745  0.00  0.00    +0.008 A 
ATOM     21  C   UNL     1       1.156  -4.667   0.914  0.00  0.00    +0.045 A 
ATOM     22  S   UNL     1       1.831  -3.123   0.325  0.00  0.00    -0.100 S 
ENDBRANCH  17  18
BRANCH  17  24
ATOM     23  C   UNL     1      -0.019   1.526   0.010  0.00  0.00    +0.009 C 
ATOM     24  C   UNL     1       0.002  -0.004   0.002  0.00  0.00    +0.008 C 
ATOM     25  C   UNL     1       0.718  -0.497  -1.257  0.00  0.00    +0.009 C 
ENDBRANCH  17  24
ENDBRANCH   1  17
TORSDOF 7
