REMARK  Name = ZINC39834312
REMARK  5 active torsions:
REMARK  status: ('A' for Active; 'I' for Inactive)
REMARK    1  A    between atoms: C_1  and  C_2
REMARK    2  A    between atoms: C_2  and  C_34
REMARK    3  A    between atoms: N_7  and  N_8
REMARK    4  A    between atoms: C_9  and  C_11
REMARK    5  A    between atoms: C_28  and  C_30
REMARK                            x       y       z     vdW  Elec       q    Type
REMARK                         _______ _______ _______ _____ _____    ______ ____
ROOT
ATOM      1  C   UNL     1       0.159   1.579   0.084  0.00  0.00    +0.011 C 
ATOM      2  C   UNL     1       0.082   0.052   0.055  0.00  0.00    -0.024 C 
ATOM      3  C   UNL     1       0.714  -0.465  -1.235  0.00  0.00    +0.062 C 
ATOM      4  C   UNL     1       0.780  -1.967  -1.251  0.00  0.00    +0.051 C 
ATOM      5  C   UNL     1       0.720  -2.698  -0.062  0.00  0.00    +0.025 C 
ATOM      6  C   UNL     1       0.640  -2.025   1.239  0.00  0.00    +0.069 C 
ATOM      7  N   UNL     1       0.410  -2.691   2.330  0.00  0.00    -0.184 NA
ATOM      8  C   UNL     1       0.839  -0.521   1.262  0.00  0.00    +0.064 C 
ATOM      9  C   UNL     1       0.701  -4.093  -0.198  0.00  0.00    +0.000 C 
ATOM     10  C   UNL     1       1.084  -5.147   0.574  0.00  0.00    +0.004 A 
ATOM     11  C   UNL     1       1.463  -5.237   1.936  0.00  0.00    +0.010 A 
ATOM     12  C   UNL     1       1.840  -6.465   2.392  0.00  0.00    +0.001 A 
ATOM     13  C   UNL     1       1.866  -7.606   1.590  0.00  0.00    +0.002 A 
ATOM     14  C   UNL     1       1.498  -7.610   0.279  0.00  0.00    +0.026 A 
ATOM     15  C   UNL     1       1.071  -6.372  -0.273  0.00  0.00    +0.044 A 
ATOM     16  N   UNL     1       0.615  -6.100  -1.471  0.00  0.00    -0.372 N 
ATOM     17  C   UNL     1       0.186  -4.711  -1.499  0.00  0.00    +0.165 C 
ATOM     18  C   UNL     1       0.761  -3.882  -2.612  0.00  0.00    +0.148 C 
ATOM     19  N   UNL     1       0.967  -2.611  -2.413  0.00  0.00    -0.249 NA
ATOM     20  C   UNL     1      -1.382  -0.387   0.117  0.00  0.00    +0.011 C 
ATOM     21  H   UNL     1       0.571  -6.721  -2.215  0.00  0.00    +0.161 HD
ENDROOT
BRANCH   7  22
ATOM     22  N   UNL     1      -0.365  -3.857   2.289  0.00  0.00    -0.203 N 
ATOM     23  C   UNL     1      -0.695  -4.489   3.433  0.00  0.00    +0.263 C 
ATOM     24  O   UNL     1      -0.393  -4.002   4.505  0.00  0.00    -0.268 OA
ATOM     25  H   UNL     1      -0.665  -4.210   1.436  0.00  0.00    +0.178 HD
BRANCH  23  26
ATOM     26  C   UNL     1      -1.424  -5.777   3.384  0.00  0.00    +0.041 A 
ATOM     27  C   UNL     1      -1.871  -6.304   2.168  0.00  0.00    +0.033 A 
ATOM     28  C   UNL     1      -2.548  -7.508   2.169  0.00  0.00    +0.111 A 
ATOM     29  N   UNL     1      -2.772  -8.158   3.293  0.00  0.00    -0.263 NA
ATOM     30  C   UNL     1      -2.368  -7.697   4.460  0.00  0.00    +0.111 A 
ATOM     31  C   UNL     1      -1.679  -6.503   4.551  0.00  0.00    +0.033 A 
ENDBRANCH  23  26
ENDBRANCH   7  22
BRANCH  18  32
ATOM     32  C   UNL     1       1.097  -4.512  -3.939  0.00  0.00    +0.433 C 
ATOM     33  F   UNL     1       1.614  -3.538  -4.800  0.00  0.00    -0.165 F 
ATOM     34  F   UNL     1       2.049  -5.519  -3.750  0.00  0.00    -0.165 F 
ATOM     35  F   UNL     1      -0.060  -5.062  -4.500  0.00  0.00    -0.165 F 
ENDBRANCH  18  32
TORSDOF 3
