REMARK  Name = ZINC35633366
REMARK  10 active torsions:
REMARK  status: ('A' for Active; 'I' for Inactive)
REMARK    1  A    between atoms: C_1  and  C_2
REMARK    2  A    between atoms: C_2  and  C_3
REMARK    3  A    between atoms: C_3  and  O_4
REMARK    4  A    between atoms: O_4  and  C_5
REMARK    5  A    between atoms: C_8  and  C_11
REMARK    6  A    between atoms: C_11  and  C_13
REMARK    7  A    between atoms: C_15  and  C_27
REMARK    8  A    between atoms: C_21  and  C_22
REMARK    9  A    between atoms: C_21  and  O_26
REMARK   10  A    between atoms: C_30  and  C_32
REMARK                            x       y       z     vdW  Elec       q    Type
REMARK                         _______ _______ _______ _____ _____    ______ ____
ROOT
ATOM      1  C   UNL     1       3.393  -5.972   5.568  0.00  0.00    +0.147 C 
ATOM      2  C   UNL     1       2.116  -6.519   6.216  0.00  0.00    +0.156 C 
ATOM      3  N   UNL     1       2.050  -6.064   7.605  0.00  0.00    -0.289 N 
ATOM      4  C   UNL     1       3.162  -5.815   8.312  0.00  0.00    +0.302 C 
ATOM      5  O   UNL     1       3.051  -5.450   9.466  0.00  0.00    -0.253 OA
ATOM      6  N   UNL     1       4.393  -5.955   7.796  0.00  0.00    -0.264 N 
ATOM      7  C   UNL     1       4.596  -6.403   6.413  0.00  0.00    +0.243 C 
ATOM      8  H   UNL     1       1.183  -5.939   8.024  0.00  0.00    +0.151 HD
ATOM      9  H   UNL     1       5.165  -5.754   8.347  0.00  0.00    +0.153 HD
ENDROOT
BRANCH   2  10
ATOM     10  C   UNL     1       2.137  -8.025   6.178  0.00  0.00    +0.127 A 
ATOM     11  C   UNL     1       1.490  -8.797   5.283  0.00  0.00    +0.047 A 
ATOM     12  C   UNL     1       1.780 -10.137   5.609  0.00  0.00    +0.050 A 
ATOM     13  C   UNL     1       2.596 -10.108   6.696  0.00  0.00    +0.135 A 
ATOM     14  O   UNL     1       2.809  -8.820   7.027  0.00  0.00    -0.458 OA
BRANCH  13  15
ATOM     15  C   UNL     1       3.158 -11.286   7.391  0.00  0.00    +0.020 A 
ATOM     16  C   UNL     1       2.866 -12.573   6.936  0.00  0.00    +0.012 A 
ATOM     17  C   UNL     1       3.393 -13.669   7.588  0.00  0.00    +0.003 A 
ATOM     18  C   UNL     1       4.210 -13.495   8.691  0.00  0.00    +0.038 A 
ATOM     19  C   UNL     1       4.504 -12.221   9.148  0.00  0.00    +0.124 A 
ATOM     20  C   UNL     1       3.987 -11.115   8.500  0.00  0.00    +0.050 A 
ATOM     21  F   UNL     1       5.303 -12.059  10.226  0.00  0.00    -0.205 F 
ENDBRANCH  13  15
ENDBRANCH   2  10
BRANCH   7  22
ATOM     22  C   UNL     1       5.870  -5.774   5.847  0.00  0.00    +0.436 C 
ATOM     23  F   UNL     1       5.755  -4.380   5.878  0.00  0.00    -0.166 F 
ATOM     24  F   UNL     1       6.968  -6.168   6.619  0.00  0.00    -0.166 F 
ATOM     25  F   UNL     1       6.053  -6.197   4.526  0.00  0.00    -0.166 F 
ENDBRANCH   7  22
BRANCH   1  26
ATOM     26  C   UNL     1       3.327  -4.467   5.511  0.00  0.00    +0.173 C 
ATOM     27  O   UNL     1       3.831  -3.805   6.393  0.00  0.00    -0.292 OA
BRANCH  26  31
ATOM     28  C   UNL     1       1.384  -2.553   2.271  0.00  0.00    +0.121 A 
ATOM     29  C   UNL     1       1.961  -1.791   3.282  0.00  0.00    +0.046 A 
ATOM     30  C   UNL     1       2.591  -2.406   4.333  0.00  0.00    +0.015 A 
ATOM     31  C   UNL     1       2.653  -3.804   4.388  0.00  0.00    +0.018 A 
ATOM     32  C   UNL     1       2.071  -4.566   3.368  0.00  0.00    +0.015 A 
ATOM     33  C   UNL     1       1.438  -3.942   2.324  0.00  0.00    +0.046 A 
BRANCH  28  34
ATOM     34  O   UNL     1       0.761  -1.940   1.234  0.00  0.00    -0.492 OA
BRANCH  34  35
ATOM     35  C   UNL     1       0.742  -0.511   1.242  0.00  0.00    +0.229 C 
BRANCH  35  37
ATOM     36  C   UNL     1      -0.019   1.526   0.010  0.00  0.00    +0.007 C 
ATOM     37  C   UNL     1       0.002  -0.004   0.002  0.00  0.00    +0.038 C 
ENDBRANCH  35  37
ENDBRANCH  34  35
ENDBRANCH  28  34
ENDBRANCH  26  31
ENDBRANCH   1  26
BRANCH   7  38
ATOM     38  O   UNL     1       4.713  -7.827   6.386  0.00  0.00    -0.364 OA
ATOM     39  H   UNL     1       5.455  -8.171   6.902  0.00  0.00    +0.212 HD
ENDBRANCH   7  38
TORSDOF 9
