REMARK  Name = ZINC44337336
REMARK  7 active torsions:
REMARK  status: ('A' for Active; 'I' for Inactive)
REMARK    1  A    between atoms: C_1  and  C_2
REMARK    2  A    between atoms: C_2  and  C_4
REMARK    3  A    between atoms: C_2  and  N_11
REMARK    4  A    between atoms: C_4  and  C_5
REMARK    5  A    between atoms: C_5  and  C_6
REMARK    6  A    between atoms: C_12  and  C_14
REMARK    7  A    between atoms: C_16  and  N_19
REMARK                            x       y       z     vdW  Elec       q    Type
REMARK                         _______ _______ _______ _____ _____    ______ ____
ROOT
ATOM      1  N   UNL     1       0.711  -0.489   1.189  0.00  0.00    -0.309 N 
ATOM      2  C   UNL     1       2.054  -0.600   1.174  0.00  0.00    +0.245 C 
ATOM      3  O   UNL     1       2.678  -0.296   0.174  0.00  0.00    -0.270 OA
ATOM      4  H   UNL     1       0.213  -0.731   1.986  0.00  0.00    +0.149 HD
ENDROOT
BRANCH   2   5
ATOM      5  C   UNL     1       2.766  -1.087   2.366  0.00  0.00    +0.046 A 
ATOM      6  C   UNL     1       4.203  -1.214   2.389  0.00  0.00    +0.053 A 
ATOM      7  C   UNL     1       4.732  -1.672   3.541  0.00  0.00    +0.164 A 
ATOM      8  S   UNL     1       3.302  -1.925   4.570  0.00  0.00    -0.072 S 
ATOM      9  C   UNL     1       2.092  -1.439   3.514  0.00  0.00    +0.060 A 
BRANCH   7  10
ATOM     10  N   UNL     1       6.156  -1.907   3.870  0.00  0.00    +0.063 N 
ATOM     11  O   UNL     1       7.012  -1.682   3.046  0.00  0.00    -0.126 OA
ATOM     12  O   UNL     1       6.463  -2.326   4.962  0.00  0.00    -0.126 OA
ENDBRANCH   7  10
ENDBRANCH   2   5
BRANCH   1  14
ATOM     13  C   UNL     1      -0.019   1.526   0.010  0.00  0.00    +0.028 C 
ATOM     14  C   UNL     1       0.002  -0.004   0.002  0.00  0.00    +0.071 C 
BRANCH  14  15
ATOM     15  C   UNL     1      -1.433  -0.534   0.013  0.00  0.00    +0.030 C 
BRANCH  15  16
ATOM     16  C   UNL     1      -1.416  -2.058  -0.121  0.00  0.00    +0.076 C 
BRANCH  16  17
ATOM     17  C   UNL     1      -2.829  -2.579  -0.111  0.00  0.00    +0.105 A 
ATOM     18  C   UNL     1      -3.609  -2.761  -1.192  0.00  0.00    +0.044 A 
ATOM     19  C   UNL     1      -4.846  -3.262  -0.725  0.00  0.00    +0.041 A 
ATOM     20  C   UNL     1      -4.748  -3.356   0.614  0.00  0.00    +0.195 A 
ATOM     21  O   UNL     1      -3.523  -2.946   0.979  0.00  0.00    -0.468 OA
ENDBRANCH  16  17
ENDBRANCH  15  16
ENDBRANCH  14  15
ENDBRANCH   1  14
TORSDOF 6
