REMARK  Name = ZINC08790672
REMARK  5 active torsions:
REMARK  status: ('A' for Active; 'I' for Inactive)
REMARK    1  A    between atoms: C_4  and  C_7
REMARK    2  A    between atoms: C_7  and  C_8
REMARK    3  A    between atoms: C_8  and  N_9
REMARK    4  A    between atoms: C_14  and  C_31
REMARK    5  A    between atoms: C_31  and  C_32
REMARK                            x       y       z     vdW  Elec       q    Type
REMARK                         _______ _______ _______ _____ _____    ______ ____
ROOT
ATOM      1  N   UNL     1      -5.042   0.739  -2.227  0.00  0.00    -0.241 N 
ATOM      2  C   UNL     1      -5.260  -0.300  -1.413  0.00  0.00    +0.224 C 
ATOM      3  O   UNL     1      -6.312  -0.891  -1.298  0.00  0.00    -0.275 OA
ATOM      4  C   UNL     1      -3.990  -0.623  -0.658  0.00  0.00    +0.073 C 
ATOM      5  C   UNL     1      -4.182  -0.269   0.832  0.00  0.00    -0.049 C 
ATOM      6  C   UNL     1      -2.649   1.301   0.027  0.00  0.00    +0.050 C 
ATOM      7  C   UNL     1      -2.979   0.431  -1.191  0.00  0.00    +0.088 C 
ATOM      8  C   UNL     1      -3.797   1.228  -2.182  0.00  0.00    +0.225 C 
ATOM      9  O   UNL     1      -3.388   2.164  -2.836  0.00  0.00    -0.275 OA
ATOM     10  C   UNL     1      -1.215   1.748   0.017  0.00  0.00    -0.026 A 
ATOM     11  C   UNL     1      -0.013   1.076   0.008  0.00  0.00    +0.004 A 
ATOM     12  C   UNL     1       1.176   1.783   0.000  0.00  0.00    +0.002 A 
ATOM     13  C   UNL     1       1.155   3.166   0.007  0.00  0.00    +0.022 A 
ATOM     14  C   UNL     1      -0.048   3.844   0.021  0.00  0.00    +0.062 A 
ATOM     15  C   UNL     1      -1.250   3.139   0.028  0.00  0.00    +0.054 A 
ATOM     16  N   UNL     1      -2.572   3.589   0.040  0.00  0.00    -0.285 N 
ATOM     17  C   UNL     1      -3.455   2.571   0.030  0.00  0.00    +0.211 C 
ATOM     18  O   UNL     1      -4.665   2.662   0.035  0.00  0.00    -0.277 OA
ATOM     19 CL   UNL     1      -0.062   5.580   0.029  0.00  0.00    -0.082 Cl
ATOM     20  H   UNL     1      -2.825   4.525   0.043  0.00  0.00    +0.155 HD
ATOM     21  N   UNL     1      -2.968   0.474   1.178  0.00  0.00    +0.394 N 
ATOM     22  H   UNL     1      -2.197  -0.177   1.372  0.00  0.00    -0.083 HD
ATOM     23  H   UNL     1      -3.135   1.062   2.003  0.00  0.00    -0.083 HD
ENDROOT
BRANCH   1  24
ATOM     24  C   UNL     1      -6.081   1.297  -3.095  0.00  0.00    +0.121 C 
BRANCH  24  25
ATOM     25  C   UNL     1      -6.836   2.397  -2.346  0.00  0.00    +0.054 C 
BRANCH  25  29
ATOM     26  C   UNL     1      -9.867   4.024  -4.878  0.00  0.00    +0.000 A 
ATOM     27  C   UNL     1     -10.155   2.948  -4.059  0.00  0.00    +0.000 A 
ATOM     28  C   UNL     1      -9.174   2.422  -3.239  0.00  0.00    +0.004 A 
ATOM     29  C   UNL     1      -7.905   2.971  -3.239  0.00  0.00    -0.046 A 
ATOM     30  C   UNL     1      -7.619   4.050  -4.054  0.00  0.00    +0.004 A 
ATOM     31  C   UNL     1      -8.599   4.574  -4.877  0.00  0.00    +0.000 A 
ENDBRANCH  25  29
ENDBRANCH  24  25
ENDBRANCH   1  24
BRANCH   5  32
ATOM     32  C   UNL     1      -4.316  -1.542   1.669  0.00  0.00    +0.080 C 
BRANCH  32  33
ATOM     33  C   UNL     1      -4.549  -1.173   3.111  0.00  0.00    +0.209 C 
ATOM     34  O   UNL     1      -4.602  -0.006   3.438  0.00  0.00    -0.276 OA
ATOM     35  N   UNL     1      -4.697  -2.139   4.039  0.00  0.00    -0.329 N 
ATOM     36  H   UNL     1      -4.654  -3.073   3.778  0.00  0.00    +0.145 HD
ATOM     37  H   UNL     1      -4.847  -1.902   4.967  0.00  0.00    +0.145 HD
ENDBRANCH  32  33
ENDBRANCH   5  32
TORSDOF 5
