REMARK  Name = ZINC04518765
REMARK  8 active torsions:
REMARK  status: ('A' for Active; 'I' for Inactive)
REMARK    1  A    between atoms: C_1  and  C_2
REMARK    2  A    between atoms: C_2  and  O_3
REMARK    3  A    between atoms: O_3  and  C_4
REMARK    4  A    between atoms: C_7  and  C_10
REMARK    5  A    between atoms: C_12  and  C_29
REMARK    6  A    between atoms: N_16  and  C_21
REMARK    7  A    between atoms: C_24  and  C_28
REMARK    8  A    between atoms: C_25  and  C_27
REMARK                            x       y       z     vdW  Elec       q    Type
REMARK                         _______ _______ _______ _____ _____    ______ ____
ROOT
ATOM      1  C   UNL     1      -0.749   5.605   0.040  0.00  0.00    +0.163 A 
ATOM      2  N   UNL     1       0.574   5.666   0.028  0.00  0.00    -0.220 NA
ATOM      3  C   UNL     1       1.311   4.555   0.014  0.00  0.00    +0.154 A 
ATOM      4  C   UNL     1       0.659   3.321   0.014  0.00  0.00    +0.117 A 
ATOM      5  C   UNL     1      -0.748   3.303   0.027  0.00  0.00    +0.170 A 
ATOM      6  N   UNL     1      -1.404   4.450   0.040  0.00  0.00    -0.208 NA
ATOM      7  N   UNL     1      -1.127   1.972   0.018  0.00  0.00    -0.245 N 
ATOM      8  C   UNL     1      -0.014   1.212   0.009  0.00  0.00    +0.333 A 
ATOM      9  O   UNL     1       0.002  -0.004   0.002  0.00  0.00    -0.246 OA
ATOM     10  N   UNL     1       1.077   2.002   0.003  0.00  0.00    -0.303 N 
ATOM     11  H   UNL     1       1.998   1.698  -0.008  0.00  0.00    +0.171 HD
ENDROOT
BRANCH   7  12
ATOM     12  C   UNL     1      -2.444   1.495   0.020  0.00  0.00    +0.053 A 
ATOM     13  C   UNL     1      -3.507   2.389   0.029  0.00  0.00    +0.026 A 
ATOM     14  C   UNL     1      -4.805   1.916   0.032  0.00  0.00    +0.005 A 
ATOM     15  C   UNL     1      -5.046   0.554   0.025  0.00  0.00    -0.047 A 
ATOM     16  C   UNL     1      -3.990  -0.338   0.016  0.00  0.00    -0.046 A 
ATOM     17  C   UNL     1      -2.690   0.129   0.008  0.00  0.00    +0.030 A 
ATOM     18  C   UNL     1      -4.257  -1.821   0.009  0.00  0.00    +0.044 C 
ATOM     19  C   UNL     1      -6.463   0.042   0.028  0.00  0.00    +0.044 C 
ENDBRANCH   7  12
BRANCH   1  23
ATOM     20  C   UNL     1      -2.972   9.230   0.079  0.00  0.00    +0.121 A 
ATOM     21  C   UNL     1      -1.584   9.269   0.067  0.00  0.00    +0.046 A 
ATOM     22  C   UNL     1      -0.860   8.095   0.054  0.00  0.00    +0.015 A 
ATOM     23  C   UNL     1      -1.524   6.869   0.054  0.00  0.00    +0.019 A 
ATOM     24  C   UNL     1      -2.917   6.833   0.061  0.00  0.00    +0.015 A 
ATOM     25  C   UNL     1      -3.635   8.010   0.079  0.00  0.00    +0.046 A 
BRANCH  20  26
ATOM     26  O   UNL     1      -3.682  10.388   0.091  0.00  0.00    -0.492 OA
BRANCH  26  28
ATOM     27  C   UNL     1      -5.729  11.673   0.115  0.00  0.00    +0.048 C 
ATOM     28  C   UNL     1      -5.106  10.275   0.103  0.00  0.00    +0.225 C 
ENDBRANCH  26  28
ENDBRANCH  20  26
ENDBRANCH   1  23
BRANCH   3  29
ATOM     29  C   UNL     1       2.790   4.628   0.001  0.00  0.00    +0.262 C 
ATOM     30  O   UNL     1       3.450   3.608  -0.011  0.00  0.00    -0.269 OA
ATOM     31  N   UNL     1       3.405   5.828   0.002  0.00  0.00    -0.324 N 
ATOM     32  H   UNL     1       2.879   6.643   0.011  0.00  0.00    +0.145 HD
ATOM     33  H   UNL     1       4.374   5.876  -0.006  0.00  0.00    +0.145 HD
ENDBRANCH   3  29
TORSDOF 5
