REMARK  Name = ZINC50252059
REMARK  6 active torsions:
REMARK  status: ('A' for Active; 'I' for Inactive)
REMARK    1  A    between atoms: C_1  and  N_2
REMARK    2  A    between atoms: C_4  and  S_7
REMARK    3  A    between atoms: S_7  and  N_10
REMARK    4  A    between atoms: N_10  and  C_11
REMARK    5  A    between atoms: C_11  and  C_19
REMARK    6  A    between atoms: C_19  and  N_20
REMARK                            x       y       z     vdW  Elec       q    Type
REMARK                         _______ _______ _______ _____ _____    ______ ____
ROOT
ATOM      1  C   UNL     1       2.326  -4.405  -0.970  0.00  0.00    +0.025 C 
ATOM      2  C   UNL     1       1.679  -5.599  -0.316  0.00  0.00    +0.022 C 
ATOM      3  C   UNL     1       1.765  -6.955  -0.991  0.00  0.00    +0.002 C 
ATOM      4  C   UNL     1       1.311  -6.925  -2.453  0.00  0.00    +0.000 C 
ATOM      5  C   UNL     1       2.535  -7.170  -3.353  0.00  0.00    +0.000 C 
ATOM      6  C   UNL     1       3.412  -5.920  -3.406  0.00  0.00    +0.000 C 
ATOM      7  C   UNL     1       4.181  -5.792  -2.092  0.00  0.00    +0.002 C 
ATOM      8  C   UNL     1       3.795  -4.556  -1.310  0.00  0.00    +0.022 C 
ENDROOT
BRANCH   1   9
ATOM      9  N   UNL     1       1.553  -3.921  -2.117  0.00  0.00    -0.186 NA
ATOM     10  H   UNL     1       0.791  -4.429  -2.437  0.00  0.00    +0.149 HD
BRANCH   9  11
ATOM     11  S   UNL     1       1.979  -2.507  -2.865  0.00  0.00    +0.062 S 
ATOM     12  O   UNL     1       2.257  -1.569  -1.834  0.00  0.00    -0.153 OA
ATOM     13  O   UNL     1       1.002  -2.268  -3.869  0.00  0.00    -0.153 OA
BRANCH  11  17
ATOM     14  C   UNL     1       5.564  -3.992  -6.410  0.00  0.00    +0.172 C 
ATOM     15  N   UNL     1       4.961  -3.430  -5.199  0.00  0.00    -0.273 N 
ATOM     16  C   UNL     1       3.644  -3.399  -4.908  0.00  0.00    +0.136 A 
ATOM     17  C   UNL     1       3.501  -2.800  -3.704  0.00  0.00    +0.142 A 
ATOM     18  C   UNL     1       4.775  -2.453  -3.242  0.00  0.00    +0.162 A 
ATOM     19  N   UNL     1       5.652  -2.836  -4.134  0.00  0.00    -0.178 NA
ENDBRANCH  11  17
ENDBRANCH   9  11
ENDBRANCH   1   9
BRANCH   1  20
ATOM     20  C   UNL     1       2.253  -3.249   0.076  0.00  0.00    -0.062 C 
BRANCH  20  21
ATOM     21  N   UNL     1       0.847  -2.915   0.339  0.00  0.00    +0.379 N 
ATOM     22  H   UNL     1       0.383  -2.702  -0.531  0.00  0.00    -0.090 HD
ATOM     23  H   UNL     1       0.391  -3.700   0.779  0.00  0.00    -0.090 HD
ATOM     24  H   UNL     1       0.800  -2.113   0.950  0.00  0.00    -0.090 HD
ENDBRANCH  20  21
ENDBRANCH   1  20
TORSDOF 5
