REMARK  Name = ZINC67203325
REMARK  10 active torsions:
REMARK  status: ('A' for Active; 'I' for Inactive)
REMARK    1  A    between atoms: C_1  and  C_2
REMARK    2  A    between atoms: C_6  and  C_23
REMARK    3  A    between atoms: C_10  and  C_12
REMARK    4  A    between atoms: C_12  and  C_14
REMARK    5  A    between atoms: C_12  and  N_15
REMARK    6  A    between atoms: C_16  and  O_18
REMARK    7  A    between atoms: O_18  and  C_19
REMARK    8  A    between atoms: C_19  and  C_20
REMARK    9  A    between atoms: C_19  and  C_21
REMARK   10  A    between atoms: C_19  and  C_22
REMARK                            x       y       z     vdW  Elec       q    Type
REMARK                         _______ _______ _______ _____ _____    ______ ____
ROOT
ATOM      1  C   UNL     1      -0.046   1.473   0.003  0.00  0.00    +0.028 C 
ATOM      2  C   UNL     1       0.279  -0.008  -0.202  0.00  0.00    +0.073 C 
ATOM      3  C   UNL     1      -1.022  -0.812  -0.291  0.00  0.00    +0.023 C 
ATOM      4  C   UNL     1      -0.691  -2.305  -0.356  0.00  0.00    +0.016 C 
ATOM      5  C   UNL     1       0.049  -2.721   0.917  0.00  0.00    +0.092 C 
ATOM      6  C   UNL     1       1.362  -1.939   1.019  0.00  0.00    +0.120 C 
ATOM      7  N   UNL     1       1.067  -0.502   0.935  0.00  0.00    -0.296 N 
ATOM      8  C   UNL     1       1.508   0.347   1.885  0.00  0.00    +0.236 C 
ATOM      9  O   UNL     1       1.178   1.513   1.857  0.00  0.00    -0.274 OA
ENDROOT
BRANCH   5  10
ATOM     10  C   UNL     1       0.345  -4.198   0.866  0.00  0.00    +0.215 C 
ATOM     11  O   UNL     1       1.493  -4.588   0.910  0.00  0.00    -0.276 OA
ATOM     12  N   UNL     1      -0.665  -5.085   0.772  0.00  0.00    -0.329 N 
ATOM     13  H   UNL     1      -1.583  -4.773   0.737  0.00  0.00    +0.145 HD
ATOM     14  H   UNL     1      -0.474  -6.036   0.739  0.00  0.00    +0.145 HD
ENDBRANCH   5  10
BRANCH   8  15
ATOM     15  C   UNL     1       2.412  -0.154   2.982  0.00  0.00    +0.159 C 
ATOM     16  C   UNL     1       1.621  -1.075   3.914  0.00  0.00    +0.038 C 
BRANCH  15  17
ATOM     17  N   UNL     1       2.931   0.984   3.745  0.00  0.00    -0.270 N 
ATOM     18  C   UNL     1       4.096   0.872   4.413  0.00  0.00    +0.401 C 
ATOM     19  O   UNL     1       4.716  -0.173   4.382  0.00  0.00    -0.226 OA
ATOM     20  H   UNL     1       2.436   1.817   3.770  0.00  0.00    +0.153 HD
BRANCH  18  21
ATOM     21  O   UNL     1       4.573   1.917   5.114  0.00  0.00    -0.445 OA
BRANCH  21  22
ATOM     22  C   UNL     1       5.814   1.728   5.798  0.00  0.00    +0.107 C 
ATOM     23  C   UNL     1       6.906   1.380   4.785  0.00  0.00    +0.055 C 
ATOM     24  C   UNL     1       6.192   3.016   6.533  0.00  0.00    +0.055 C 
ATOM     25  C   UNL     1       5.671   0.588   6.807  0.00  0.00    +0.055 C 
ENDBRANCH  21  22
ENDBRANCH  18  21
ENDBRANCH  15  17
ENDBRANCH   8  15
TORSDOF 5
