REMARK  Name = ZINC11670608
REMARK  9 active torsions:
REMARK  status: ('A' for Active; 'I' for Inactive)
REMARK    1  A    between atoms: C_1  and  C_2
REMARK    2  A    between atoms: C_2  and  C_4
REMARK    3  A    between atoms: C_2  and  N_12
REMARK    4  A    between atoms: C_13  and  C_15
REMARK    5  A    between atoms: C_15  and  C_17
REMARK    6  A    between atoms: C_15  and  S_18
REMARK    7  A    between atoms: S_18  and  C_19
REMARK    8  A    between atoms: C_22  and  C_25
REMARK    9  A    between atoms: N_23  and  N_24
REMARK                            x       y       z     vdW  Elec       q    Type
REMARK                         _______ _______ _______ _____ _____    ______ ____
ROOT
ATOM      1  C   UNL     1       0.444  -0.634   4.162  0.00  0.00    +0.137 C 
ATOM      2  C   UNL     1       1.832  -1.135   3.758  0.00  0.00    +0.029 C 
ENDROOT
BRANCH   1   4
ATOM      3  N   UNL     1      -0.020   1.094   2.454  0.00  0.00    -0.308 N 
ATOM      4  C   UNL     1      -0.285  -0.134   2.941  0.00  0.00    +0.227 C 
ATOM      5  O   UNL     1      -1.109  -0.838   2.397  0.00  0.00    -0.275 OA
ATOM      6  H   UNL     1       0.639   1.657   2.889  0.00  0.00    +0.149 HD
BRANCH   3   8
ATOM      7  C   UNL     1      -0.013   1.086   0.008  0.00  0.00    +0.033 C 
ATOM      8  C   UNL     1      -0.729   1.579   1.267  0.00  0.00    +0.102 C 
BRANCH   8   9
ATOM      9  C   UNL     1      -0.749   3.086   1.275  0.00  0.00    -0.009 A 
ATOM     10  C   UNL     1       0.225   3.787   1.961  0.00  0.00    +0.008 A 
ATOM     11  C   UNL     1       0.210   5.169   1.964  0.00  0.00    +0.020 A 
ATOM     12  C   UNL     1      -0.787   5.852   1.290  0.00  0.00    +0.042 A 
ATOM     13  C   UNL     1      -1.765   5.151   0.609  0.00  0.00    +0.040 A 
ATOM     14  C   UNL     1      -1.746   3.768   0.601  0.00  0.00    +0.047 A 
ATOM     15 CL   UNL     1      -2.975   2.888  -0.254  0.00  0.00    -0.083 Cl
ATOM     16 CL   UNL     1      -0.809   7.588   1.300  0.00  0.00    -0.083 Cl
ENDBRANCH   8   9
ENDBRANCH   3   8
ENDBRANCH   1   4
BRANCH   1  17
ATOM     17  S   UNL     1      -0.492  -1.989   4.911  0.00  0.00    -0.072 S 
BRANCH  17  18
ATOM     18  C   UNL     1       0.477  -2.269   6.356  0.00  0.00    +0.209 A 
ATOM     19  N   UNL     1       1.564  -1.617   6.703  0.00  0.00    -0.120 NA
ATOM     20  N   UNL     1       2.020  -2.075   7.814  0.00  0.00    -0.123 NA
ATOM     21  C   UNL     1       1.250  -3.051   8.246  0.00  0.00    +0.217 A 
ATOM     22  N   UNL     1       0.235  -3.200   7.327  0.00  0.00    -0.221 N 
BRANCH  21  23
ATOM     23  C   UNL     1       1.436  -3.830   9.479  0.00  0.00    +0.173 A 
ATOM     24  C   UNL     1       2.256  -3.503  10.517  0.00  0.00    +0.053 A 
ATOM     25  C   UNL     1       2.118  -4.522  11.479  0.00  0.00    +0.042 A 
ATOM     26  C   UNL     1       1.239  -5.417  10.986  0.00  0.00    +0.196 A 
ATOM     27  O   UNL     1       0.829  -4.996   9.778  0.00  0.00    -0.460 OA
ENDBRANCH  21  23
BRANCH  22  28
ATOM     28  N   UNL     1      -0.797  -4.094   7.374  0.00  0.00    -0.294 N 
ATOM     29  H   UNL     1      -0.548  -4.958   6.916  0.00  0.00    +0.163 HD
ATOM     30  H   UNL     1      -1.087  -4.261   8.326  0.00  0.00    +0.163 HD
ENDBRANCH  22  28
ENDBRANCH  17  18
ENDBRANCH   1  17
TORSDOF 7
