REMARK  Name = ZINC24081902
REMARK  11 active torsions:
REMARK  status: ('A' for Active; 'I' for Inactive)
REMARK    1  A    between atoms: C_1  and  C_2
REMARK    2  A    between atoms: C_8  and  C_10
REMARK    3  A    between atoms: C_10  and  C_12
REMARK    4  A    between atoms: C_10  and  S_13
REMARK    5  A    between atoms: S_13  and  C_14
REMARK    6  A    between atoms: C_17  and  C_26
REMARK    7  A    between atoms: N_18  and  C_19
REMARK    8  A    between atoms: C_26  and  C_28
REMARK    9  A    between atoms: C_26  and  N_29
REMARK   10  A    between atoms: N_29  and  C_30
REMARK   11  A    between atoms: N_29  and  C_31
REMARK                            x       y       z     vdW  Elec       q    Type
REMARK                         _______ _______ _______ _____ _____    ______ ____
ROOT
ATOM      1  C   UNL     1      -3.290   4.431  -1.081  0.00  0.00    +0.197 A 
ATOM      2  N   UNL     1      -2.627   3.579  -1.829  0.00  0.00    -0.122 NA
ATOM      3  N   UNL     1      -1.709   3.008  -1.134  0.00  0.00    -0.135 NA
ATOM      4  C   UNL     1      -1.735   3.449   0.092  0.00  0.00    +0.125 A 
ATOM      5  N   UNL     1      -2.741   4.375   0.171  0.00  0.00    -0.275 N 
ENDROOT
BRANCH   5   6
ATOM      6  C   UNL     1      -3.127   5.113   1.299  0.00  0.00    +0.050 A 
ATOM      7  C   UNL     1      -3.664   4.464   2.403  0.00  0.00    +0.028 A 
ATOM      8  C   UNL     1      -4.040   5.192   3.515  0.00  0.00    +0.022 A 
ATOM      9  C   UNL     1      -3.891   6.568   3.526  0.00  0.00    +0.041 A 
ATOM     10  C   UNL     1      -3.361   7.217   2.424  0.00  0.00    +0.022 A 
ATOM     11  C   UNL     1      -2.979   6.493   1.312  0.00  0.00    +0.028 A 
ATOM     12 CL   UNL     1      -4.370   7.481   4.922  0.00  0.00    -0.084 Cl
ENDBRANCH   5   6
BRANCH   4  13
ATOM     13  C   UNL     1      -0.822   3.023   1.213  0.00  0.00    -0.003 C 
ATOM     14  C   UNL     1       0.559   3.650   1.013  0.00  0.00    -0.005 C 
BRANCH  13  15
ATOM     15  N   UNL     1      -0.700   1.560   1.217  0.00  0.00    +0.382 N 
ATOM     16  C   UNL     1      -0.013   1.086   0.008  0.00  0.00    -0.096 C 
ATOM     17  C   UNL     1      -0.016   1.091   2.429  0.00  0.00    -0.096 C 
ATOM     18  H   UNL     1      -1.715   1.136   1.216  0.00  0.00    -0.082 HD
ENDBRANCH  13  15
ENDBRANCH   4  13
BRANCH   1  19
ATOM     19  S   UNL     1      -4.631   5.452  -1.593  0.00  0.00    -0.073 S 
BRANCH  19  20
ATOM     20  C   UNL     1      -4.756   4.960  -3.330  0.00  0.00    +0.137 C 
ATOM     21  C   UNL     1      -3.484   5.377  -4.071  0.00  0.00    +0.029 C 
BRANCH  20  29
ATOM     22  C   UNL     1     -10.259   8.233  -6.103  0.00  0.00    +0.089 C 
ATOM     23  C   UNL     1      -9.274   7.092  -6.077  0.00  0.00    +0.136 A 
ATOM     24  C   UNL     1      -8.260   6.920  -5.199  0.00  0.00    +0.091 A 
ATOM     25  C   UNL     1      -7.649   5.707  -5.615  0.00  0.00    +0.168 A 
ATOM     26  N   UNL     1      -8.325   5.296  -6.655  0.00  0.00    -0.063 NA
ATOM     27  O   UNL     1      -9.232   6.051  -6.921  0.00  0.00    -0.358 OA
ATOM     28  N   UNL     1      -6.546   5.082  -5.033  0.00  0.00    -0.267 N 
ATOM     29  C   UNL     1      -5.948   5.635  -3.959  0.00  0.00    +0.231 C 
ATOM     30  O   UNL     1      -6.368   6.675  -3.499  0.00  0.00    -0.274 OA
ATOM     31  H   UNL     1      -6.165   4.138  -5.450  0.00  0.00    +0.156 HD
ENDBRANCH  20  29
ENDBRANCH  19  20
ENDBRANCH   1  19
TORSDOF 6
