REMARK  Name = ZINC09866911
REMARK  8 active torsions:
REMARK  status: ('A' for Active; 'I' for Inactive)
REMARK    1  A    between atoms: C_1  and  C_2
REMARK    2  A    between atoms: C_7  and  C_8
REMARK    3  A    between atoms: C_8  and  C_9
REMARK    4  A    between atoms: C_9  and  N_10
REMARK    5  A    between atoms: N_13  and  N_14
REMARK    6  A    between atoms: C_15  and  C_17
REMARK    7  A    between atoms: C_19  and  C_23
REMARK    8  A    between atoms: C_21  and  C_22
REMARK                            x       y       z     vdW  Elec       q    Type
REMARK                         _______ _______ _______ _____ _____    ______ ____
ROOT
ATOM      1  N   UNL     1      -1.411   1.113   4.171  0.00  0.00    -0.298 N 
ATOM      2  C   UNL     1      -2.574   1.519   4.718  0.00  0.00    +0.316 C 
ATOM      3  O   UNL     1      -3.625   1.284   4.154  0.00  0.00    -0.251 OA
ATOM      4  N   UNL     1      -2.572   2.187   5.888  0.00  0.00    -0.218 N 
ATOM      5  H   UNL     1      -0.572   1.301   4.621  0.00  0.00    +0.150 HD
ATOM      6  H   UNL     1      -3.409   2.479   6.281  0.00  0.00    +0.174 HD
ENDROOT
BRANCH   4   7
ATOM      7  N   UNL     1      -1.360   2.458   6.538  0.00  0.00    -0.229 N 
ATOM      8  C   UNL     1      -1.358   3.126   7.709  0.00  0.00    +0.263 C 
ATOM      9  O   UNL     1      -2.408   3.493   8.201  0.00  0.00    -0.269 OA
ATOM     10  H   UNL     1      -0.523   2.166   6.145  0.00  0.00    +0.173 HD
BRANCH   8  11
ATOM     11  C   UNL     1      -0.084   3.411   8.392  0.00  0.00    +0.079 A 
ATOM     12  C   UNL     1       1.267   3.050   7.939  0.00  0.00    +0.057 A 
ATOM     13  C   UNL     1       2.107   3.514   8.878  0.00  0.00    +0.103 A 
ATOM     14  O   UNL     1       1.396   4.115   9.845  0.00  0.00    -0.464 OA
ATOM     15  C   UNL     1       0.088   4.071   9.573  0.00  0.00    +0.114 A 
ATOM     16  C   UNL     1      -1.009   4.649  10.429  0.00  0.00    +0.087 C 
ATOM     17  C   UNL     1       3.608   3.381   8.850  0.00  0.00    +0.086 C 
ENDBRANCH   8  11
ENDBRANCH   4   7
BRANCH   1  18
ATOM     18  C   UNL     1      -1.413   0.387   2.899  0.00  0.00    +0.110 C 
BRANCH  18  19
ATOM     19  C   UNL     1       0.025   0.045   2.504  0.00  0.00    +0.054 C 
BRANCH  19  26
ATOM     20  C   UNL     1      -0.018   1.503   0.010  0.00  0.00    +0.044 C 
ATOM     21  C   UNL     1       0.002  -0.004   0.002  0.00  0.00    -0.047 A 
ATOM     22  C   UNL     1       0.006  -0.689  -1.199  0.00  0.00    +0.003 A 
ATOM     23  C   UNL     1       0.025  -2.071  -1.207  0.00  0.00    +0.000 A 
ATOM     24  C   UNL     1       0.040  -2.768  -0.013  0.00  0.00    +0.000 A 
ATOM     25  C   UNL     1       0.037  -2.084   1.188  0.00  0.00    +0.004 A 
ATOM     26  C   UNL     1       0.023  -0.702   1.195  0.00  0.00    -0.043 A 
ENDBRANCH  19  26
ENDBRANCH  18  19
ENDBRANCH   1  18
TORSDOF 5
