REMARK  Name = ZINC51638917
REMARK  5 active torsions:
REMARK  status: ('A' for Active; 'I' for Inactive)
REMARK    1  A    between atoms: C_4  and  C_19
REMARK    2  A    between atoms: C_6  and  N_7
REMARK    3  A    between atoms: C_8  and  C_10
REMARK    4  A    between atoms: C_15  and  N_16
REMARK    5  A    between atoms: N_16  and  N_17
REMARK                            x       y       z     vdW  Elec       q    Type
REMARK                         _______ _______ _______ _____ _____    ______ ____
ROOT
ATOM      1  N   UNL     1      -1.206  -0.722  -0.045  0.00  0.00    -0.281 N 
ATOM      2  C   UNL     1      -2.375  -0.067   0.100  0.00  0.00    +0.250 C 
ATOM      3  O   UNL     1      -2.392   1.149   0.121  0.00  0.00    -0.270 OA
ATOM      4  H   UNL     1      -1.199  -1.688  -0.137  0.00  0.00    +0.155 HD
ENDROOT
BRANCH   1  10
ATOM      5  C   UNL     1       0.133   1.145   0.700  0.00  0.00    +0.026 A 
ATOM      6  C   UNL     1       1.319   1.854   0.688  0.00  0.00    +0.041 A 
ATOM      7  C   UNL     1       2.381   1.420  -0.084  0.00  0.00    +0.141 A 
ATOM      8  C   UNL     1       2.254   0.259  -0.855  0.00  0.00    +0.089 A 
ATOM      9  C   UNL     1       1.055  -0.455  -0.840  0.00  0.00    +0.045 A 
ATOM     10  C   UNL     1      -0.002  -0.009  -0.063  0.00  0.00    +0.035 A 
ATOM     11  F   UNL     1       3.538   2.116  -0.094  0.00  0.00    -0.204 F 
BRANCH   8  12
ATOM     12  C   UNL     1       3.351  -0.194  -1.657  0.00  0.00    +0.102 C 
ATOM     13  N   UNL     1       4.221  -0.553  -2.293  0.00  0.00    -0.191 NA
ENDBRANCH   8  12
ENDBRANCH   1  10
BRANCH   2  14
ATOM     14  C   UNL     1      -3.633  -0.825   0.233  0.00  0.00    +0.060 A 
ATOM     15  C   UNL     1      -3.607  -2.218   0.331  0.00  0.00    +0.035 A 
ATOM     16  C   UNL     1      -4.787  -2.921   0.455  0.00  0.00    +0.042 A 
ATOM     17  C   UNL     1      -6.001  -2.251   0.484  0.00  0.00    +0.022 A 
ATOM     18  C   UNL     1      -6.042  -0.875   0.388  0.00  0.00    +0.026 A 
ATOM     19  C   UNL     1      -4.863  -0.150   0.269  0.00  0.00    +0.053 A 
ATOM     20 CL   UNL     1      -4.752  -4.652   0.577  0.00  0.00    -0.084 Cl
BRANCH  19  21
ATOM     21  N   UNL     1      -4.902   1.236   0.179  0.00  0.00    -0.282 N 
ATOM     22  H   UNL     1      -4.076   1.745   0.173  0.00  0.00    +0.166 HD
BRANCH  21  23
ATOM     23  N   UNL     1      -6.103   1.882   0.098  0.00  0.00    -0.256 NA
ATOM     24  H   UNL     1      -6.696   1.640   0.877  0.00  0.00    +0.140 HD
ATOM     25  H   UNL     1      -5.973   2.881   0.038  0.00  0.00    +0.140 HD
ENDBRANCH  21  23
ENDBRANCH  19  21
ENDBRANCH   2  14
TORSDOF 5
