REMARK  Name = ZINC38995102
REMARK  9 active torsions:
REMARK  status: ('A' for Active; 'I' for Inactive)
REMARK    1  A    between atoms: C_1  and  C_2
REMARK    2  A    between atoms: C_5  and  N_9
REMARK    3  A    between atoms: C_7  and  C_8
REMARK    4  A    between atoms: C_10  and  C_12
REMARK    5  A    between atoms: C_12  and  S_13
REMARK    6  A    between atoms: S_13  and  C_14
REMARK    7  A    between atoms: C_18  and  C_22
REMARK    8  A    between atoms: N_20  and  N_21
REMARK    9  A    between atoms: C_25  and  C_28
REMARK                            x       y       z     vdW  Elec       q    Type
REMARK                         _______ _______ _______ _____ _____    ______ ____
ROOT
ATOM      1  C   UNL     1      -0.359  -8.743  -2.723  0.00  0.00    +0.214 C 
ATOM      2  N   UNL     1      -1.497  -9.124  -1.845  0.00  0.00    -0.228 NA
ATOM      3  N   UNL     1      -1.133 -10.445  -1.325  0.00  0.00    -0.234 NA
ATOM      4  C   UNL     1       0.338 -10.546  -1.405  0.00  0.00    +0.185 C 
ATOM      5  N   UNL     1       0.821  -9.271  -1.988  0.00  0.00    -0.197 NA
ATOM      6  H   UNL     1      -1.613  -8.459  -1.095  0.00  0.00    +0.143 HD
ATOM      7  H   UNL     1      -1.576 -11.178  -1.859  0.00  0.00    +0.143 HD
ENDROOT
BRANCH   4   8
ATOM      8  C   UNL     1       0.926 -10.744  -0.006  0.00  0.00    +0.187 C 
ATOM      9  C   UNL     1       0.467 -12.064   0.587  0.00  0.00    +0.034 C 
ATOM     10  C   UNL     1      -0.219 -11.701   1.688  0.00  0.00    +0.091 C 
ATOM     11  N   UNL     1      -0.223 -10.349   1.820  0.00  0.00    -0.154 NA
ATOM     12  N   UNL     1       0.387  -9.745   0.930  0.00  0.00    -0.176 NA
BRANCH  10  13
ATOM     13  C   UNL     1      -0.877 -12.646   2.625  0.00  0.00    +0.002 A 
ATOM     14  C   UNL     1      -0.806 -14.019   2.397  0.00  0.00    +0.011 A 
ATOM     15  C   UNL     1      -1.420 -14.893   3.271  0.00  0.00    +0.020 A 
ATOM     16  C   UNL     1      -2.105 -14.408   4.372  0.00  0.00    +0.041 A 
ATOM     17  C   UNL     1      -2.178 -13.044   4.602  0.00  0.00    +0.020 A 
ATOM     18  C   UNL     1      -1.562 -12.162   3.738  0.00  0.00    +0.011 A 
ATOM     19 CL   UNL     1      -2.876 -15.512   5.467  0.00  0.00    -0.084 Cl
ENDBRANCH  10  13
ENDBRANCH   4   8
BRANCH   5  20
ATOM     20  N   UNL     1       1.939  -9.496  -2.889  0.00  0.00    -0.264 NA
ATOM     21  H   UNL     1       2.214  -8.639  -3.345  0.00  0.00    +0.137 HD
ATOM     22  H   UNL     1       2.719  -9.912  -2.402  0.00  0.00    +0.137 HD
ENDBRANCH   5  20
BRANCH   1  23
ATOM     23  S   UNL     1      -0.255  -6.941  -2.895  0.00  0.00    -0.115 S 
BRANCH  23  24
ATOM     24  C   UNL     1      -0.134  -6.343  -1.187  0.00  0.00    +0.168 C 
BRANCH  24  26
ATOM     25  N   UNL     1       0.059  -4.170  -0.021  0.00  0.00    -0.285 N 
ATOM     26  C   UNL     1      -0.040  -4.839  -1.187  0.00  0.00    +0.227 C 
ATOM     27  O   UNL     1      -0.054  -4.230  -2.236  0.00  0.00    -0.275 OA
ATOM     28  H   UNL     1       0.147  -4.658   0.812  0.00  0.00    +0.155 HD
BRANCH  25  33
ATOM     29  C   UNL     1      -0.041   1.502   0.014  0.00  0.00    +0.044 C 
ATOM     30  C   UNL     1      -0.015  -0.004   0.004  0.00  0.00    -0.047 A 
ATOM     31  C   UNL     1      -0.752  -0.702  -0.935  0.00  0.00    +0.005 A 
ATOM     32  C   UNL     1      -0.730  -2.082  -0.946  0.00  0.00    +0.023 A 
ATOM     33  C   UNL     1       0.034  -2.771  -0.013  0.00  0.00    +0.034 A 
ATOM     34  C   UNL     1       0.773  -2.068   0.929  0.00  0.00    +0.027 A 
ATOM     35  C   UNL     1       0.751  -0.686   0.932  0.00  0.00    -0.046 A 
ATOM     36  C   UNL     1       1.557   0.078   1.950  0.00  0.00    +0.044 C 
ENDBRANCH  25  33
ENDBRANCH  24  26
ENDBRANCH  23  24
ENDBRANCH   1  23
TORSDOF 7
