REMARK  Name = ZINC46585933
REMARK  5 active torsions:
REMARK  status: ('A' for Active; 'I' for Inactive)
REMARK    1  A    between atoms: C_7  and  C_13
REMARK    2  A    between atoms: C_13  and  O_15
REMARK    3  A    between atoms: O_15  and  C_16
REMARK    4  A    between atoms: C_16  and  C_17
REMARK    5  A    between atoms: N_19  and  C_20
REMARK                            x       y       z     vdW  Elec       q    Type
REMARK                         _______ _______ _______ _____ _____    ______ ____
ROOT
ATOM      1  O   UNL     1       0.223  -4.319  -0.021  0.00  0.00    -0.451 OA
ENDROOT
BRANCH   1   2
ATOM      2  C   UNL     1       0.116  -2.975  -0.013  0.00  0.00    +0.360 C 
ATOM      3  O   UNL     1      -0.982  -2.454   0.000  0.00  0.00    -0.243 OA
BRANCH   2  10
ATOM      4  C   UNL     1      -0.017   1.375   0.010  0.00  0.00    +0.001 A 
ATOM      5  C   UNL     1       1.167   2.102   0.002  0.00  0.00    +0.001 A 
ATOM      6  C   UNL     1       2.387   1.461  -0.013  0.00  0.00    +0.014 A 
ATOM      7  C   UNL     1       2.427   0.071  -0.021  0.00  0.00    +0.050 A 
ATOM      8  C   UNL     1       1.223  -0.670  -0.013  0.00  0.00    +0.021 A 
ATOM      9  C   UNL     1       0.002  -0.004   0.002  0.00  0.00    +0.011 A 
ATOM     10  C   UNL     1       1.330  -2.138  -0.021  0.00  0.00    +0.175 A 
ATOM     11  N   UNL     1       2.518  -2.693  -0.036  0.00  0.00    -0.164 NA
ATOM     12  N   UNL     1       3.618  -2.039  -0.043  0.00  0.00    -0.242 N 
ATOM     13  H   UNL     1       4.449  -2.539  -0.054  0.00  0.00    +0.192 HD
ATOM     14  C   UNL     1       3.684  -0.692  -0.037  0.00  0.00    +0.272 A 
ATOM     15  O   UNL     1       4.759  -0.121  -0.044  0.00  0.00    -0.266 OA
ENDBRANCH   2  10
ENDBRANCH   1   2
BRANCH   1  16
ATOM     16  C   UNL     1      -0.994  -5.067  -0.013  0.00  0.00    +0.328 C 
BRANCH  16  17
ATOM     17  C   UNL     1      -0.678  -6.540  -0.023  0.00  0.00    +0.251 C 
ATOM     18  O   UNL     1       0.476  -6.913  -0.037  0.00  0.00    -0.272 OA
ATOM     19  N   UNL     1      -1.678  -7.444  -0.017  0.00  0.00    -0.305 N 
ATOM     20  H   UNL     1      -2.601  -7.146  -0.007  0.00  0.00    +0.149 HD
BRANCH  19  21
ATOM     21  C   UNL     1      -1.371  -8.876  -0.028  0.00  0.00    +0.110 C 
ATOM     22  C   UNL     1      -2.536  -9.652   0.592  0.00  0.00    +0.068 C 
ATOM     23  C   UNL     1      -2.329 -11.144   0.305  0.00  0.00    +0.231 C 
ATOM     24  O   UNL     1      -2.410 -11.346  -1.107  0.00  0.00    -0.492 OA
ATOM     25  C   UNL     1      -1.677 -10.530  -1.908  0.00  0.00    +0.125 A 
ATOM     26  C   UNL     1      -1.157  -9.333  -1.448  0.00  0.00    +0.014 A 
ATOM     27  C   UNL     1      -0.420  -8.531  -2.303  0.00  0.00    +0.009 A 
ATOM     28  C   UNL     1      -0.201  -8.920  -3.610  0.00  0.00    +0.001 A 
ATOM     29  C   UNL     1      -0.719 -10.117  -4.070  0.00  0.00    +0.004 A 
ATOM     30  C   UNL     1      -1.452 -10.920  -3.224  0.00  0.00    +0.046 A 
ENDBRANCH  19  21
ENDBRANCH  16  17
ENDBRANCH   1  16
TORSDOF 5
