REMARK  Name = ZINC03450323
REMARK  8 active torsions:
REMARK  status: ('A' for Active; 'I' for Inactive)
REMARK    1  A    between atoms: C_1  and  N_2
REMARK    2  A    between atoms: C_6  and  C_8
REMARK    3  A    between atoms: C_8  and  O_9
REMARK    4  A    between atoms: O_9  and  C_10
REMARK    5  A    between atoms: C_10  and  C_12
REMARK    6  A    between atoms: C_15  and  N_20
REMARK    7  A    between atoms: C_17  and  O_18
REMARK    8  A    between atoms: O_18  and  C_19
REMARK                            x       y       z     vdW  Elec       q    Type
REMARK                         _______ _______ _______ _____ _____    ______ ____
ROOT
ATOM      1  C   UNL     1      -2.006   2.511   3.486  0.00  0.00    +0.343 C 
ATOM      2  O   UNL     1      -1.914   1.308   3.346  0.00  0.00    -0.245 OA
ENDROOT
BRANCH   1   3
ATOM      3  C   UNL     1      -1.437   3.415   2.474  0.00  0.00    +0.102 A 
ATOM      4  C   UNL     1      -1.537   4.802   2.635  0.00  0.00    +0.040 A 
ATOM      5  C   UNL     1      -1.013   5.640   1.694  0.00  0.00    +0.063 A 
ATOM      6  C   UNL     1      -0.372   5.122   0.568  0.00  0.00    +0.047 A 
ATOM      7  C   UNL     1      -0.260   3.748   0.397  0.00  0.00    +0.070 A 
ATOM      8  C   UNL     1      -0.787   2.889   1.346  0.00  0.00    +0.136 A 
ATOM      9 CL   UNL     1      -1.147   7.359   1.897  0.00  0.00    -0.082 Cl
BRANCH   6  10
ATOM     10  N   UNL     1       0.158   5.984  -0.386  0.00  0.00    -0.357 N 
ATOM     11  H   UNL     1       0.605   5.626  -1.168  0.00  0.00    +0.142 HD
ATOM     12  H   UNL     1       0.081   6.944  -0.268  0.00  0.00    +0.142 HD
ENDBRANCH   6  10
BRANCH   8  13
ATOM     13  O   UNL     1      -0.682   1.547   1.184  0.00  0.00    -0.494 OA
ATOM     14  C   UNL     1      -0.013   1.086   0.008  0.00  0.00    +0.277 C 
ENDBRANCH   8  13
ENDBRANCH   1   3
BRANCH   1  15
ATOM     15  O   UNL     1      -2.629   3.019   4.568  0.00  0.00    -0.452 OA
BRANCH  15  16
ATOM     16  C   UNL     1      -3.166   2.068   5.525  0.00  0.00    +0.328 C 
BRANCH  16  22
ATOM     17  C   UNL     1      -6.188   2.840  10.802  0.00  0.00    +0.129 C 
ATOM     18  N   UNL     1      -5.551   2.116   9.699  0.00  0.00    -0.302 N 
ATOM     19  C   UNL     1      -4.979   2.798   8.687  0.00  0.00    +0.306 C 
ATOM     20  O   UNL     1      -4.992   4.013   8.688  0.00  0.00    -0.252 OA
ATOM     21  N   UNL     1      -4.393   2.131   7.672  0.00  0.00    -0.237 N 
ATOM     22  C   UNL     1      -3.821   2.813   6.660  0.00  0.00    +0.258 C 
ATOM     23  O   UNL     1      -3.834   4.025   6.661  0.00  0.00    -0.272 OA
ATOM     24  H   UNL     1      -5.540   1.146   9.698  0.00  0.00    +0.150 HD
ATOM     25  H   UNL     1      -4.383   1.161   7.671  0.00  0.00    +0.159 HD
ENDBRANCH  16  22
ENDBRANCH  15  16
ENDBRANCH   1  15
TORSDOF 6
