REMARK  Name = ZINC11717638
REMARK  8 active torsions:
REMARK  status: ('A' for Active; 'I' for Inactive)
REMARK    1  A    between atoms: C_1  and  C_2
REMARK    2  A    between atoms: C_3  and  C_27
REMARK    3  A    between atoms: C_11  and  C_13
REMARK    4  A    between atoms: C_13  and  C_15
REMARK    5  A    between atoms: C_13  and  N_16
REMARK    6  A    between atoms: C_19  and  N_22
REMARK    7  A    between atoms: N_22  and  S_23
REMARK    8  A    between atoms: S_23  and  C_26
REMARK                            x       y       z     vdW  Elec       q    Type
REMARK                         _______ _______ _______ _____ _____    ______ ____
ROOT
ATOM      1  C   UNL     1       0.090  -3.432   4.547  0.00  0.00    -0.004 C 
ATOM      2  C   UNL     1      -0.992  -3.063   5.564  0.00  0.00    -0.005 C 
ENDROOT
BRANCH   1  13
ATOM      3  C   UNL     1      -0.068   1.517   0.027  0.00  0.00    +0.045 C 
ATOM      4  C   UNL     1      -0.150   0.012   0.020  0.00  0.00    -0.026 A 
ATOM      5  C   UNL     1      -0.290  -0.655  -1.137  0.00  0.00    -0.008 A 
ATOM      6  S   UNL     1      -0.336  -2.362  -0.626  0.00  0.00    -0.073 S 
ATOM      7  C   UNL     1      -0.166  -2.130   1.125  0.00  0.00    +0.116 A 
ATOM      8  C   UNL     1      -0.073  -0.733   1.262  0.00  0.00    +0.075 A 
ATOM      9  C   UNL     1       0.079  -0.252   2.603  0.00  0.00    +0.260 A 
ATOM     10  O   UNL     1       0.164   0.944   2.826  0.00  0.00    -0.267 OA
ATOM     11  N   UNL     1       0.127  -1.141   3.613  0.00  0.00    -0.312 N 
ATOM     12  H   UNL     1       0.229  -0.821   4.523  0.00  0.00    +0.170 HD
ATOM     13  C   UNL     1       0.033  -2.476   3.384  0.00  0.00    +0.097 A 
ATOM     14  N   UNL     1      -0.116  -2.945   2.174  0.00  0.00    -0.228 NA
ATOM     15  C   UNL     1      -0.386  -0.094  -2.533  0.00  0.00    +0.052 C 
ENDBRANCH   1  13
BRANCH   1  16
ATOM     16  N   UNL     1      -0.136  -4.802   4.067  0.00  0.00    +0.386 N 
ATOM     17  C   UNL     1      -0.241  -5.710   5.215  0.00  0.00    -0.076 C 
ATOM     18  C   UNL     1      -0.558  -7.125   4.723  0.00  0.00    +0.002 C 
ATOM     19  C   UNL     1       0.564  -7.599   3.795  0.00  0.00    +0.073 C 
ATOM     20  C   UNL     1       0.715  -6.604   2.641  0.00  0.00    +0.002 C 
ATOM     21  C   UNL     1       0.984  -5.209   3.210  0.00  0.00    -0.076 C 
ATOM     22  H   UNL     1      -0.994  -4.833   3.535  0.00  0.00    -0.081 HD
BRANCH  19  23
ATOM     23  N   UNL     1       0.231  -8.922   3.261  0.00  0.00    -0.192 NA
ATOM     24  H   UNL     1      -0.691  -9.147   3.063  0.00  0.00    +0.148 HD
BRANCH  23  25
ATOM     25  S   UNL     1       1.430 -10.034   2.995  0.00  0.00    +0.027 S 
ATOM     26  O   UNL     1       0.760 -11.168   2.463  0.00  0.00    -0.158 OA
ATOM     27  O   UNL     1       2.403  -9.340   2.226  0.00  0.00    -0.158 OA
ATOM     28  C   UNL     1       2.089 -10.412   4.642  0.00  0.00    +0.214 C 
ENDBRANCH  23  25
ENDBRANCH  19  23
ENDBRANCH   1  16
TORSDOF 4
