REMARK  Name = ZINC44498216
REMARK  6 active torsions:
REMARK  status: ('A' for Active; 'I' for Inactive)
REMARK    1  A    between atoms: C_1  and  C_2
REMARK    2  A    between atoms: C_2  and  C_4
REMARK    3  A    between atoms: C_2  and  N_10
REMARK    4  A    between atoms: N_7  and  C_9
REMARK    5  A    between atoms: N_10  and  C_11
REMARK    6  A    between atoms: C_20  and  O_21
REMARK                            x       y       z     vdW  Elec       q    Type
REMARK                         _______ _______ _______ _____ _____    ______ ____
ROOT
ATOM      1  C   UNL     1      -0.017  -0.613  -2.398  0.00  0.00    +0.035 A 
ATOM      2  C   UNL     1      -1.359  -0.299  -2.454  0.00  0.00    +0.023 A 
ATOM      3  C   UNL     1      -2.071  -0.431  -3.642  0.00  0.00    +0.003 A 
ATOM      4  C   UNL     1      -1.465  -0.873  -4.779  0.00  0.00    +0.012 A 
ATOM      5  C   UNL     1      -0.100  -1.203  -4.764  0.00  0.00    +0.025 A 
ATOM      6  C   UNL     1       0.637  -1.067  -3.563  0.00  0.00    +0.006 A 
ATOM      7  C   UNL     1       2.003  -1.393  -3.551  0.00  0.00    +0.010 A 
ATOM      8  C   UNL     1       2.604  -1.829  -4.692  0.00  0.00    +0.004 A 
ATOM      9  C   UNL     1       1.886  -1.959  -5.878  0.00  0.00    +0.046 A 
ATOM     10  C   UNL     1       0.553  -1.663  -5.926  0.00  0.00    +0.125 A 
ENDROOT
BRANCH   1  11
ATOM     11  N   UNL     1       0.688  -0.476  -1.203  0.00  0.00    -0.337 N 
ATOM     12  H   UNL     1       1.632  -0.695  -1.170  0.00  0.00    +0.147 HD
BRANCH  11  14
ATOM     13  C   UNL     1      -0.019   1.526   0.010  0.00  0.00    +0.033 C 
ATOM     14  C   UNL     1       0.002  -0.004   0.002  0.00  0.00    +0.101 C 
BRANCH  14  15
ATOM     15  C   UNL     1       0.731  -0.503   1.223  0.00  0.00    +0.010 A 
ATOM     16  C   UNL     1       2.119  -0.569   1.383  0.00  0.00    +0.139 A 
ATOM     17  N   UNL     1       2.370  -1.054   2.572  0.00  0.00    -0.180 NA
ATOM     18  N   UNL     1       1.149  -1.313   3.206  0.00  0.00    -0.274 N 
ATOM     19  C   UNL     1       0.158  -0.962   2.360  0.00  0.00    +0.113 A 
ATOM     20  C   UNL     1       0.977  -1.864   4.553  0.00  0.00    +0.172 C 
ENDBRANCH  14  15
ENDBRANCH  11  14
ENDBRANCH   1  11
BRANCH  10  21
ATOM     21  O   UNL     1      -0.135  -1.795  -7.090  0.00  0.00    -0.506 OA
ATOM     22  H   UNL     1      -0.131  -1.001  -7.642  0.00  0.00    +0.292 HD
ENDBRANCH  10  21
TORSDOF 4
