REMARK  Name = ZINC20276423
REMARK  6 active torsions:
REMARK  status: ('A' for Active; 'I' for Inactive)
REMARK    1  A    between atoms: C_1  and  C_2
REMARK    2  A    between atoms: C_2  and  C_3
REMARK    3  A    between atoms: C_2  and  C_4
REMARK    4  A    between atoms: N_8  and  C_17
REMARK    5  A    between atoms: C_11  and  N_16
REMARK    6  A    between atoms: C_17  and  C_18
REMARK                            x       y       z     vdW  Elec       q    Type
REMARK                         _______ _______ _______ _____ _____    ______ ____
ROOT
ATOM      1  C   UNL     1       4.111   1.451  -3.466  0.00  0.00    +0.262 C 
ATOM      2  C   UNL     1       3.664   1.723  -2.052  0.00  0.00    +0.261 C 
ATOM      3  O   UNL     1       3.988   2.753  -1.499  0.00  0.00    -0.271 OA
ATOM      4  N   UNL     1       2.902   0.816  -1.403  0.00  0.00    -0.261 N 
ATOM      5  C   UNL     1       2.517  -0.353  -2.075  0.00  0.00    +0.080 A 
ATOM      6  C   UNL     1       2.015  -1.437  -1.378  0.00  0.00    +0.050 A 
ATOM      7  C   UNL     1       1.634  -2.583  -2.064  0.00  0.00    +0.027 A 
ATOM      8  C   UNL     1       1.753  -2.637  -3.446  0.00  0.00    +0.026 A 
ATOM      9  C   UNL     1       2.250  -1.552  -4.144  0.00  0.00    +0.049 A 
ATOM     10  C   UNL     1       2.631  -0.408  -3.465  0.00  0.00    +0.143 A 
ATOM     11  O   UNL     1       3.123   0.667  -4.139  0.00  0.00    -0.477 OA
ENDROOT
BRANCH   1  13
ATOM     12  C   UNL     1       5.891   0.411  -4.878  0.00  0.00    +0.011 C 
ATOM     13  C   UNL     1       5.437   0.688  -3.443  0.00  0.00    +0.033 C 
ATOM     14  C   UNL     1       6.496   1.527  -2.726  0.00  0.00    +0.011 C 
ENDBRANCH   1  13
BRANCH   7  15
ATOM     15  N   UNL     1       1.130  -3.683  -1.362  0.00  0.00    -0.358 N 
ATOM     16  H   UNL     1       0.828  -4.591  -1.905  0.00  0.00    +0.142 HD
ATOM     17  H   UNL     1       1.035  -3.641  -0.267  0.00  0.00    +0.142 HD
ENDBRANCH   7  15
BRANCH   4  18
ATOM     18  C   UNL     1       2.490   1.046  -0.017  0.00  0.00    +0.149 C 
BRANCH  18  19
ATOM     19  C   UNL     1       1.175   1.783   0.000  0.00  0.00    -0.030 A 
ATOM     20  C   UNL     1      -0.013   1.076   0.008  0.00  0.00    +0.008 A 
ATOM     21  C   UNL     1      -1.219   1.750   0.017  0.00  0.00    +0.038 A 
ATOM     22  C   UNL     1      -1.237   3.135   0.031  0.00  0.00    +0.123 A 
ATOM     23  C   UNL     1      -0.047   3.842   0.023  0.00  0.00    +0.038 A 
ATOM     24  C   UNL     1       1.158   3.165   0.008  0.00  0.00    +0.008 A 
ATOM     25  F   UNL     1      -2.416   3.795   0.046  0.00  0.00    -0.205 F 
ENDBRANCH  18  19
ENDBRANCH   4  18
TORSDOF 4
