REMARK  Name = ZINC10993562
REMARK  4 active torsions:
REMARK  status: ('A' for Active; 'I' for Inactive)
REMARK    1  A    between atoms: C_8  and  N_12
REMARK    2  A    between atoms: N_12  and  C_13
REMARK    3  A    between atoms: C_13  and  C_14
REMARK    4  A    between atoms: C_17  and  C_19
REMARK                            x       y       z     vdW  Elec       q    Type
REMARK                         _______ _______ _______ _____ _____    ______ ____
ROOT
ATOM      1  N   UNL     1      -2.378  -2.677   0.012  0.00  0.00    -0.322 N 
ATOM      2  H   UNL     1      -2.393  -3.647   0.006  0.00  0.00    +0.148 HD
ENDROOT
BRANCH   1  10
ATOM      3  C   UNL     1       1.160   2.090   0.002  0.00  0.00    +0.005 A 
ATOM      4  C   UNL     1       2.372   1.384  -0.014  0.00  0.00    +0.018 A 
ATOM      5  C   UNL     1       2.371   0.033  -0.022  0.00  0.00    +0.096 A 
ATOM      6  N   UNL     1       1.200  -0.664  -0.013  0.00  0.00    -0.268 N 
ATOM      7  C   UNL     1       0.002  -0.004   0.002  0.00  0.00    +0.142 A 
ATOM      8  C   UNL     1      -0.017   1.404   0.010  0.00  0.00    +0.047 A 
ATOM      9  N   UNL     1      -1.148  -0.674   0.009  0.00  0.00    -0.215 NA
ATOM     10  C   UNL     1      -1.170  -2.005   0.004  0.00  0.00    +0.127 A 
ATOM     11  C   UNL     1       0.026  -2.717  -0.012  0.00  0.00    +0.114 A 
ATOM     12  C   UNL     1       1.228  -2.013  -0.021  0.00  0.00    +0.260 A 
ATOM     13  O   UNL     1       2.294  -2.610  -0.035  0.00  0.00    -0.267 OA
ENDBRANCH   1  10
BRANCH   1  14
ATOM     14  C   UNL     1      -3.635  -1.925   0.029  0.00  0.00    +0.177 C 
BRANCH  14  15
ATOM     15  C   UNL     1      -4.796  -2.887   0.035  0.00  0.00    +0.123 A 
ATOM     16  C   UNL     1      -5.386  -3.399   1.132  0.00  0.00    +0.047 A 
ATOM     17  C   UNL     1      -6.422  -4.244   0.688  0.00  0.00    +0.050 A 
ATOM     18  C   UNL     1      -6.401  -4.208  -0.671  0.00  0.00    +0.135 A 
ATOM     19  O   UNL     1      -5.409  -3.381  -1.053  0.00  0.00    -0.458 OA
BRANCH  18  20
ATOM     20  C   UNL     1      -7.308  -4.949  -1.573  0.00  0.00    +0.017 A 
ATOM     21  C   UNL     1      -8.295  -5.782  -1.044  0.00  0.00    +0.013 A 
ATOM     22  C   UNL     1      -9.141  -6.468  -1.890  0.00  0.00    +0.021 A 
ATOM     23  C   UNL     1      -9.007  -6.338  -3.263  0.00  0.00    +0.041 A 
ATOM     24  C   UNL     1      -8.027  -5.516  -3.793  0.00  0.00    +0.021 A 
ATOM     25  C   UNL     1      -7.178  -4.822  -2.957  0.00  0.00    +0.013 A 
ATOM     26 CL   UNL     1     -10.072  -7.209  -4.322  0.00  0.00    -0.084 Cl
ENDBRANCH  18  20
ENDBRANCH  14  15
ENDBRANCH   1  14
TORSDOF 4
