REMARK  Name = ZINC35343745
REMARK  3 active torsions:
REMARK  status: ('A' for Active; 'I' for Inactive)
REMARK    1  A    between atoms: C_3  and  O_12
REMARK    2  A    between atoms: C_8  and  N_11
REMARK    3  A    between atoms: O_12  and  C_13
REMARK                            x       y       z     vdW  Elec       q    Type
REMARK                         _______ _______ _______ _____ _____    ______ ____
ROOT
ATOM      1  C   UNL     1       0.004   1.389  -0.382  0.00  0.00    +0.015 A 
ATOM      2  C   UNL     1       1.191   2.055  -0.301  0.00  0.00    +0.068 A 
ATOM      3  C   UNL     1       2.378   1.341  -0.099  0.00  0.00    +0.221 A 
ATOM      4  N   UNL     1       2.384   0.031   0.018  0.00  0.00    -0.213 NA
ATOM      5  C   UNL     1       1.251  -0.678  -0.052  0.00  0.00    +0.075 A 
ATOM      6  C   UNL     1       0.016  -0.015  -0.256  0.00  0.00    +0.002 A 
ATOM      7  C   UNL     1      -1.170  -0.761  -0.329  0.00  0.00    +0.032 A 
ATOM      8  C   UNL     1      -1.117  -2.132  -0.202  0.00  0.00    +0.025 A 
ATOM      9  C   UNL     1       0.106  -2.781  -0.001  0.00  0.00    +0.025 A 
ATOM     10  C   UNL     1       1.267  -2.078   0.074  0.00  0.00    +0.030 A 
ENDROOT
BRANCH   8  11
ATOM     11  N   UNL     1      -2.295  -2.881  -0.274  0.00  0.00    -0.358 N 
ATOM     12  H   UNL     1      -3.145  -2.435  -0.413  0.00  0.00    +0.142 HD
ATOM     13  H   UNL     1      -2.263  -3.846  -0.184  0.00  0.00    +0.142 HD
ENDBRANCH   8  11
BRANCH   3  14
ATOM     14  O   UNL     1       3.551   2.017  -0.021  0.00  0.00    -0.437 OA
BRANCH  14  15
ATOM     15  C   UNL     1       4.699   1.294   0.068  0.00  0.00    +0.144 A 
ATOM     16  C   UNL     1       5.245   1.010   1.312  0.00  0.00    +0.050 A 
ATOM     17  C   UNL     1       6.412   0.276   1.401  0.00  0.00    +0.042 A 
ATOM     18  C   UNL     1       7.037  -0.177   0.251  0.00  0.00    +0.125 A 
ATOM     19  C   UNL     1       6.494   0.106  -0.990  0.00  0.00    +0.057 A 
ATOM     20  C   UNL     1       5.323   0.835  -1.083  0.00  0.00    +0.063 A 
ATOM     21 BR   UNL     1       4.577   1.215  -2.779  0.00  0.00    -0.046 Br
ATOM     22  F   UNL     1       8.178  -0.895   0.341  0.00  0.00    -0.205 F 
ENDBRANCH  14  15
ENDBRANCH   3  14
TORSDOF 3
