REMARK  Name = ZINC62427997
REMARK  8 active torsions:
REMARK  status: ('A' for Active; 'I' for Inactive)
REMARK    1  A    between atoms: C_1  and  C_2
REMARK    2  A    between atoms: C_3  and  C_19
REMARK    3  A    between atoms: C_8  and  N_18
REMARK    4  A    between atoms: C_9  and  C_12
REMARK    5  A    between atoms: C_12  and  O_14
REMARK    6  A    between atoms: O_14  and  C_15
REMARK    7  A    between atoms: C_15  and  C_16
REMARK    8  A    between atoms: C_15  and  C_17
REMARK                            x       y       z     vdW  Elec       q    Type
REMARK                         _______ _______ _______ _____ _____    ______ ____
ROOT
ATOM      1  C   UNL     1      -0.018   1.503   0.010  0.00  0.00    +0.066 C 
ATOM      2  C   UNL     1       0.002  -0.004   0.002  0.00  0.00    +0.051 A 
ATOM      3  C   UNL     1       0.006  -0.706  -1.159  0.00  0.00    +0.011 A 
ATOM      4  S   UNL     1       0.032  -2.379  -0.535  0.00  0.00    -0.053 S 
ATOM      5  C   UNL     1       0.035  -2.014   1.108  0.00  0.00    +0.197 A 
ATOM      6  N   UNL     1       0.023  -0.699   1.123  0.00  0.00    -0.226 NA
ATOM      7  N   UNL     1       0.052  -2.892   2.191  0.00  0.00    -0.174 N 
ATOM      8  C   UNL     1       0.049  -2.555   3.512  0.00  0.00    +0.157 A 
ATOM      9  C   UNL     1       0.071  -3.751   4.219  0.00  0.00    +0.211 A 
ATOM     10  N   UNL     1       0.087  -4.762   3.329  0.00  0.00    -0.120 NA
ATOM     11  N   UNL     1       0.070  -4.292   2.132  0.00  0.00    -0.056 NA
ATOM     12  C   UNL     1      -0.008  -0.211  -2.582  0.00  0.00    +0.053 C 
ENDROOT
BRANCH   8  13
ATOM     13  N   UNL     1       0.028  -1.281   4.040  0.00  0.00    -0.341 N 
ATOM     14  H   UNL     1       0.014  -0.512   3.450  0.00  0.00    +0.144 HD
ATOM     15  H   UNL     1       0.027  -1.155   5.002  0.00  0.00    +0.144 HD
ENDBRANCH   8  13
BRANCH   9  16
ATOM     16  C   UNL     1       0.076  -3.889   5.679  0.00  0.00    +0.363 C 
ATOM     17  O   UNL     1       0.060  -2.898   6.383  0.00  0.00    -0.243 OA
BRANCH  16  18
ATOM     18  O   UNL     1       0.098  -5.115   6.240  0.00  0.00    -0.457 OA
BRANCH  18  19
ATOM     19  C   UNL     1       0.102  -5.175   7.668  0.00  0.00    +0.171 C 
ATOM     20  C   UNL     1      -0.596  -6.457   8.127  0.00  0.00    +0.052 C 
ATOM     21  C   UNL     1       1.546  -5.171   8.175  0.00  0.00    +0.052 C 
ENDBRANCH  18  19
ENDBRANCH  16  18
ENDBRANCH   9  16
TORSDOF 4
