REMARK  Name = ZINC65461959
REMARK  8 active torsions:
REMARK  status: ('A' for Active; 'I' for Inactive)
REMARK    1  A    between atoms: C_1  and  C_2
REMARK    2  A    between atoms: N_13  and  C_14
REMARK    3  A    between atoms: C_14  and  C_15
REMARK    4  A    between atoms: C_17  and  O_24
REMARK    5  A    between atoms: C_18  and  O_23
REMARK    6  A    between atoms: C_19  and  O_21
REMARK    7  A    between atoms: O_21  and  C_22
REMARK    8  A    between atoms: O_24  and  C_25
REMARK                            x       y       z     vdW  Elec       q    Type
REMARK                         _______ _______ _______ _____ _____    ______ ____
ROOT
ATOM      1  C   UNL     1       2.836  -1.347   0.305  0.00  0.00    +0.033 C 
ATOM      2  C   UNL     1       2.172  -0.355   1.260  0.00  0.00    +0.105 C 
ATOM      3  C   UNL     1       2.521   1.074   0.848  0.00  0.00    -0.017 A 
ATOM      4  C   UNL     1       3.780   1.640   1.046  0.00  0.00    +0.013 A 
ATOM      5  C   UNL     1       4.019   2.911   0.650  0.00  0.00    +0.046 A 
ATOM      6  S   UNL     1       2.441   3.386  -0.038  0.00  0.00    -0.101 S 
ATOM      7  C   UNL     1       1.583   1.862   0.255  0.00  0.00    -0.004 A 
ATOM      8  C   UNL     1       0.166   1.518  -0.068  0.00  0.00    +0.062 C 
ATOM      9  C   UNL     1       0.002  -0.009  -0.001  0.00  0.00    +0.115 C 
ATOM     10  N   UNL     1       0.711  -0.498   1.190  0.00  0.00    -0.278 N 
ATOM     11  C   UNL     1       0.031  -1.070   2.203  0.00  0.00    +0.303 C 
ATOM     12  O   UNL     1      -1.184  -1.099   2.180  0.00  0.00    -0.253 OA
ATOM     13  N   UNL     1       0.698  -1.611   3.242  0.00  0.00    -0.295 N 
ATOM     14  H   UNL     1       1.663  -1.525   3.296  0.00  0.00    +0.151 HD
ENDROOT
BRANCH  13  15
ATOM     15  C   UNL     1      -0.034  -2.329   4.289  0.00  0.00    +0.141 C 
BRANCH  15  16
ATOM     16  C   UNL     1       0.937  -2.831   5.326  0.00  0.00    -0.023 A 
ATOM     17  C   UNL     1       1.511  -4.081   5.185  0.00  0.00    +0.054 A 
ATOM     18  C   UNL     1       2.404  -4.547   6.138  0.00  0.00    +0.165 A 
ATOM     19  C   UNL     1       2.723  -3.756   7.235  0.00  0.00    +0.201 A 
ATOM     20  C   UNL     1       2.144  -2.500   7.373  0.00  0.00    +0.165 A 
ATOM     21  C   UNL     1       1.256  -2.039   6.413  0.00  0.00    +0.054 A 
BRANCH  20  22
ATOM     22  O   UNL     1       2.453  -1.722   8.445  0.00  0.00    -0.491 OA
ATOM     23  C   UNL     1       1.820  -0.443   8.522  0.00  0.00    +0.277 C 
ENDBRANCH  20  22
BRANCH  19  24
ATOM     24  O   UNL     1       3.599  -4.210   8.172  0.00  0.00    -0.501 OA
ATOM     25  H   UNL     1       4.521  -3.984   7.991  0.00  0.00    +0.292 HD
ENDBRANCH  19  24
BRANCH  18  26
ATOM     26  O   UNL     1       2.968  -5.777   5.998  0.00  0.00    -0.491 OA
ATOM     27  C   UNL     1       2.594  -6.535   4.846  0.00  0.00    +0.277 C 
ENDBRANCH  18  26
ENDBRANCH  15  16
ENDBRANCH  13  15
TORSDOF 5
