REMARK  Name = ZINC14291491
REMARK  7 active torsions:
REMARK  status: ('A' for Active; 'I' for Inactive)
REMARK    1  A    between atoms: C_6  and  C_7
REMARK    2  A    between atoms: C_7  and  S_8
REMARK    3  A    between atoms: S_8  and  N_11
REMARK    4  A    between atoms: N_11  and  C_12
REMARK    5  A    between atoms: C_15  and  S_18
REMARK    6  A    between atoms: S_18  and  N_21
REMARK    7  A    between atoms: N_21  and  C_22
REMARK                            x       y       z     vdW  Elec       q    Type
REMARK                         _______ _______ _______ _____ _____    ______ ____
ROOT
ATOM      1  C   UNL     1      -4.354  -1.132  -0.903  0.00  0.00    +0.048 A 
ATOM      2  C   UNL     1      -4.141  -0.217   0.121  0.00  0.00    +0.026 A 
ATOM      3  C   UNL     1      -5.207   0.479   0.655  0.00  0.00    +0.031 A 
ATOM      4  C   UNL     1      -6.486   0.267   0.172  0.00  0.00    +0.111 A 
ATOM      5  C   UNL     1      -6.701  -0.642  -0.847  0.00  0.00    +0.031 A 
ATOM      6  C   UNL     1      -5.639  -1.338  -1.390  0.00  0.00    +0.026 A 
ENDROOT
BRANCH   4   7
ATOM      7  S   UNL     1      -7.843   1.157   0.858  0.00  0.00    +0.093 S 
ATOM      8  O   UNL     1      -9.006   0.380   0.607  0.00  0.00    -0.148 OA
ATOM      9  O   UNL     1      -7.454   1.545   2.168  0.00  0.00    -0.148 OA
BRANCH   7  10
ATOM     10  N   UNL     1      -8.007   2.552  -0.020  0.00  0.00    -0.070 NA
BRANCH  10  11
ATOM     11  C   UNL     1      -9.007   3.457   0.299  0.00  0.00    +0.201 A 
ATOM     12  N   UNL     1      -9.905   3.380   1.258  0.00  0.00    -0.231 NA
ATOM     13  C   UNL     1     -10.800   4.337   1.433  0.00  0.00    +0.120 A 
ATOM     14  C   UNL     1     -10.748   5.391   0.584  0.00  0.00    +0.068 A 
ATOM     15  S   UNL     1      -9.364   4.925  -0.442  0.00  0.00    -0.058 S 
ENDBRANCH  10  11
ENDBRANCH   7  10
ENDBRANCH   4   7
BRANCH   1  16
ATOM     16  N   UNL     1      -3.278  -1.837  -1.446  0.00  0.00    -0.220 N 
ATOM     17  H   UNL     1      -3.150  -2.773  -1.224  0.00  0.00    +0.173 HD
BRANCH  16  18
ATOM     18  S   UNL     1      -2.221  -1.077  -2.470  0.00  0.00    +0.047 S 
ATOM     19  O   UNL     1      -1.278  -2.078  -2.826  0.00  0.00    -0.155 OA
ATOM     20  O   UNL     1      -1.811   0.088  -1.768  0.00  0.00    -0.155 OA
BRANCH  18  21
ATOM     21  C   UNL     1      -3.219  -0.618  -3.913  0.00  0.00    +0.223 C 
BRANCH  21  27
ATOM     22  C   UNL     1      -1.656  -0.450  -5.861  0.00  0.00    +0.007 A 
ATOM     23  C   UNL     1      -0.885   0.289  -6.739  0.00  0.00    +0.020 A 
ATOM     24  C   UNL     1      -0.836   1.667  -6.625  0.00  0.00    +0.041 A 
ATOM     25  C   UNL     1      -1.558   2.305  -5.632  0.00  0.00    +0.020 A 
ATOM     26  C   UNL     1      -2.329   1.565  -4.755  0.00  0.00    +0.007 A 
ATOM     27  C   UNL     1      -2.378   0.188  -4.870  0.00  0.00    -0.025 A 
ATOM     28 CL   UNL     1       0.133   2.595  -7.726  0.00  0.00    -0.084 Cl
ENDBRANCH  21  27
ENDBRANCH  18  21
ENDBRANCH  16  18
ENDBRANCH   1  16
TORSDOF 7
