REMARK  Name = ZINC04302281
REMARK  7 active torsions:
REMARK  status: ('A' for Active; 'I' for Inactive)
REMARK    1  A    between atoms: C_1  and  C_2
REMARK    2  A    between atoms: C_5  and  N_9
REMARK    3  A    between atoms: C_6  and  C_8
REMARK    4  A    between atoms: C_10  and  C_12
REMARK    5  A    between atoms: C_12  and  N_64
REMARK    6  A    between atoms: C_15  and  O_33
REMARK    7  A    between atoms: C_22  and  C_24
REMARK                            x       y       z     vdW  Elec       q    Type
REMARK                         _______ _______ _______ _____ _____    ______ ____
ROOT
ATOM      1  C   UNL     1      -3.567   2.801  -1.177  0.00  0.00    -0.075 C 
ATOM      2  C   UNL     1      -4.556   3.968  -1.113  0.00  0.00    +0.016 C 
ATOM      3  C   UNL     1      -5.939   3.435  -0.732  0.00  0.00    +0.066 C 
ATOM      4  C   UNL     1      -6.927   4.596  -0.624  0.00  0.00    +0.035 C 
ATOM      5  C   UNL     1      -6.478   5.567   0.456  0.00  0.00    +0.003 C 
ATOM      6  C   UNL     1      -6.398   4.837   1.798  0.00  0.00    +0.000 C 
ATOM      7  C   UNL     1      -5.391   3.690   1.694  0.00  0.00    +0.005 C 
ATOM      8  C   UNL     1      -5.845   2.708   0.611  0.00  0.00    +0.011 C 
ATOM      9  C   UNL     1      -4.824   1.571   0.492  0.00  0.00    -0.031 C 
ATOM     10  N   UNL     1      -3.507   2.148   0.149  0.00  0.00    +0.390 N 
ATOM     11  H   UNL     1      -3.257   2.851   0.855  0.00  0.00    -0.080 HD
ENDROOT
BRANCH   9  12
ATOM     12  C   UNL     1      -4.715   0.853   1.812  0.00  0.00    -0.057 A 
ATOM     13  C   UNL     1      -3.943   1.389   2.827  0.00  0.00    +0.006 A 
ATOM     14  C   UNL     1      -3.845   0.737   4.042  0.00  0.00    +0.050 A 
ATOM     15  C   UNL     1      -4.510  -0.462   4.242  0.00  0.00    +0.166 A 
ATOM     16  C   UNL     1      -5.282  -1.005   3.218  0.00  0.00    +0.166 A 
ATOM     17  C   UNL     1      -5.381  -0.343   2.005  0.00  0.00    +0.051 A 
ATOM     18  O   UNL     1      -5.828  -2.176   3.657  0.00  0.00    -0.453 OA
ATOM     19  C   UNL     1      -5.057  -2.550   4.814  0.00  0.00    +0.466 C 
ATOM     20  O   UNL     1      -4.572  -1.293   5.323  0.00  0.00    -0.453 OA
ENDBRANCH   9  12
BRANCH   3  21
ATOM     21  O   UNL     1      -6.391   2.524  -1.736  0.00  0.00    -0.388 OA
ATOM     22  H   UNL     1      -6.468   2.915  -2.616  0.00  0.00    +0.210 HD
ENDBRANCH   3  21
BRANCH  10  23
ATOM     23  C   UNL     1      -2.478   1.088   0.142  0.00  0.00    +0.020 C 
BRANCH  23  25
ATOM     24  N   UNL     1      -0.011   0.966   0.007  0.00  0.00    -0.287 N 
ATOM     25  C   UNL     1      -1.121   1.731   0.017  0.00  0.00    +0.201 C 
ATOM     26  O   UNL     1      -1.027   2.937  -0.076  0.00  0.00    -0.278 OA
ATOM     27  H   UNL     1      -0.088  -0.001   0.016  0.00  0.00    +0.155 HD
BRANCH  24  32
ATOM     28  C   UNL     1       5.112   3.400  -0.107  0.00  0.00    +0.044 C 
ATOM     29  C   UNL     1       3.751   2.753  -0.076  0.00  0.00    -0.050 A 
ATOM     30  C   UNL     1       2.692   3.342  -0.743  0.00  0.00    +0.005 A 
ATOM     31  C   UNL     1       1.445   2.749  -0.722  0.00  0.00    +0.024 A 
ATOM     32  C   UNL     1       1.252   1.566  -0.021  0.00  0.00    +0.036 A 
ATOM     33  C   UNL     1       2.317   0.978   0.648  0.00  0.00    -0.029 A 
ATOM     34  C   UNL     1       3.564   1.573   0.619  0.00  0.00    +0.008 A 
ATOM     35  C   UNL     1       2.114  -0.309   1.406  0.00  0.00    +0.045 C 
ENDBRANCH  24  32
ENDBRANCH  23  25
ENDBRANCH  10  23
TORSDOF 5
