REMARK  Name = ZINC53954839
REMARK  10 active torsions:
REMARK  status: ('A' for Active; 'I' for Inactive)
REMARK    1  A    between atoms: C_1  and  C_2
REMARK    2  A    between atoms: C_2  and  C_25
REMARK    3  A    between atoms: C_4  and  N_10
REMARK    4  A    between atoms: C_6  and  C_8
REMARK    5  A    between atoms: C_6  and  C_9
REMARK    6  A    between atoms: N_13  and  C_14
REMARK    7  A    between atoms: C_17  and  O_22
REMARK    8  A    between atoms: C_19  and  O_20
REMARK    9  A    between atoms: O_20  and  C_21
REMARK   10  A    between atoms: O_22  and  C_23
REMARK                            x       y       z     vdW  Elec       q    Type
REMARK                         _______ _______ _______ _____ _____    ______ ____
ROOT
ATOM      1  N   UNL     1       2.625  -0.831  -2.616  0.00  0.00    -0.296 N 
ATOM      2  C   UNL     1       3.775  -0.339  -3.120  0.00  0.00    +0.304 C 
ATOM      3  O   UNL     1       4.378   0.530  -2.520  0.00  0.00    -0.252 OA
ATOM      4  N   UNL     1       4.255  -0.809  -4.288  0.00  0.00    -0.266 N 
ATOM      5  H   UNL     1       2.144  -1.524  -3.095  0.00  0.00    +0.151 HD
ATOM      6  H   UNL     1       3.808  -1.546  -4.734  0.00  0.00    +0.156 HD
ENDROOT
BRANCH   1  10
ATOM      7  C   UNL     1      -0.006   1.497   0.039  0.00  0.00    -0.010 C 
ATOM      8  C   UNL     1       0.023  -0.035   0.028  0.00  0.00    -0.072 C 
ATOM      9  C   UNL     1       0.589  -0.531  -1.298  0.00  0.00    +0.009 C 
ATOM     10  C   UNL     1       2.103  -0.318  -1.344  0.00  0.00    +0.072 C 
ATOM     11  C   UNL     1       2.728  -1.101  -0.190  0.00  0.00    +0.009 C 
ATOM     12  C   UNL     1       2.178  -0.611   1.146  0.00  0.00    -0.072 C 
ATOM     13  N   UNL     1       0.727  -0.558   1.185  0.00  0.00    +0.386 N 
ATOM     14  C   UNL     1       2.795   0.748   1.492  0.00  0.00    -0.010 C 
ATOM     15  C   UNL     1       2.643  -1.609   2.231  0.00  0.00    -0.010 C 
ATOM     16  C   UNL     1      -1.444  -0.517   0.113  0.00  0.00    -0.010 C 
ATOM     17  H   UNL     1       0.448  -0.011   2.006  0.00  0.00    -0.084 HD
ATOM     18  H   UNL     1       0.378  -1.504   1.373  0.00  0.00    -0.084 HD
ENDBRANCH   1  10
BRANCH   4  19
ATOM     19  C   UNL     1       5.400  -0.233  -4.859  0.00  0.00    +0.078 A 
ATOM     20  C   UNL     1       6.418   0.241  -4.046  0.00  0.00    +0.050 A 
ATOM     21  C   UNL     1       7.546   0.809  -4.609  0.00  0.00    +0.084 A 
ATOM     22  C   UNL     1       7.661   0.906  -5.988  0.00  0.00    +0.142 A 
ATOM     23  C   UNL     1       6.646   0.433  -6.805  0.00  0.00    +0.094 A 
ATOM     24  C   UNL     1       5.517  -0.142  -6.244  0.00  0.00    +0.145 A 
ATOM     25 CL   UNL     1       8.819   1.403  -3.588  0.00  0.00    -0.080 Cl
BRANCH  24  26
ATOM     26  O   UNL     1       4.523  -0.612  -7.044  0.00  0.00    -0.493 OA
ATOM     27  C   UNL     1       4.711  -0.486  -8.455  0.00  0.00    +0.277 C 
ENDBRANCH  24  26
BRANCH  22  28
ATOM     28  O   UNL     1       8.771   1.466  -6.540  0.00  0.00    -0.494 OA
ATOM     29  C   UNL     1       8.824   1.533  -7.966  0.00  0.00    +0.277 C 
ENDBRANCH  22  28
ENDBRANCH   4  19
TORSDOF 4
