REMARK  Name = ZINC17751646
REMARK  8 active torsions:
REMARK  status: ('A' for Active; 'I' for Inactive)
REMARK    1  A    between atoms: C_1  and  C_2
REMARK    2  A    between atoms: C_5  and  N_9
REMARK    3  A    between atoms: C_6  and  C_8
REMARK    4  A    between atoms: C_10  and  C_12
REMARK    5  A    between atoms: C_12  and  S_13
REMARK    6  A    between atoms: S_13  and  C_14
REMARK    7  A    between atoms: C_18  and  C_24
REMARK    8  A    between atoms: C_19  and  C_23
REMARK                            x       y       z     vdW  Elec       q    Type
REMARK                         _______ _______ _______ _____ _____    ______ ____
ROOT
ATOM      1  S   UNL     1      -0.255  -6.941  -2.895  0.00  0.00    -0.078 S 
ENDROOT
BRANCH   1   2
ATOM      2  C   UNL     1      -0.356  -8.692  -2.728  0.00  0.00    +0.171 A 
ATOM      3  N   UNL     1      -0.336  -9.226  -1.525  0.00  0.00    -0.185 NA
ATOM      4  C   UNL     1      -0.408 -10.545  -1.325  0.00  0.00    +0.282 A 
ATOM      5  C   UNL     1      -0.517 -11.451  -2.493  0.00  0.00    +0.075 A 
ATOM      6  C   UNL     1      -0.609 -12.899  -2.536  0.00  0.00    -0.026 A 
ATOM      7  C   UNL     1      -0.701 -13.514  -3.725  0.00  0.00    -0.008 A 
ATOM      8  S   UNL     1      -0.668 -12.163  -4.888  0.00  0.00    -0.075 S 
ATOM      9  C   UNL     1      -0.533 -10.819  -3.740  0.00  0.00    +0.092 A 
ATOM     10  N   UNL     1      -0.459  -9.464  -3.846  0.00  0.00    -0.328 N 
ATOM     11  C   UNL     1      -0.805 -14.991  -4.009  0.00  0.00    +0.052 C 
ATOM     12  C   UNL     1      -0.602 -13.701  -1.260  0.00  0.00    +0.045 C 
ATOM     13  O   UNL     1      -0.386 -10.999  -0.192  0.00  0.00    -0.265 OA
ATOM     14  H   UNL     1      -0.476  -9.046  -4.722  0.00  0.00    +0.168 HD
ENDBRANCH   1   2
BRANCH   1  15
ATOM     15  C   UNL     1      -0.134  -6.343  -1.187  0.00  0.00    +0.173 C 
BRANCH  15  17
ATOM     16  N   UNL     1       0.059  -4.170  -0.021  0.00  0.00    -0.285 N 
ATOM     17  C   UNL     1      -0.040  -4.839  -1.187  0.00  0.00    +0.227 C 
ATOM     18  O   UNL     1      -0.054  -4.230  -2.236  0.00  0.00    -0.275 OA
ATOM     19  H   UNL     1       0.135  -4.658   0.814  0.00  0.00    +0.155 HD
BRANCH  16  24
ATOM     20  C   UNL     1       0.025   1.503   0.005  0.00  0.00    +0.044 C 
ATOM     21  C   UNL     1       0.034  -0.004  -0.002  0.00  0.00    -0.050 A 
ATOM     22  C   UNL     1       0.632  -0.685  -1.046  0.00  0.00    +0.005 A 
ATOM     23  C   UNL     1       0.641  -2.066  -1.055  0.00  0.00    +0.024 A 
ATOM     24  C   UNL     1       0.051  -2.771  -0.014  0.00  0.00    +0.036 A 
ATOM     25  C   UNL     1      -0.548  -2.083   1.033  0.00  0.00    -0.029 A 
ATOM     26  C   UNL     1      -0.550  -0.702   1.039  0.00  0.00    +0.008 A 
ATOM     27  C   UNL     1      -1.190  -2.843   2.165  0.00  0.00    +0.045 C 
ENDBRANCH  16  24
ENDBRANCH  15  17
ENDBRANCH   1  15
TORSDOF 4
