REMARK  Name = ZINC13051393
REMARK  10 active torsions:
REMARK  status: ('A' for Active; 'I' for Inactive)
REMARK    1  A    between atoms: C_1  and  C_2
REMARK    2  A    between atoms: C_2  and  C_4
REMARK    3  A    between atoms: C_2  and  O_31
REMARK    4  A    between atoms: C_4  and  N_5
REMARK    5  A    between atoms: C_11  and  C_29
REMARK    6  A    between atoms: C_15  and  S_16
REMARK    7  A    between atoms: S_16  and  C_17
REMARK    8  A    between atoms: C_17  and  C_18
REMARK    9  A    between atoms: N_20  and  C_21
REMARK   10  A    between atoms: C_21  and  C_22
REMARK                            x       y       z     vdW  Elec       q    Type
REMARK                         _______ _______ _______ _____ _____    ______ ____
ROOT
ATOM      1  N   UNL     1       2.123   3.436   0.000  0.00  0.00    -0.285 N 
ATOM      2  C   UNL     1       3.442   3.737  -0.011  0.00  0.00    +0.262 A 
ATOM      3  O   UNL     1       3.826   4.892  -0.009  0.00  0.00    -0.267 OA
ATOM      4  C   UNL     1       4.396   2.617  -0.025  0.00  0.00    +0.065 A 
ATOM      5  C   UNL     1       5.775   2.829  -0.038  0.00  0.00    +0.016 A 
ATOM      6  C   UNL     1       6.627   1.762  -0.051  0.00  0.00    +0.016 A 
ATOM      7  C   UNL     1       6.131   0.453  -0.052  0.00  0.00    +0.065 A 
ATOM      8  C   UNL     1       4.761   0.218  -0.041  0.00  0.00    +0.043 A 
ATOM      9  C   UNL     1       3.879   1.302  -0.027  0.00  0.00    +0.080 A 
ATOM     10  N   UNL     1       2.537   1.121  -0.011  0.00  0.00    -0.223 NA
ATOM     11  C   UNL     1       1.708   2.135  -0.003  0.00  0.00    +0.173 A 
ENDROOT
BRANCH   7  12
ATOM     12  C   UNL     1       7.071  -0.690  -0.068  0.00  0.00    +0.387 C 
ATOM     13  O   UNL     1       6.646  -1.827  -0.070  0.00  0.00    -0.241 OA
ATOM     14  O   UNL     1       8.400  -0.468  -0.079  0.00  0.00    -0.241 OA
ENDBRANCH   7  12
BRANCH   1  15
ATOM     15  C   UNL     1       1.132   4.515   0.015  0.00  0.00    +0.158 C 
BRANCH  15  17
ATOM     16  C   UNL     1      -0.234   6.010   1.478  0.00  0.00    +0.039 C 
ATOM     17  C   UNL     1       0.801   4.883   1.463  0.00  0.00    +0.131 C 
BRANCH  17  18
ATOM     18  O   UNL     1       0.270   3.739   2.135  0.00  0.00    -0.390 OA
ATOM     19  H   UNL     1      -0.539   3.389   1.737  0.00  0.00    +0.210 HD
ENDBRANCH  17  18
ENDBRANCH  15  17
ENDBRANCH   1  15
BRANCH  11  20
ATOM     20  S   UNL     1      -0.022   1.806   0.012  0.00  0.00    -0.078 S 
BRANCH  20  21
ATOM     21  C   UNL     1       0.002  -0.004   0.002  0.00  0.00    +0.173 C 
BRANCH  21  22
ATOM     22  C   UNL     1      -1.412  -0.526   0.013  0.00  0.00    +0.224 C 
ATOM     23  O   UNL     1      -2.344   0.250   0.026  0.00  0.00    -0.275 OA
ATOM     24  N   UNL     1      -1.640  -1.854   0.008  0.00  0.00    -0.311 N 
ATOM     25  H   UNL     1      -0.894  -2.474  -0.003  0.00  0.00    +0.149 HD
BRANCH  24  26
ATOM     26  C   UNL     1      -3.014  -2.361   0.018  0.00  0.00    +0.139 C 
BRANCH  26  27
ATOM     27  C   UNL     1      -2.994  -3.868   0.010  0.00  0.00    -0.030 A 
ATOM     28  C   UNL     1      -3.002  -4.552  -1.191  0.00  0.00    +0.008 A 
ATOM     29  C   UNL     1      -2.978  -5.934  -1.200  0.00  0.00    +0.038 A 
ATOM     30  C   UNL     1      -2.957  -6.633  -0.005  0.00  0.00    +0.123 A 
ATOM     31  C   UNL     1      -2.955  -5.947   1.197  0.00  0.00    +0.038 A 
ATOM     32  C   UNL     1      -2.973  -4.565   1.204  0.00  0.00    +0.008 A 
ATOM     33  F   UNL     1      -2.939  -7.984  -0.013  0.00  0.00    -0.205 F 
ENDBRANCH  26  27
ENDBRANCH  24  26
ENDBRANCH  21  22
ENDBRANCH  20  21
ENDBRANCH  11  20
TORSDOF 9
