REMARK  Name = ZINC16012571
REMARK  7 active torsions:
REMARK  status: ('A' for Active; 'I' for Inactive)
REMARK    1  A    between atoms: C_1  and  C_2
REMARK    2  A    between atoms: C_2  and  C_3
REMARK    3  A    between atoms: C_6  and  N_9
REMARK    4  A    between atoms: C_14  and  C_33
REMARK    5  A    between atoms: C_26  and  C_31
REMARK    6  A    between atoms: C_33  and  C_34
REMARK    7  A    between atoms: C_34  and  C_35
REMARK                            x       y       z     vdW  Elec       q    Type
REMARK                         _______ _______ _______ _____ _____    ______ ____
ROOT
ATOM      1  N   UNL     1       2.747  -1.884   4.600  0.00  0.00    -0.210 N 
ATOM      2  C   UNL     1       4.050  -2.191   4.590  0.00  0.00    +0.232 C 
ATOM      3  O   UNL     1       4.782  -2.105   3.628  0.00  0.00    -0.274 OA
ATOM      4  C   UNL     1       4.466  -2.659   5.966  0.00  0.00    +0.107 C 
ATOM      5  C   UNL     1       4.806  -4.164   5.906  0.00  0.00    +0.068 C 
ATOM      6  N   UNL     1       4.119  -4.757   7.084  0.00  0.00    -0.295 NA
ATOM      7  C   UNL     1       2.835  -4.036   7.155  0.00  0.00    +0.136 C 
ATOM      8  C   UNL     1       3.151  -2.564   6.790  0.00  0.00    +0.123 C 
ATOM      9  C   UNL     1       2.146  -2.052   5.784  0.00  0.00    +0.233 C 
ATOM     10  O   UNL     1       0.976  -1.831   6.013  0.00  0.00    -0.274 OA
ATOM     11  C   UNL     1       2.220  -4.140   8.522  0.00  0.00    +0.004 A 
ATOM     12  C   UNL     1       2.642  -3.775   9.781  0.00  0.00    +0.009 A 
ATOM     13  C   UNL     1       1.832  -4.010  10.878  0.00  0.00    +0.021 A 
ATOM     14  C   UNL     1       0.598  -4.612  10.706  0.00  0.00    +0.046 A 
ATOM     15  C   UNL     1       0.171  -4.978   9.445  0.00  0.00    -0.011 A 
ATOM     16  C   UNL     1       0.980  -4.745   8.336  0.00  0.00    +0.043 A 
ATOM     17  N   UNL     1       0.774  -5.019   6.982  0.00  0.00    -0.283 N 
ATOM     18  C   UNL     1       1.817  -4.634   6.222  0.00  0.00    +0.243 C 
ATOM     19  O   UNL     1       1.916  -4.746   5.018  0.00  0.00    -0.273 OA
ATOM     20  C   UNL     1      -1.175  -5.633   9.269  0.00  0.00    +0.047 C 
ATOM     21 CL   UNL     1      -0.418  -4.908  12.082  0.00  0.00    -0.083 Cl
ATOM     22  H   UNL     1       3.971  -5.747   6.955  0.00  0.00    +0.123 HD
ATOM     23  H   UNL     1      -0.026  -5.439   6.631  0.00  0.00    +0.155 HD
ENDROOT
BRANCH   1  27
ATOM     24  C   UNL     1       0.732  -0.502   1.223  0.00  0.00    -0.048 A 
ATOM     25  C   UNL     1       0.924   0.339   2.304  0.00  0.00    +0.005 A 
ATOM     26  C   UNL     1       1.591  -0.117   3.425  0.00  0.00    +0.024 A 
ATOM     27  C   UNL     1       2.069  -1.419   3.465  0.00  0.00    +0.044 A 
ATOM     28  C   UNL     1       1.875  -2.261   2.378  0.00  0.00    +0.024 A 
ATOM     29  C   UNL     1       1.202  -1.801   1.262  0.00  0.00    +0.005 A 
BRANCH  24  31
ATOM     30  C   UNL     1      -1.495  -0.268   0.157  0.00  0.00    +0.009 C 
ATOM     31  C   UNL     1       0.004  -0.002   0.002  0.00  0.00    +0.032 C 
ENDBRANCH  24  31
ENDBRANCH   1  27
BRANCH   5  32
ATOM     32  C   UNL     1       6.318  -4.373   6.008  0.00  0.00    +0.028 C 
BRANCH  32  33
ATOM     33  C   UNL     1       6.642  -5.856   5.822  0.00  0.00    +0.097 C 
BRANCH  33  34
ATOM     34  C   UNL     1       8.131  -6.062   5.922  0.00  0.00    +0.211 C 
ATOM     35  O   UNL     1       8.862  -5.115   6.123  0.00  0.00    -0.276 OA
ATOM     36  N   UNL     1       8.652  -7.298   5.789  0.00  0.00    -0.329 N 
ATOM     37  H   UNL     1       8.067  -8.055   5.628  0.00  0.00    +0.145 HD
ATOM     38  H   UNL     1       9.610  -7.430   5.853  0.00  0.00    +0.145 HD
ENDBRANCH  33  34
ENDBRANCH  32  33
ENDBRANCH   5  32
TORSDOF 5
