REMARK  Name = ZINC40398606
REMARK  6 active torsions:
REMARK  status: ('A' for Active; 'I' for Inactive)
REMARK    1  A    between atoms: C_1  and  C_2
REMARK    2  A    between atoms: C_2  and  C_3
REMARK    3  A    between atoms: C_2  and  C_4
REMARK    4  A    between atoms: C_4  and  C_5
REMARK    5  A    between atoms: C_5  and  N_6
REMARK    6  A    between atoms: N_19  and  N_22
REMARK                            x       y       z     vdW  Elec       q    Type
REMARK                         _______ _______ _______ _____ _____    ______ ____
ROOT
ATOM      1  N   UNL     1       2.873  -0.545  -2.413  0.00  0.00    -0.315 N 
ATOM      2  C   UNL     1       3.452  -1.779  -2.400  0.00  0.00    +0.091 A 
ATOM      3  C   UNL     1       4.099  -2.286  -3.463  0.00  0.00    +0.046 A 
ATOM      4  C   UNL     1       4.197  -1.497  -4.693  0.00  0.00    +0.078 A 
ATOM      5  C   UNL     1       3.594  -0.212  -4.707  0.00  0.00    +0.066 A 
ATOM      6  C   UNL     1       2.905   0.252  -3.499  0.00  0.00    +0.261 A 
ATOM      7  O   UNL     1       2.373   1.347  -3.475  0.00  0.00    -0.267 OA
ATOM      8  C   UNL     1       3.664   0.571  -5.857  0.00  0.00    +0.030 A 
ATOM      9  C   UNL     1       4.336   0.044  -6.958  0.00  0.00    +0.067 A 
ATOM     10  C   UNL     1       4.917  -1.249  -6.875  0.00  0.00    +0.078 A 
ATOM     11  N   UNL     1       4.828  -1.965  -5.762  0.00  0.00    -0.246 NA
ATOM     12  C   UNL     1       5.613  -1.763  -8.056  0.00  0.00    +0.048 A 
ATOM     13  C   UNL     1       5.681  -1.010  -9.166  0.00  0.00    +0.113 A 
ATOM     14  N   UNL     1       5.124   0.232  -9.247  0.00  0.00    -0.240 N 
ATOM     15  C   UNL     1       4.463   0.790  -8.214  0.00  0.00    +0.277 A 
ATOM     16  O   UNL     1       3.978   1.902  -8.322  0.00  0.00    -0.265 OA
ENDROOT
BRANCH  14  17
ATOM     17  N   UNL     1       5.239   0.933 -10.414  0.00  0.00    -0.296 N 
ATOM     18  H   UNL     1       5.753   0.405 -11.103  0.00  0.00    +0.163 HD
ATOM     19  H   UNL     1       4.332   1.200 -10.766  0.00  0.00    +0.163 HD
ENDBRANCH  14  17
BRANCH   1  20
ATOM     20  C   UNL     1       2.187  -0.073  -1.207  0.00  0.00    +0.125 C 
BRANCH  20  21
ATOM     21  C   UNL     1       0.718  -0.497  -1.257  0.00  0.00    +0.024 C 
BRANCH  21  23
ATOM     22  C   UNL     1      -0.019   1.526   0.010  0.00  0.00    +0.007 C 
ATOM     23  C   UNL     1       0.002  -0.004   0.002  0.00  0.00    -0.016 C 
ATOM     24  C   UNL     1      -1.433  -0.534   0.013  0.00  0.00    +0.007 C 
ENDBRANCH  21  23
ENDBRANCH  20  21
ENDBRANCH   1  20
TORSDOF 4
