REMARK  Name = ZINC12706191
REMARK  6 active torsions:
REMARK  status: ('A' for Active; 'I' for Inactive)
REMARK    1  A    between atoms: C_1  and  C_2
REMARK    2  A    between atoms: C_7  and  N_8
REMARK    3  A    between atoms: C_10  and  C_20
REMARK    4  A    between atoms: C_15  and  O_19
REMARK    5  A    between atoms: N_22  and  C_23
REMARK    6  A    between atoms: C_23  and  C_24
REMARK                            x       y       z     vdW  Elec       q    Type
REMARK                         _______ _______ _______ _____ _____    ______ ____
ROOT
ATOM      1  N   UNL     1      -2.812   1.568   0.084  0.00  0.00    -0.212 NA
ATOM      2  C   UNL     1      -4.123   1.681   0.095  0.00  0.00    +0.233 A 
ATOM      3  C   UNL     1      -4.929   1.340  -1.094  0.00  0.00    +0.099 A 
ATOM      4  C   UNL     1      -6.247   0.960  -0.884  0.00  0.00    +0.030 A 
ATOM      5  C   UNL     1      -6.738   0.956   0.447  0.00  0.00    +0.018 A 
ATOM      6  C   UNL     1      -7.987   0.389   0.740  0.00  0.00    +0.015 A 
ATOM      7  C   UNL     1      -8.432   0.353   2.029  0.00  0.00    +0.046 A 
ATOM      8  C   UNL     1      -7.657   0.884   3.059  0.00  0.00    +0.120 A 
ATOM      9  C   UNL     1      -6.429   1.466   2.786  0.00  0.00    +0.092 A 
ATOM     10  C   UNL     1      -5.965   1.517   1.482  0.00  0.00    +0.141 A 
ATOM     11  O   UNL     1      -4.782   2.111   1.201  0.00  0.00    -0.437 OA
ENDROOT
BRANCH   1  18
ATOM     12  C   UNL     1      -2.420  -0.651   1.815  0.00  0.00    +0.046 C 
ATOM     13  C   UNL     1      -1.875   0.721   2.120  0.00  0.00    -0.025 A 
ATOM     14  C   UNL     1      -1.149   0.936   3.273  0.00  0.00    +0.005 A 
ATOM     15  C   UNL     1      -0.648   2.195   3.554  0.00  0.00    +0.000 A 
ATOM     16  C   UNL     1      -0.870   3.246   2.681  0.00  0.00    +0.002 A 
ATOM     17  C   UNL     1      -1.594   3.046   1.524  0.00  0.00    +0.028 A 
ATOM     18  C   UNL     1      -2.099   1.776   1.232  0.00  0.00    +0.071 A 
ENDBRANCH   1  18
BRANCH   3  19
ATOM     19  C   UNL     1      -4.357   1.401  -2.449  0.00  0.00    +0.249 C 
ATOM     20  O   UNL     1      -3.199   1.738  -2.606  0.00  0.00    -0.270 OA
ATOM     21  N   UNL     1      -5.117   1.084  -3.516  0.00  0.00    -0.309 N 
ATOM     22  H   UNL     1      -6.041   0.815  -3.391  0.00  0.00    +0.149 HD
BRANCH  21  23
ATOM     23  C   UNL     1      -4.548   1.144  -4.864  0.00  0.00    +0.136 C 
BRANCH  23  24
ATOM     24  C   UNL     1      -5.613   0.739  -5.886  0.00  0.00    +0.135 C 
ATOM     25  C   UNL     1      -5.011   0.728  -7.314  0.00  0.00    +0.035 C 
ATOM     26  C   UNL     1      -5.962  -0.273  -8.026  0.00  0.00    +0.031 C 
ATOM     27  C   UNL     1      -6.295  -1.270  -6.896  0.00  0.00    +0.160 C 
ATOM     28  O   UNL     1      -6.042  -0.611  -5.649  0.00  0.00    -0.375 OA
ENDBRANCH  23  24
ENDBRANCH  21  23
ENDBRANCH   3  19
BRANCH   8  29
ATOM     29  O   UNL     1      -8.109   0.831   4.337  0.00  0.00    -0.507 OA
ATOM     30  H   UNL     1      -8.634   1.599   4.601  0.00  0.00    +0.292 HD
ENDBRANCH   8  29
TORSDOF 5
