REMARK  Name = ZINC04721657
REMARK  8 active torsions:
REMARK  status: ('A' for Active; 'I' for Inactive)
REMARK    1  A    between atoms: C_1  and  C_2
REMARK    2  A    between atoms: C_2  and  C_3
REMARK    3  A    between atoms: C_3  and  N_4
REMARK    4  A    between atoms: C_11  and  C_23
REMARK    5  A    between atoms: C_13  and  C_19
REMARK    6  A    between atoms: C_13  and  C_21
REMARK    7  A    between atoms: C_14  and  N_18
REMARK    8  A    between atoms: C_15  and  C_16
REMARK                            x       y       z     vdW  Elec       q    Type
REMARK                         _______ _______ _______ _____ _____    ______ ____
ROOT
ATOM      1  N   UNL     1       4.633   1.378  -0.748  0.00  0.00    -0.298 NA
ATOM      2  C   UNL     1       4.711   0.018  -1.311  0.00  0.00    +0.112 C 
ATOM      3  C   UNL     1       3.443  -0.706  -0.931  0.00  0.00    -0.007 C 
ATOM      4  C   UNL     1       2.308  -0.039  -0.828  0.00  0.00    -0.026 C 
ATOM      5  C   UNL     1       2.194   1.429  -1.127  0.00  0.00    +0.044 C 
ATOM      6  C   UNL     1       3.521   2.114  -1.355  0.00  0.00    +0.093 C 
ATOM      7  C   UNL     1       1.393   2.082  -0.000  0.00  0.00    +0.068 C 
ATOM      8  C   UNL     1      -0.018   1.494   0.010  0.00  0.00    +0.188 C 
ATOM      9  C   UNL     1       0.002  -0.004   0.002  0.00  0.00    +0.054 C 
ATOM     10  C   UNL     1       1.072  -0.738  -0.397  0.00  0.00    +0.074 C 
ENDROOT
BRANCH   7  11
ATOM     11  C   UNL     1       1.319   3.570  -0.231  0.00  0.00    -0.034 A 
ATOM     12  C   UNL     1       1.821   4.451   0.708  0.00  0.00    +0.011 A 
ATOM     13  C   UNL     1       1.738   5.783   0.470  0.00  0.00    +0.045 A 
ATOM     14  S   UNL     1       0.931   5.824  -1.122  0.00  0.00    -0.105 S 
ATOM     15  C   UNL     1       0.764   4.063  -1.365  0.00  0.00    +0.049 A 
ENDBRANCH   7  11
BRANCH   9  16
ATOM     16  N   UNL     1      -1.118  -0.668   0.418  0.00  0.00    -0.358 N 
ATOM     17  H   UNL     1      -1.135  -1.768   0.424  0.00  0.00    +0.142 HD
ATOM     18  H   UNL     1      -2.002  -0.102   0.748  0.00  0.00    +0.142 HD
ENDBRANCH   9  16
BRANCH  10  19
ATOM     19  C   UNL     1       1.009  -2.169  -0.402  0.00  0.00    +0.101 C 
ATOM     20  N   UNL     1       0.959  -3.304  -0.406  0.00  0.00    -0.191 NA
ENDBRANCH  10  19
BRANCH   8  21
ATOM     21  C   UNL     1      -0.745   1.971  -1.178  0.00  0.00    +0.091 C 
ATOM     22  N   UNL     1      -1.305   2.338  -2.095  0.00  0.00    -0.194 NA
ENDBRANCH   8  21
BRANCH   8  23
ATOM     23  C   UNL     1      -0.722   1.958   1.217  0.00  0.00    +0.091 C 
ATOM     24  N   UNL     1      -1.265   2.315   2.149  0.00  0.00    -0.194 NA
ENDBRANCH   8  23
BRANCH   1  25
ATOM     25  C   UNL     1       5.901   2.096  -0.929  0.00  0.00    +0.084 C 
BRANCH  25  27
ATOM     26  C   UNL     1       8.384   1.942  -0.698  0.00  0.00    +0.005 C 
ATOM     27  C   UNL     1       7.063   1.194  -0.509  0.00  0.00    +0.012 C 
ENDBRANCH  25  27
ENDBRANCH   1  25
TORSDOF 7
