REMARK  Name = ZINC37624832
REMARK  4 active torsions:
REMARK  status: ('A' for Active; 'I' for Inactive)
REMARK    1  A    between atoms: C_1  and  C_2
REMARK    2  A    between atoms: C_5  and  C_8
REMARK    3  A    between atoms: C_8  and  C_10
REMARK    4  A    between atoms: C_13  and  C_16
REMARK                            x       y       z     vdW  Elec       q    Type
REMARK                         _______ _______ _______ _____ _____    ______ ____
ROOT
ATOM      1  C   UNL     1       0.052  -3.292   1.566  0.00  0.00    +0.225 C 
ATOM      2  O   UNL     1      -0.112  -3.132   2.763  0.00  0.00    -0.284 OA
ENDROOT
BRANCH   1   7
ATOM      3  C   UNL     1       1.323  -0.533  -2.458  0.00  0.00    +0.063 C 
ATOM      4  C   UNL     1       0.904  -0.921  -1.063  0.00  0.00    +0.013 A 
ATOM      5  C   UNL     1       0.645  -0.059  -0.050  0.00  0.00    +0.023 A 
ATOM      6  C   UNL     1       0.290  -0.812   1.074  0.00  0.00    +0.031 A 
ATOM      7  C   UNL     1       0.345  -2.140   0.706  0.00  0.00    +0.089 A 
ATOM      8  N   UNL     1       0.720  -2.189  -0.618  0.00  0.00    -0.356 N 
ATOM      9  H   UNL     1       0.836  -2.995  -1.144  0.00  0.00    +0.166 HD
ENDBRANCH   1   7
BRANCH   1  10
ATOM     10  C   UNL     1      -0.043  -4.636   0.986  0.00  0.00    +0.089 A 
ATOM     11  C   UNL     1      -0.051  -4.946  -0.358  0.00  0.00    +0.031 A 
ATOM     12  C   UNL     1      -0.154  -6.336  -0.459  0.00  0.00    +0.023 A 
ATOM     13  C   UNL     1      -0.206  -6.841   0.797  0.00  0.00    +0.013 A 
ATOM     14  N   UNL     1      -0.134  -5.819   1.684  0.00  0.00    -0.356 N 
ATOM     15  H   UNL     1      -0.147  -5.906   2.650  0.00  0.00    +0.166 HD
ATOM     16  C   UNL     1      -0.320  -8.302   1.150  0.00  0.00    +0.063 C 
ENDBRANCH   1  10
TORSDOF 2
