REMARK  Name = ZINC64058137
REMARK  7 active torsions:
REMARK  status: ('A' for Active; 'I' for Inactive)
REMARK    1  A    between atoms: C_1  and  O_2
REMARK    2  A    between atoms: O_2  and  C_3
REMARK    3  A    between atoms: C_8  and  C_13
REMARK    4  A    between atoms: C_13  and  N_14
REMARK    5  A    between atoms: C_15  and  C_17
REMARK    6  A    between atoms: C_17  and  C_18
REMARK    7  A    between atoms: N_25  and  C_26
REMARK                            x       y       z     vdW  Elec       q    Type
REMARK                         _______ _______ _______ _____ _____    ______ ____
ROOT
ATOM      1  C   UNL     1      -8.321  -5.207   2.577  0.00  0.00    +0.089 C 
ENDROOT
BRANCH   1   2
ATOM      2  C   UNL     1      -8.824  -5.848   3.871  0.00  0.00    +0.028 C 
ATOM      3  C   UNL     1     -10.327  -5.835   3.882  0.00  0.00    +0.200 C 
ATOM      4  O   UNL     1     -10.918  -6.109   2.859  0.00  0.00    -0.278 OA
ATOM      5  N   UNL     1     -11.038  -5.535   4.974  0.00  0.00    -0.318 N 
ATOM      6  C   UNL     1     -10.415  -5.167   6.243  0.00  0.00    +0.085 C 
ATOM      7  C   UNL     1      -8.947  -5.596   6.246  0.00  0.00    -0.058 C 
ATOM      8  N   UNL     1      -8.307  -5.096   5.021  0.00  0.00    +0.391 N 
ATOM      9  H   UNL     1     -12.007  -5.563   4.921  0.00  0.00    +0.149 HD
ATOM     10  H   UNL     1      -8.516  -4.115   4.905  0.00  0.00    -0.080 HD
BRANCH   8  11
ATOM     11  C   UNL     1      -6.853  -5.282   5.117  0.00  0.00    -0.059 C 
ATOM     12  C   UNL     1      -6.285  -4.543   6.347  0.00  0.00    +0.020 C 
ATOM     13  C   UNL     1      -4.925  -4.039   5.913  0.00  0.00    -0.046 A 
ATOM     14  C   UNL     1      -3.850  -3.597   6.666  0.00  0.00    +0.004 A 
ATOM     15  C   UNL     1      -2.691  -3.177   6.043  0.00  0.00    +0.000 A 
ATOM     16  C   UNL     1      -2.603  -3.199   4.664  0.00  0.00    +0.000 A 
ATOM     17  C   UNL     1      -3.674  -3.640   3.912  0.00  0.00    +0.004 A 
ATOM     18  C   UNL     1      -4.837  -4.061   4.534  0.00  0.00    -0.046 A 
ATOM     19  C   UNL     1      -6.131  -4.581   3.947  0.00  0.00    +0.020 C 
ENDBRANCH   8  11
ENDBRANCH   1   2
BRANCH   1  21
ATOM     20  N   UNL     1      -8.220  -2.942   1.588  0.00  0.00    -0.313 N 
ATOM     21  C   UNL     1      -8.681  -3.743   2.568  0.00  0.00    +0.212 C 
ATOM     22  O   UNL     1      -9.385  -3.287   3.444  0.00  0.00    -0.276 OA
ATOM     23  H   UNL     1      -7.718  -3.319   0.848  0.00  0.00    +0.149 HD
BRANCH  20  24
ATOM     24  C   UNL     1      -8.475  -1.500   1.640  0.00  0.00    +0.132 C 
BRANCH  24  30
ATOM     25  C   UNL     1      -9.821   1.876  -2.700  0.00  0.00    +0.121 A 
ATOM     26  C   UNL     1      -9.825   0.653  -3.393  0.00  0.00    +0.047 A 
ATOM     27  C   UNL     1      -9.313  -0.481  -2.869  0.00  0.00    +0.029 A 
ATOM     28  C   UNL     1      -8.724  -0.461  -1.526  0.00  0.00    +0.043 A 
ATOM     29  N   UNL     1      -8.171  -1.399  -0.797  0.00  0.00    -0.376 N 
ATOM     30  C   UNL     1      -7.752  -0.812   0.480  0.00  0.00    +0.120 C 
ATOM     31  C   UNL     1      -8.141   0.648   0.414  0.00  0.00    +0.009 C 
ATOM     32  C   UNL     1      -8.719   0.828  -0.795  0.00  0.00    -0.001 A 
ATOM     33  C   UNL     1      -9.297   2.002  -1.458  0.00  0.00    +0.055 A 
ATOM     34  H   UNL     1      -8.059  -2.326  -1.059  0.00  0.00    +0.160 HD
BRANCH  25  36
ATOM     35  C   UNL     1     -10.899   2.794  -4.611  0.00  0.00    +0.277 C 
ATOM     36  O   UNL     1     -10.357   2.972  -3.300  0.00  0.00    -0.495 OA
ENDBRANCH  25  36
ENDBRANCH  24  30
ENDBRANCH  20  24
ENDBRANCH   1  21
TORSDOF 6
