REMARK  Name = ZINC12908426
REMARK  13 active torsions:
REMARK  status: ('A' for Active; 'I' for Inactive)
REMARK    1  A    between atoms: C_1  and  C_2
REMARK    2  A    between atoms: C_2  and  C_3
REMARK    3  A    between atoms: C_3  and  C_4
REMARK    4  A    between atoms: C_4  and  N_5
REMARK    5  A    between atoms: C_6  and  N_33
REMARK    6  A    between atoms: C_7  and  N_14
REMARK    7  A    between atoms: N_14  and  C_15
REMARK    8  A    between atoms: C_15  and  C_16
REMARK    9  A    between atoms: C_16  and  C_17
REMARK   10  A    between atoms: C_16  and  C_18
REMARK   11  A    between atoms: C_19  and  C_21
REMARK   12  A    between atoms: C_22  and  C_32
REMARK   13  A    between atoms: C_25  and  C_26
REMARK                            x       y       z     vdW  Elec       q    Type
REMARK                         _______ _______ _______ _____ _____    ______ ____
ROOT
ATOM      1  N   UNL     1       0.799  -3.273  -6.123  0.00  0.00    -0.260 N 
ATOM      2  C   UNL     1      -0.412  -2.747  -6.393  0.00  0.00    +0.257 C 
ATOM      3  O   UNL     1      -1.134  -2.383  -5.483  0.00  0.00    -0.269 OA
ENDROOT
BRANCH   1   6
ATOM      4  N   UNL     1       2.866  -2.704  -3.138  0.00  0.00    -0.280 N 
ATOM      5  C   UNL     1       2.430  -2.649  -4.442  0.00  0.00    +0.127 A 
ATOM      6  C   UNL     1       1.272  -3.311  -4.794  0.00  0.00    +0.140 A 
ATOM      7  C   UNL     1       0.569  -4.023  -3.804  0.00  0.00    +0.277 A 
ATOM      8  O   UNL     1      -0.458  -4.617  -4.088  0.00  0.00    -0.266 OA
ATOM      9  N   UNL     1       1.038  -4.045  -2.542  0.00  0.00    -0.273 N 
ATOM     10  H   UNL     1       0.555  -4.536  -1.859  0.00  0.00    +0.173 HD
ATOM     11  C   UNL     1       2.172  -3.399  -2.218  0.00  0.00    +0.331 A 
ATOM     12  O   UNL     1       2.577  -3.440  -1.072  0.00  0.00    -0.246 OA
BRANCH   5  13
ATOM     13  N   UNL     1       3.141  -1.944  -5.383  0.00  0.00    -0.343 N 
ATOM     14  H   UNL     1       3.927  -1.440  -5.120  0.00  0.00    +0.144 HD
ATOM     15  H   UNL     1       2.857  -1.949  -6.311  0.00  0.00    +0.144 HD
ENDBRANCH   5  13
BRANCH   4  16
ATOM     16  C   UNL     1       4.094  -2.007  -2.751  0.00  0.00    +0.128 C 
BRANCH  16  17
ATOM     17  C   UNL     1       5.290  -2.945  -2.928  0.00  0.00    +0.021 C 
BRANCH  17  19
ATOM     18  C   UNL     1       7.770  -3.154  -2.701  0.00  0.00    +0.004 C 
ATOM     19  C   UNL     1       6.574  -2.216  -2.524  0.00  0.00    -0.002 C 
ENDBRANCH  17  19
ENDBRANCH  16  17
ENDBRANCH   4  16
ENDBRANCH   1   6
BRANCH   2  20
ATOM     20  C   UNL     1      -0.862  -2.612  -7.789  0.00  0.00    +0.106 A 
ATOM     21  C   UNL     1      -1.561  -3.535  -8.511  0.00  0.00    +0.147 A 
ATOM     22  O   UNL     1      -1.776  -3.036  -9.731  0.00  0.00    -0.359 OA
ATOM     23  N   UNL     1      -1.204  -1.746  -9.820  0.00  0.00    -0.077 NA
ATOM     24  C   UNL     1      -0.651  -1.454  -8.671  0.00  0.00    +0.126 A 
ATOM     25  C   UNL     1      -2.011  -4.885  -8.017  0.00  0.00    +0.090 C 
BRANCH  24  26
ATOM     26  C   UNL     1       0.057  -0.198  -8.325  0.00  0.00    +0.004 A 
ATOM     27  C   UNL     1      -0.027   0.319  -7.034  0.00  0.00    +0.010 A 
ATOM     28  C   UNL     1       0.635   1.489  -6.717  0.00  0.00    +0.001 A 
ATOM     29  C   UNL     1       1.380   2.147  -7.679  0.00  0.00    +0.000 A 
ATOM     30  C   UNL     1       1.466   1.638  -8.962  0.00  0.00    +0.001 A 
ATOM     31  C   UNL     1       0.813   0.467  -9.289  0.00  0.00    +0.010 A 
ENDBRANCH  24  26
ENDBRANCH   2  20
BRANCH   1  32
ATOM     32  C   UNL     1       1.625  -3.805  -7.209  0.00  0.00    +0.117 C 
BRANCH  32  33
ATOM     33  C   UNL     1       1.412  -5.316  -7.318  0.00  0.00    +0.001 C 
ATOM     34  C   UNL     1       2.142  -5.847  -8.554  0.00  0.00    +0.009 C 
ATOM     35  C   UNL     1       1.966  -6.000  -6.066  0.00  0.00    +0.009 C 
ENDBRANCH  32  33
ENDBRANCH   1  32
TORSDOF 9
