REMARK  Name = ZINC29552601
REMARK  5 active torsions:
REMARK  status: ('A' for Active; 'I' for Inactive)
REMARK    1  A    between atoms: C_1  and  C_2
REMARK    2  A    between atoms: N_14  and  C_15
REMARK    3  A    between atoms: C_18  and  O_21
REMARK    4  A    between atoms: O_21  and  C_22
REMARK    5  A    between atoms: C_27  and  C_28
REMARK                            x       y       z     vdW  Elec       q    Type
REMARK                         _______ _______ _______ _____ _____    ______ ____
ROOT
ATOM      1  C   UNL     1      -8.007   1.327  -0.060  0.00  0.00    +0.045 C 
ATOM      2  C   UNL     1      -6.512   1.133  -0.043  0.00  0.00    -0.036 A 
ATOM      3  C   UNL     1      -5.979  -0.137   0.080  0.00  0.00    +0.010 A 
ATOM      4  C   UNL     1      -4.609  -0.316   0.094  0.00  0.00    -0.024 A 
ATOM      5  C   UNL     1      -3.757   0.772  -0.013  0.00  0.00    +0.042 A 
ATOM      6  C   UNL     1      -4.301   2.051  -0.136  0.00  0.00    +0.039 A 
ATOM      7  C   UNL     1      -5.670   2.225  -0.150  0.00  0.00    +0.023 A 
ATOM      8 BR   UNL     1      -6.397   3.963  -0.319  0.00  0.00    -0.050 Br
ATOM      9  N   UNL     1      -2.415   0.380   0.023  0.00  0.00    -0.255 N 
ATOM     10  C   UNL     1      -2.320  -1.076   0.158  0.00  0.00    +0.120 C 
ATOM     11  C   UNL     1      -3.775  -1.571   0.214  0.00  0.00    +0.056 C 
ATOM     12  C   UNL     1      -1.362   1.218  -0.061  0.00  0.00    +0.311 C 
ATOM     13  O   UNL     1      -1.546   2.414  -0.177  0.00  0.00    -0.252 OA
ATOM     14  N   UNL     1      -0.107   0.730  -0.016  0.00  0.00    -0.268 N 
ATOM     15  H   UNL     1       0.060  -0.358  -0.006  0.00  0.00    +0.156 HD
ENDROOT
BRANCH  14  16
ATOM     16  C   UNL     1       0.985   1.607   0.018  0.00  0.00    +0.053 A 
ATOM     17  C   UNL     1       0.842   2.892   0.538  0.00  0.00    +0.030 A 
ATOM     18  C   UNL     1       1.947   3.724   0.552  0.00  0.00    +0.069 A 
ATOM     19  C   UNL     1       3.155   3.254   0.052  0.00  0.00    +0.221 A 
ATOM     20  N   UNL     1       3.255   2.028  -0.434  0.00  0.00    -0.219 NA
ATOM     21  C   UNL     1       2.224   1.206  -0.459  0.00  0.00    +0.138 A 
BRANCH  19  22
ATOM     22  O   UNL     1       4.245   4.063   0.062  0.00  0.00    -0.436 OA
BRANCH  22  23
ATOM     23  C   UNL     1       5.381   3.609  -0.530  0.00  0.00    +0.151 A 
ATOM     24  C   UNL     1       6.409   3.068   0.236  0.00  0.00    +0.049 A 
ATOM     25  C   UNL     1       7.545   2.614  -0.413  0.00  0.00    +0.023 A 
ATOM     26  C   UNL     1       7.626   2.723  -1.789  0.00  0.00    +0.111 A 
ATOM     27  N   UNL     1       6.636   3.247  -2.485  0.00  0.00    -0.257 NA
ATOM     28  C   UNL     1       5.536   3.685  -1.907  0.00  0.00    +0.080 A 
ATOM     29  C   UNL     1       4.434   4.274  -2.749  0.00  0.00    +0.069 C 
ENDBRANCH  22  23
ENDBRANCH  19  22
ENDBRANCH  14  16
TORSDOF 3
