REMARK  Name = ZINC12777141
REMARK  14 active torsions:
REMARK  status: ('A' for Active; 'I' for Inactive)
REMARK    1  A    between atoms: C_1  and  C_2
REMARK    2  A    between atoms: C_2  and  C_3
REMARK    3  A    between atoms: C_3  and  C_4
REMARK    4  A    between atoms: C_4  and  N_5
REMARK    5  A    between atoms: C_6  and  N_33
REMARK    6  A    between atoms: C_7  and  N_14
REMARK    7  A    between atoms: N_14  and  C_15
REMARK    8  A    between atoms: C_20  and  C_22
REMARK    9  A    between atoms: C_22  and  N_70
REMARK   10  A    between atoms: C_23  and  N_70
REMARK   11  A    between atoms: C_24  and  C_25
REMARK   12  A    between atoms: C_24  and  N_70
REMARK   13  A    between atoms: C_28  and  C_32
REMARK   14  A    between atoms: C_30  and  C_31
REMARK                            x       y       z     vdW  Elec       q    Type
REMARK                         _______ _______ _______ _____ _____    ______ ____
ROOT
ATOM      1  N   UNL     1      -4.758   1.852  -3.291  0.00  0.00    -0.263 N 
ATOM      2  C   UNL     1      -3.421   1.974  -3.430  0.00  0.00    +0.204 C 
ATOM      3  O   UNL     1      -2.699   1.877  -2.460  0.00  0.00    -0.277 OA
ENDROOT
BRANCH   1   6
ATOM      4  N   UNL     1      -6.375   0.866  -6.440  0.00  0.00    -0.280 N 
ATOM      5  C   UNL     1      -5.551   0.826  -5.338  0.00  0.00    +0.127 A 
ATOM      6  C   UNL     1      -5.590   1.864  -4.431  0.00  0.00    +0.140 A 
ATOM      7  C   UNL     1      -6.477   2.933  -4.658  0.00  0.00    +0.277 A 
ATOM      8  O   UNL     1      -6.534   3.861  -3.869  0.00  0.00    -0.266 OA
ATOM      9  N   UNL     1      -7.258   2.926  -5.755  0.00  0.00    -0.273 N 
ATOM     10  H   UNL     1      -7.883   3.689  -5.922  0.00  0.00    +0.173 HD
ATOM     11  C   UNL     1      -7.207   1.905  -6.629  0.00  0.00    +0.331 A 
ATOM     12  O   UNL     1      -7.927   1.923  -7.609  0.00  0.00    -0.246 OA
BRANCH   5  13
ATOM     13  N   UNL     1      -4.701  -0.236  -5.145  0.00  0.00    -0.343 N 
ATOM     14  H   UNL     1      -4.183  -0.300  -4.327  0.00  0.00    +0.144 HD
ATOM     15  H   UNL     1      -4.620  -0.923  -5.825  0.00  0.00    +0.144 HD
ENDBRANCH   5  13
BRANCH   4  16
ATOM     16  C   UNL     1      -6.344  -0.230  -7.412  0.00  0.00    +0.128 C 
BRANCH  16  17
ATOM     17  C   UNL     1      -7.361  -1.299  -7.008  0.00  0.00    +0.021 C 
BRANCH  17  19
ATOM     18  C   UNL     1      -8.346  -3.512  -7.619  0.00  0.00    +0.004 C 
ATOM     19  C   UNL     1      -7.329  -2.443  -8.023  0.00  0.00    -0.002 C 
ENDBRANCH  17  19
ENDBRANCH  16  17
ENDBRANCH   4  16
ENDBRANCH   1   6
BRANCH   1  20
ATOM     20  C   UNL     1      -5.345   1.706  -1.957  0.00  0.00    +0.082 C 
ATOM     21  C   UNL     1      -4.956   2.909  -1.074  0.00  0.00    +0.023 C 
ATOM     22  C   UNL     1      -4.741   2.294   0.332  0.00  0.00    +0.002 C 
ATOM     23  C   UNL     1      -4.067   0.936   0.013  0.00  0.00    +0.002 C 
ATOM     24  C   UNL     1      -4.781   0.452  -1.266  0.00  0.00    +0.023 C 
ENDBRANCH   1  20
BRANCH   2  25
ATOM     25  C   UNL     1      -2.825   2.230  -4.790  0.00  0.00    +0.019 C 
BRANCH  25  27
ATOM     26  C   UNL     1      -0.859   0.892  -4.337  0.00  0.00    -0.095 C 
ATOM     27  N   UNL     1      -1.352   2.245  -4.670  0.00  0.00    +0.386 N 
ATOM     28  H   UNL     1      -1.085   2.892  -3.919  0.00  0.00    -0.081 HD
BRANCH  27  29
ATOM     29  C   UNL     1      -0.747   2.704  -5.938  0.00  0.00    -0.042 C 
BRANCH  29  30
ATOM     30  C   UNL     1       0.724   2.946  -5.714  0.00  0.00    -0.061 A 
ATOM     31  C   UNL     1       1.656   2.067  -6.234  0.00  0.00    +0.002 A 
ATOM     32  C   UNL     1       3.005   2.292  -6.035  0.00  0.00    +0.003 A 
ATOM     33  C   UNL     1       3.422   3.396  -5.314  0.00  0.00    -0.050 A 
ATOM     34  C   UNL     1       2.491   4.274  -4.795  0.00  0.00    +0.007 A 
ATOM     35  C   UNL     1       1.141   4.049  -4.994  0.00  0.00    -0.049 A 
ATOM     36  C   UNL     1       0.126   5.007  -4.427  0.00  0.00    +0.044 C 
ATOM     37  C   UNL     1       4.893   3.641  -5.097  0.00  0.00    +0.044 C 
ENDBRANCH  29  30
ENDBRANCH  27  29
ENDBRANCH  25  27
ENDBRANCH   2  25
TORSDOF 10
