REMARK  Name = ZINC59599026
REMARK  10 active torsions:
REMARK  status: ('A' for Active; 'I' for Inactive)
REMARK    1  A    between atoms: C_1  and  C_2
REMARK    2  A    between atoms: C_2  and  O_3
REMARK    3  A    between atoms: O_3  and  C_4
REMARK    4  A    between atoms: C_10  and  C_11
REMARK    5  A    between atoms: C_14  and  O_17
REMARK    6  A    between atoms: O_17  and  C_18
REMARK    7  A    between atoms: C_19  and  N_28
REMARK    8  A    between atoms: N_20  and  C_27
REMARK    9  A    between atoms: N_23  and  C_26
REMARK   10  A    between atoms: N_31  and  C_32
REMARK                            x       y       z     vdW  Elec       q    Type
REMARK                         _______ _______ _______ _____ _____    ______ ____
ROOT
ATOM      1  C   UNL     1       4.011  -2.495   6.634  0.00  0.00    -0.024 A 
ATOM      2  C   UNL     1       4.161  -3.878   6.473  0.00  0.00    +0.011 A 
ATOM      3  C   UNL     1       4.633  -4.643   7.515  0.00  0.00    +0.047 A 
ATOM      4  C   UNL     1       4.960  -4.045   8.727  0.00  0.00    +0.129 A 
ATOM      5  C   UNL     1       4.813  -2.672   8.893  0.00  0.00    +0.047 A 
ATOM      6  C   UNL     1       4.348  -1.897   7.854  0.00  0.00    +0.011 A 
ENDROOT
BRANCH   1  13
ATOM      7  C   UNL     1       1.108  -2.046   1.158  0.00  0.00    +0.346 C 
ATOM      8  O   UNL     1       0.412  -2.880   0.363  0.00  0.00    -0.245 OA
ATOM      9  C   UNL     1       1.592  -2.495   2.381  0.00  0.00    +0.139 C 
ATOM     10  C   UNL     1       1.371  -3.870   2.849  0.00  0.00    +0.120 C 
ATOM     11  S   UNL     1       2.180  -3.918   4.434  0.00  0.00    -0.065 S 
ATOM     12  C   UNL     1       2.793  -2.249   4.525  0.00  0.00    +0.062 C 
ATOM     13  C   UNL     1       3.509  -1.674   5.525  0.00  0.00    +0.027 C 
ATOM     14  C   UNL     1       2.349  -1.641   3.264  0.00  0.00    +0.209 C 
ATOM     15  O   UNL     1       2.601  -0.481   2.981  0.00  0.00    -0.286 OA
ATOM     16  N   UNL     1       0.722  -4.842   2.237  0.00  0.00    -0.240 NA
BRANCH  16  17
ATOM     17  C   UNL     1       0.615  -6.069   2.828  0.00  0.00    +0.065 A 
ATOM     18  C   UNL     1       1.730  -6.659   3.429  0.00  0.00    +0.028 A 
ATOM     19  C   UNL     1       1.613  -7.898   4.024  0.00  0.00    +0.002 A 
ATOM     20  C   UNL     1       0.397  -8.557   4.026  0.00  0.00    +0.000 A 
ATOM     21  C   UNL     1      -0.712  -7.979   3.431  0.00  0.00    +0.002 A 
ATOM     22  C   UNL     1      -0.613  -6.738   2.838  0.00  0.00    +0.028 A 
ENDBRANCH  16  17
BRANCH   7  23
ATOM     23  O   UNL     1       1.334  -0.779   0.769  0.00  0.00    -0.461 OA
BRANCH  23  25
ATOM     24  C   UNL     1       1.163   1.078  -0.768  0.00  0.00    +0.048 C 
ATOM     25  C   UNL     1       0.807  -0.385  -0.500  0.00  0.00    +0.229 C 
ENDBRANCH  23  25
ENDBRANCH   7  23
ENDBRANCH   1  13
BRANCH   4  26
ATOM     26  O   UNL     1       5.425  -4.803   9.752  0.00  0.00    -0.447 OA
BRANCH  26  27
ATOM     27  C   UNL     1       5.843  -4.166  10.882  0.00  0.00    +0.230 A 
ATOM     28  C   UNL     1       5.143  -4.292  12.051  0.00  0.00    +0.149 A 
ATOM     29  N   UNL     1       5.586  -3.638  13.177  0.00  0.00    -0.282 N 
ATOM     30  C   UNL     1       6.697  -2.881  13.131  0.00  0.00    +0.333 A 
ATOM     31  O   UNL     1       7.074  -2.310  14.136  0.00  0.00    -0.246 OA
ATOM     32  N   UNL     1       7.399  -2.746  11.991  0.00  0.00    -0.261 N 
ATOM     33  C   UNL     1       7.005  -3.373  10.865  0.00  0.00    +0.301 A 
ATOM     34  O   UNL     1       7.648  -3.250   9.837  0.00  0.00    -0.263 OA
ATOM     35  C   UNL     1       8.604  -1.914  11.974  0.00  0.00    +0.157 C 
ATOM     36  C   UNL     1       4.844  -3.767  14.433  0.00  0.00    +0.155 C 
BRANCH  28  37
ATOM     37  N   UNL     1       4.007  -5.065  12.099  0.00  0.00    -0.341 N 
ATOM     38  H   UNL     1       3.735  -5.577  11.321  0.00  0.00    +0.144 HD
ATOM     39  H   UNL     1       3.476  -5.097  12.911  0.00  0.00    +0.144 HD
ENDBRANCH  28  37
ENDBRANCH  26  27
ENDBRANCH   4  26
TORSDOF 7
