REMARK  Name = ZINC21990622
REMARK  5 active torsions:
REMARK  status: ('A' for Active; 'I' for Inactive)
REMARK    1  A    between atoms: C_4  and  C_7
REMARK    2  A    between atoms: C_7  and  C_9
REMARK    3  A    between atoms: C_7  and  O_20
REMARK    4  A    between atoms: C_12  and  C_18
REMARK    5  A    between atoms: C_14  and  N_15
REMARK                            x       y       z     vdW  Elec       q    Type
REMARK                         _______ _______ _______ _____ _____    ______ ____
ROOT
ATOM      1  C   UNL     1      -1.128   3.636   0.153  0.00  0.00    +0.015 A 
ATOM      2  C   UNL     1      -0.272   4.723   0.204  0.00  0.00    +0.010 A 
ATOM      3  C   UNL     1       1.092   4.528   0.273  0.00  0.00    +0.019 A 
ATOM      4  C   UNL     1       1.608   3.231   0.293  0.00  0.00    +0.054 A 
ATOM      5  C   UNL     1       0.739   2.139   0.242  0.00  0.00    +0.052 A 
ATOM      6  C   UNL     1      -0.622   2.349   0.167  0.00  0.00    +0.133 A 
ENDROOT
BRANCH   6   7
ATOM      7  N   UNL     1      -1.545   1.193   0.106  0.00  0.00    +0.057 N 
ATOM      8  O   UNL     1      -1.114   0.062   0.246  0.00  0.00    -0.126 OA
ATOM      9  O   UNL     1      -2.735   1.372  -0.083  0.00  0.00    -0.126 OA
ENDBRANCH   6   7
BRANCH   4  10
ATOM     10  C   UNL     1       3.023   3.021   0.365  0.00  0.00    +0.099 C 
ATOM     11  N   UNL     1       4.145   2.854   0.422  0.00  0.00    -0.191 NA
ENDBRANCH   4  10
BRANCH   1  12
ATOM     12  C   UNL     1      -2.616   3.857   0.077  0.00  0.00    +0.177 C 
BRANCH  12  16
ATOM     13  C   UNL     1      -4.292   3.635   4.000  0.00  0.00    +0.000 A 
ATOM     14  C   UNL     1      -4.576   2.651   3.070  0.00  0.00    +0.000 A 
ATOM     15  C   UNL     1      -4.033   2.723   1.801  0.00  0.00    +0.006 A 
ATOM     16  C   UNL     1      -3.208   3.779   1.461  0.00  0.00    -0.015 A 
ATOM     17  C   UNL     1      -2.920   4.759   2.392  0.00  0.00    +0.006 A 
ATOM     18  C   UNL     1      -3.466   4.689   3.660  0.00  0.00    +0.000 A 
ENDBRANCH  12  16
BRANCH  12  19
ATOM     19  O   UNL     1      -2.879   5.146  -0.481  0.00  0.00    -0.382 OA
ATOM     20  H   UNL     1      -2.521   5.391  -1.492  0.00  0.00    +0.211 HD
ENDBRANCH  12  19
ENDBRANCH   1  12
TORSDOF 5
