REMARK  Name = ZINC39898013
REMARK  9 active torsions:
REMARK  status: ('A' for Active; 'I' for Inactive)
REMARK    1  A    between atoms: C_1  and  C_2
REMARK    2  A    between atoms: C_2  and  C_3
REMARK    3  A    between atoms: C_2  and  C_4
REMARK    4  A    between atoms: C_7  and  C_10
REMARK    5  A    between atoms: C_13  and  C_24
REMARK    6  A    between atoms: N_20  and  C_21
REMARK    7  A    between atoms: C_21  and  C_22
REMARK    8  A    between atoms: C_22  and  O_23
REMARK    9  A    between atoms: C_29  and  O_30
REMARK                            x       y       z     vdW  Elec       q    Type
REMARK                         _______ _______ _______ _____ _____    ______ ____
ROOT
ATOM      1  C   UNL     1       2.807  -1.741   4.725  0.00  0.00    +0.141 C 
ATOM      2  C   UNL     1       3.261  -3.137   4.398  0.00  0.00    +0.035 A 
ATOM      3  C   UNL     1       4.046  -3.962   3.585  0.00  0.00    +0.102 A 
ATOM      4  N   UNL     1       3.866  -5.203   3.993  0.00  0.00    -0.173 NA
ATOM      5  N   UNL     1       3.047  -5.243   4.982  0.00  0.00    -0.272 N 
ATOM      6  H   UNL     1       2.768  -6.051   5.442  0.00  0.00    +0.189 HD
ATOM      7  C   UNL     1       2.627  -3.981   5.290  0.00  0.00    +0.126 A 
ATOM      8  C   UNL     1       1.782  -3.172   6.177  0.00  0.00    +0.266 C 
ATOM      9  O   UNL     1       1.092  -3.618   7.074  0.00  0.00    -0.268 OA
ATOM     10  N   UNL     1       1.880  -1.868   5.857  0.00  0.00    -0.283 N 
ENDROOT
BRANCH   3  11
ATOM     11  C   UNL     1       4.919  -3.521   2.469  0.00  0.00    +0.045 A 
ATOM     12  C   UNL     1       5.114  -2.164   2.228  0.00  0.00    +0.033 A 
ATOM     13  C   UNL     1       5.927  -1.758   1.188  0.00  0.00    +0.042 A 
ATOM     14  C   UNL     1       6.549  -2.698   0.383  0.00  0.00    +0.023 A 
ATOM     15  C   UNL     1       6.361  -4.048   0.615  0.00  0.00    +0.047 A 
ATOM     16  C   UNL     1       5.553  -4.467   1.659  0.00  0.00    +0.126 A 
ATOM     17 CL   UNL     1       6.169  -0.066   0.887  0.00  0.00    -0.084 Cl
BRANCH  16  18
ATOM     18  O   UNL     1       5.372  -5.794   1.891  0.00  0.00    -0.506 OA
ATOM     19  H   UNL     1       4.624  -6.178   1.413  0.00  0.00    +0.292 HD
ENDBRANCH  16  18
ENDBRANCH   3  11
BRANCH   1  23
ATOM     20  C   UNL     1       0.799  -0.022   1.370  0.00  0.00    -0.045 A 
ATOM     21  C   UNL     1       0.231  -1.086   2.044  0.00  0.00    +0.004 A 
ATOM     22  C   UNL     1       0.881  -1.643   3.130  0.00  0.00    +0.006 A 
ATOM     23  C   UNL     1       2.099  -1.135   3.541  0.00  0.00    -0.022 A 
ATOM     24  C   UNL     1       2.668  -0.071   2.866  0.00  0.00    +0.006 A 
ATOM     25  C   UNL     1       2.020   0.483   1.777  0.00  0.00    +0.004 A 
BRANCH  20  27
ATOM     26  C   UNL     1      -0.104  -0.482  -0.894  0.00  0.00    +0.012 C 
ATOM     27  C   UNL     1       0.091   0.585   0.186  0.00  0.00    +0.013 C 
ATOM     28  C   UNL     1      -1.273   1.119   0.627  0.00  0.00    +0.012 C 
ENDBRANCH  20  27
ENDBRANCH   1  23
BRANCH  10  29
ATOM     29  C   UNL     1       1.183  -0.765   6.524  0.00  0.00    +0.137 C 
BRANCH  29  30
ATOM     30  C   UNL     1      -0.218  -0.613   5.928  0.00  0.00    +0.175 C 
BRANCH  30  31
ATOM     31  O   UNL     1      -0.993  -1.776   6.228  0.00  0.00    -0.393 OA
ATOM     32  H   UNL     1      -1.894  -1.748   5.880  0.00  0.00    +0.209 HD
ENDBRANCH  30  31
ENDBRANCH  29  30
ENDBRANCH  10  29
TORSDOF 7
