REMARK  Name = ZINC50641037
REMARK  6 active torsions:
REMARK  status: ('A' for Active; 'I' for Inactive)
REMARK    1  A    between atoms: C_1  and  C_2
REMARK    2  A    between atoms: C_8  and  N_10
REMARK    3  A    between atoms: N_10  and  S_11
REMARK    4  A    between atoms: S_11  and  C_14
REMARK    5  A    between atoms: C_16  and  N_21
REMARK    6  A    between atoms: C_19  and  N_20
REMARK                            x       y       z     vdW  Elec       q    Type
REMARK                         _______ _______ _______ _____ _____    ______ ____
ROOT
ATOM      1  S   UNL     1       2.772   0.472   2.602  0.00  0.00    +0.060 S 
ATOM      2  O   UNL     1       4.031   1.088   2.368  0.00  0.00    -0.153 OA
ATOM      3  O   UNL     1       1.682   1.167   3.192  0.00  0.00    -0.153 OA
ENDROOT
BRANCH   1   4
ATOM      4  C   UNL     1       3.080  -0.936   3.615  0.00  0.00    +0.128 A 
ATOM      5  C   UNL     1       2.336  -1.140   4.761  0.00  0.00    +0.063 A 
ATOM      6  C   UNL     1       2.577  -2.244   5.557  0.00  0.00    +0.128 A 
ATOM      7  C   UNL     1       3.563  -3.149   5.209  0.00  0.00    +0.034 A 
ATOM      8  C   UNL     1       4.311  -2.952   4.064  0.00  0.00    +0.027 A 
ATOM      9  C   UNL     1       4.067  -1.846   3.260  0.00  0.00    +0.051 A 
BRANCH   9  10
ATOM     10  N   UNL     1       4.818  -1.646   2.099  0.00  0.00    -0.356 N 
ATOM     11  H   UNL     1       4.616  -0.900   1.513  0.00  0.00    +0.142 HD
ATOM     12  H   UNL     1       5.541  -2.254   1.878  0.00  0.00    +0.142 HD
ENDBRANCH   9  10
BRANCH   6  13
ATOM     13  N   UNL     1       1.778  -2.459   6.784  0.00  0.00    +0.056 N 
ATOM     14  O   UNL     1       0.916  -1.669   7.090  0.00  0.00    -0.126 OA
ATOM     15  O   UNL     1       1.988  -3.424   7.481  0.00  0.00    -0.126 OA
ENDBRANCH   6  13
ENDBRANCH   1   4
BRANCH   1  16
ATOM     16  N   UNL     1       2.239  -0.086   1.137  0.00  0.00    -0.187 NA
ATOM     17  H   UNL     1       2.768   0.066   0.338  0.00  0.00    +0.148 HD
BRANCH  16  24
ATOM     18  C   UNL     1      -0.196   1.310   0.422  0.00  0.00    +0.009 C 
ATOM     19  C   UNL     1       0.071  -0.138   0.006  0.00  0.00    +0.005 C 
ATOM     20  C   UNL     1      -1.256  -0.894  -0.088  0.00  0.00    +0.005 C 
ATOM     21  C   UNL     1      -0.989  -2.342  -0.504  0.00  0.00    +0.000 C 
ATOM     22  C   UNL     1      -0.091  -3.015   0.536  0.00  0.00    +0.002 C 
ATOM     23  C   UNL     1       1.236  -2.259   0.630  0.00  0.00    +0.020 C 
ATOM     24  C   UNL     1       0.969  -0.811   1.046  0.00  0.00    +0.079 C 
ENDBRANCH  16  24
ENDBRANCH   1  16
TORSDOF 5
