REMARK  Name = ZINC12771890
REMARK  9 active torsions:
REMARK  status: ('A' for Active; 'I' for Inactive)
REMARK    1  A    between atoms: C_1  and  C_2
REMARK    2  A    between atoms: C_4  and  S_9
REMARK    3  A    between atoms: S_9  and  N_12
REMARK    4  A    between atoms: N_12  and  C_13
REMARK    5  A    between atoms: C_15  and  N_23
REMARK    6  A    between atoms: C_18  and  N_19
REMARK    7  A    between atoms: N_19  and  C_20
REMARK    8  A    between atoms: C_20  and  C_21
REMARK    9  A    between atoms: C_21  and  O_22
REMARK                            x       y       z     vdW  Elec       q    Type
REMARK                         _______ _______ _______ _____ _____    ______ ____
ROOT
ATOM      1  C   UNL     1      -1.133   3.199   2.455  0.00  0.00    +0.071 A 
ATOM      2  C   UNL     1      -0.497   4.339   1.989  0.00  0.00    +0.059 A 
ATOM      3  C   UNL     1       0.333   5.059   2.829  0.00  0.00    +0.128 A 
ATOM      4  C   UNL     1       0.531   4.646   4.133  0.00  0.00    +0.034 A 
ATOM      5  C   UNL     1      -0.099   3.509   4.605  0.00  0.00    +0.027 A 
ATOM      6  C   UNL     1      -0.937   2.784   3.772  0.00  0.00    +0.050 A 
ENDROOT
BRANCH   3   7
ATOM      7  N   UNL     1       1.011   6.277   2.330  0.00  0.00    +0.056 N 
ATOM      8  O   UNL     1       0.837   6.643   1.181  0.00  0.00    -0.126 OA
ATOM      9  O   UNL     1       1.743   6.912   3.067  0.00  0.00    -0.126 OA
ENDBRANCH   3   7
BRANCH   1  10
ATOM     10  N   UNL     1      -1.974   2.468   1.607  0.00  0.00    -0.214 N 
ATOM     11  H   UNL     1      -2.770   2.043   1.962  0.00  0.00    +0.174 HD
BRANCH  10  12
ATOM     12  S   UNL     1      -1.611   2.331  -0.003  0.00  0.00    +0.072 S 
ATOM     13  O   UNL     1      -1.430   3.653  -0.493  0.00  0.00    -0.150 OA
ATOM     14  O   UNL     1      -2.563   1.436  -0.560  0.00  0.00    -0.150 OA
BRANCH  12  18
ATOM     15  C   UNL     1       1.331  -1.973  -0.372  0.00  0.00    +0.045 C 
ATOM     16  C   UNL     1       1.255  -0.471  -0.288  0.00  0.00    -0.035 A 
ATOM     17  C   UNL     1       0.026   0.155  -0.194  0.00  0.00    +0.033 A 
ATOM     18  C   UNL     1      -0.044   1.533  -0.117  0.00  0.00    +0.109 A 
ATOM     19  C   UNL     1       1.116   2.287  -0.135  0.00  0.00    +0.030 A 
ATOM     20  C   UNL     1       2.345   1.662  -0.230  0.00  0.00    +0.017 A 
ATOM     21  C   UNL     1       2.415   0.283  -0.307  0.00  0.00    +0.021 A 
ATOM     22 BR   UNL     1       4.096  -0.573  -0.436  0.00  0.00    -0.050 Br
ENDBRANCH  12  18
ENDBRANCH  10  12
ENDBRANCH   1  10
BRANCH   6  23
ATOM     23  N   UNL     1      -1.580   1.636   4.250  0.00  0.00    -0.340 N 
ATOM     24  H   UNL     1      -2.164   1.128   3.665  0.00  0.00    +0.146 HD
BRANCH  23  25
ATOM     25  C   UNL     1      -1.373   1.202   5.634  0.00  0.00    +0.129 C 
BRANCH  25  26
ATOM     26  C   UNL     1      -2.184  -0.068   5.897  0.00  0.00    +0.174 C 
BRANCH  26  27
ATOM     27  O   UNL     1      -1.679  -1.132   5.088  0.00  0.00    -0.393 OA
ATOM     28  H   UNL     1      -2.147  -1.970   5.204  0.00  0.00    +0.209 HD
ENDBRANCH  26  27
ENDBRANCH  25  26
ENDBRANCH  23  25
ENDBRANCH   6  23
TORSDOF 8
