REMARK  Name = ZINC12710631
REMARK  7 active torsions:
REMARK  status: ('A' for Active; 'I' for Inactive)
REMARK    1  A    between atoms: C_1  and  C_2
REMARK    2  A    between atoms: C_2  and  N_64
REMARK    3  A    between atoms: C_6  and  C_8
REMARK    4  A    between atoms: C_8  and  N_9
REMARK    5  A    between atoms: N_9  and  C_10
REMARK    6  A    between atoms: C_10  and  C_11
REMARK    7  A    between atoms: N_29  and  C_30
REMARK                            x       y       z     vdW  Elec       q    Type
REMARK                         _______ _______ _______ _____ _____    ______ ____
ROOT
ATOM      1  N   UNL     1       3.581  -0.941   1.839  0.00  0.00    -0.282 N 
ATOM      2  C   UNL     1       3.189  -1.909   2.691  0.00  0.00    +0.307 C 
ATOM      3  O   UNL     1       2.186  -2.554   2.456  0.00  0.00    -0.252 OA
ATOM      4  N   UNL     1       3.908  -2.161   3.802  0.00  0.00    -0.269 N 
ATOM      5  H   UNL     1       4.652  -1.585   4.039  0.00  0.00    +0.156 HD
ENDROOT
BRANCH   4   6
ATOM      6  C   UNL     1       3.583  -3.255   4.614  0.00  0.00    +0.035 A 
ATOM      7  C   UNL     1       3.042  -4.402   4.050  0.00  0.00    +0.026 A 
ATOM      8  C   UNL     1       2.726  -5.482   4.852  0.00  0.00    +0.040 A 
ATOM      9  C   UNL     1       2.939  -5.416   6.218  0.00  0.00    +0.124 A 
ATOM     10  C   UNL     1       3.473  -4.270   6.783  0.00  0.00    +0.040 A 
ATOM     11  C   UNL     1       3.795  -3.191   5.984  0.00  0.00    +0.026 A 
ATOM     12  F   UNL     1       2.624  -6.471   7.002  0.00  0.00    -0.205 F 
ENDBRANCH   4   6
BRANCH   1  13
ATOM     13  C   UNL     1       4.864  -0.263   2.041  0.00  0.00    +0.094 C 
BRANCH  13  17
ATOM     14  C   UNL     1       6.084   2.798   3.125  0.00  0.00    -0.078 C 
ATOM     15  C   UNL     1       4.607   3.261   3.090  0.00  0.00    -0.020 C 
ATOM     16  C   UNL     1       3.902   2.018   2.486  0.00  0.00    -0.016 C 
ATOM     17  C   UNL     1       4.699   0.841   3.087  0.00  0.00    -0.051 C 
ATOM     18  N   UNL     1       6.011   1.369   3.493  0.00  0.00    +0.382 N 
ATOM     19  H   UNL     1       6.115   1.275   4.510  0.00  0.00    -0.081 HD
BRANCH  18  21
ATOM     20  C   UNL     1       8.448   1.239   3.178  0.00  0.00    -0.017 C 
ATOM     21  C   UNL     1       7.099   0.612   2.822  0.00  0.00    -0.082 C 
ENDBRANCH  18  21
ENDBRANCH  13  17
ENDBRANCH   1  13
BRANCH   1  22
ATOM     22  C   UNL     1       2.724  -0.566   0.711  0.00  0.00    +0.149 C 
BRANCH  22  23
ATOM     23  C   UNL     1       1.888   0.629   1.091  0.00  0.00    +0.035 A 
ATOM     24  C   UNL     1       2.046   1.803   0.428  0.00  0.00    +0.020 A 
ATOM     25  C   UNL     1       1.220   2.944   0.820  0.00  0.00    +0.003 A 
ATOM     26  C   UNL     1       1.339   4.179   0.172  0.00  0.00    +0.059 A 
ATOM     27  C   UNL     1       0.547   5.238   0.565  0.00  0.00    +0.163 A 
ATOM     28  C   UNL     1      -0.373   5.080   1.605  0.00  0.00    +0.164 A 
ATOM     29  C   UNL     1      -0.494   3.864   2.255  0.00  0.00    +0.075 A 
ATOM     30  C   UNL     1       0.292   2.787   1.869  0.00  0.00    +0.053 A 
ATOM     31  N   UNL     1       0.181   1.566   2.502  0.00  0.00    -0.322 N 
ATOM     32  H   UNL     1      -0.458   1.458   3.224  0.00  0.00    +0.169 HD
ATOM     33  C   UNL     1       0.946   0.523   2.133  0.00  0.00    +0.254 A 
ATOM     34  O   UNL     1       0.820  -0.541   2.716  0.00  0.00    -0.268 OA
ATOM     35  O   UNL     1      -1.161   6.119   1.995  0.00  0.00    -0.485 OA
ATOM     36  C   UNL     1      -0.752   7.428   1.584  0.00  0.00    +0.270 C 
ATOM     37  C   UNL     1      -0.390   7.373   0.094  0.00  0.00    +0.270 C 
ATOM     38  O   UNL     1       0.678   6.434  -0.073  0.00  0.00    -0.485 OA
ENDBRANCH  22  23
ENDBRANCH   1  22
TORSDOF 6
