REMARK  Name = ZINC29570807
REMARK  13 active torsions:
REMARK  status: ('A' for Active; 'I' for Inactive)
REMARK    1  A    between atoms: C_1  and  C_2
REMARK    2  A    between atoms: C_5  and  N_9
REMARK    3  A    between atoms: C_6  and  C_8
REMARK    4  A    between atoms: C_13  and  C_15
REMARK    5  A    between atoms: C_15  and  C_17
REMARK    6  A    between atoms: C_15  and  S_18
REMARK    7  A    between atoms: S_18  and  C_19
REMARK    8  A    between atoms: C_23  and  C_25
REMARK    9  A    between atoms: C_25  and  C_26
REMARK   10  A    between atoms: C_25  and  C_27
REMARK   11  A    between atoms: C_25  and  C_28
REMARK   12  A    between atoms: N_29  and  C_36
REMARK   13  A    between atoms: N_32  and  C_35
REMARK                            x       y       z     vdW  Elec       q    Type
REMARK                         _______ _______ _______ _____ _____    ______ ____
ROOT
ATOM      1  S   UNL     1      -0.691   3.079   6.141  0.00  0.00    -0.093 S 
ENDROOT
BRANCH   1   2
ATOM      2  C   UNL     1       0.107   2.525   4.671  0.00  0.00    +0.116 A 
ATOM      3  C   UNL     1      -0.624   2.293   3.496  0.00  0.00    +0.114 A 
ATOM      4  C   UNL     1       0.062   1.851   2.349  0.00  0.00    +0.154 A 
ATOM      5  N   UNL     1       1.373   1.669   2.418  0.00  0.00    -0.213 NA
ATOM      6  C   UNL     1       2.023   1.899   3.544  0.00  0.00    +0.138 A 
ATOM      7  N   UNL     1       1.424   2.313   4.642  0.00  0.00    -0.224 NA
ATOM      8  N   UNL     1      -0.656   1.625   1.194  0.00  0.00    -0.281 N 
ATOM      9  C   UNL     1      -1.985   1.827   1.164  0.00  0.00    +0.333 A 
ATOM     10  O   UNL     1      -2.581   1.620   0.125  0.00  0.00    -0.246 OA
ATOM     11  N   UNL     1      -2.684   2.243   2.232  0.00  0.00    -0.263 N 
ATOM     12  C   UNL     1      -2.074   2.494   3.412  0.00  0.00    +0.268 A 
ATOM     13  O   UNL     1      -2.709   2.874   4.377  0.00  0.00    -0.267 OA
ATOM     14  C   UNL     1      -4.132   2.433   2.116  0.00  0.00    +0.157 C 
ATOM     15  C   UNL     1       0.036   1.165  -0.012  0.00  0.00    +0.155 C 
BRANCH   6  16
ATOM     16  C   UNL     1       3.514   1.678   3.575  0.00  0.00    +0.022 C 
ATOM     17  C   UNL     1       4.049   2.005   4.970  0.00  0.00    +0.019 C 
ATOM     18  C   UNL     1       3.820   0.217   3.240  0.00  0.00    +0.019 C 
ATOM     19  C   UNL     1       4.185   2.589   2.545  0.00  0.00    +0.019 C 
ENDBRANCH   6  16
ENDBRANCH   1   2
BRANCH   1  20
ATOM     20  C   UNL     1       0.735   3.184   7.252  0.00  0.00    +0.136 C 
ATOM     21  C   UNL     1       1.693   4.266   6.751  0.00  0.00    +0.029 C 
BRANCH  20  26
ATOM     22  N   UNL     1       1.423   3.337  12.007  0.00  0.00    -0.269 N 
ATOM     23  C   UNL     1       0.634   3.592  10.945  0.00  0.00    +0.310 C 
ATOM     24  O   UNL     1      -0.457   4.103  11.107  0.00  0.00    -0.252 OA
ATOM     25  N   UNL     1       1.054   3.279   9.703  0.00  0.00    -0.239 N 
ATOM     26  C   UNL     1       0.265   3.534   8.640  0.00  0.00    +0.233 C 
ATOM     27  O   UNL     1      -0.823   4.044   8.802  0.00  0.00    -0.274 OA
ATOM     28  H   UNL     1       2.369   2.792  11.872  0.00  0.00    +0.156 HD
ATOM     29  H   UNL     1       2.041   2.817   9.556  0.00  0.00    +0.159 HD
BRANCH  22  34
ATOM     30  C   UNL     1      -0.132   5.080  17.177  0.00  0.00    +0.044 C 
ATOM     31  C   UNL     1       0.281   4.617  15.804  0.00  0.00    -0.050 A 
ATOM     32  C   UNL     1      -0.196   5.271  14.683  0.00  0.00    +0.005 A 
ATOM     33  C   UNL     1       0.180   4.849  13.423  0.00  0.00    +0.024 A 
ATOM     34  C   UNL     1       1.040   3.767  13.283  0.00  0.00    +0.038 A 
ATOM     35  C   UNL     1       1.513   3.110  14.410  0.00  0.00    -0.029 A 
ATOM     36  C   UNL     1       1.137   3.540  15.668  0.00  0.00    +0.008 A 
ATOM     37  C   UNL     1       2.441   1.932  14.262  0.00  0.00    +0.045 C 
ENDBRANCH  22  34
ENDBRANCH  20  26
ENDBRANCH   1  20
TORSDOF 5
