REMARK  Name = ZINC28619987
REMARK  9 active torsions:
REMARK  status: ('A' for Active; 'I' for Inactive)
REMARK    1  A    between atoms: C_1  and  C_2
REMARK    2  A    between atoms: C_2  and  O_3
REMARK    3  A    between atoms: O_3  and  C_4
REMARK    4  A    between atoms: C_4  and  C_6
REMARK    5  A    between atoms: C_7  and  C_34
REMARK    6  A    between atoms: N_18  and  C_21
REMARK    7  A    between atoms: C_21  and  C_22
REMARK    8  A    between atoms: C_27  and  C_33
REMARK    9  A    between atoms: C_28  and  C_32
REMARK                            x       y       z     vdW  Elec       q    Type
REMARK                         _______ _______ _______ _____ _____    ______ ____
ROOT
ATOM      1  C   UNL     1      -0.328  -4.055   6.353  0.00  0.00    +0.102 A 
ATOM      2  C   UNL     1       0.389  -4.843   5.503  0.00  0.00    -0.017 A 
ATOM      3  C   UNL     1       1.725  -4.530   5.222  0.00  0.00    +0.051 A 
ATOM      4  C   UNL     1       2.652  -5.207   4.374  0.00  0.00    +0.133 A 
ATOM      5  N   UNL     1       3.880  -4.732   4.252  0.00  0.00    -0.220 NA
ATOM      6  C   UNL     1       4.284  -3.648   4.890  0.00  0.00    +0.224 A 
ATOM      7  N   UNL     1       3.475  -2.978   5.689  0.00  0.00    -0.228 NA
ATOM      8  C   UNL     1       2.234  -3.377   5.870  0.00  0.00    +0.114 A 
ATOM      9  S   UNL     1       0.849  -2.796   6.815  0.00  0.00    -0.062 S 
ATOM     10  N   UNL     1       2.271  -6.343   3.689  0.00  0.00    -0.318 N 
ATOM     11  C   UNL     1       1.564  -6.250   2.403  0.00  0.00    +0.088 C 
ATOM     12  C   UNL     1       2.281  -7.146   1.388  0.00  0.00    -0.059 C 
ATOM     13  N   UNL     1       2.383  -8.509   1.926  0.00  0.00    +0.386 N 
ATOM     14  C   UNL     1       3.232  -8.511   3.124  0.00  0.00    -0.059 C 
ATOM     15  C   UNL     1       2.567  -7.682   4.223  0.00  0.00    +0.088 C 
ATOM     16  C   UNL     1      -0.254  -6.049   4.868  0.00  0.00    +0.046 C 
ATOM     17  H   UNL     1       1.462  -8.844   2.167  0.00  0.00    -0.081 HD
ENDROOT
BRANCH   1  18
ATOM     18  C   UNL     1      -1.723  -4.202   6.778  0.00  0.00    +0.346 C 
ATOM     19  O   UNL     1      -2.391  -5.129   6.362  0.00  0.00    -0.244 OA
BRANCH  18  20
ATOM     20  O   UNL     1      -2.266  -3.309   7.630  0.00  0.00    -0.461 OA
BRANCH  20  22
ATOM     21  C   UNL     1      -4.068  -2.409   8.966  0.00  0.00    +0.048 C 
ATOM     22  C   UNL     1      -3.631  -3.514   8.002  0.00  0.00    +0.229 C 
ENDBRANCH  20  22
ENDBRANCH  18  20
ENDBRANCH   1  18
BRANCH  13  23
ATOM     23  C   UNL     1       2.971  -9.392   0.910  0.00  0.00    -0.003 C 
BRANCH  23  24
ATOM     24  C   UNL     1       2.964 -10.812   1.414  0.00  0.00    +0.095 A 
ATOM     25  N   UNL     1       2.470 -11.063   2.595  0.00  0.00    -0.197 NA
ATOM     26  C   UNL     1       2.429 -12.301   3.110  0.00  0.00    +0.282 A 
ATOM     27  O   UNL     1       1.959 -12.495   4.219  0.00  0.00    -0.265 OA
ATOM     28  C   UNL     1       2.963 -13.428   2.312  0.00  0.00    +0.075 A 
ATOM     29  C   UNL     1       3.037 -14.841   2.633  0.00  0.00    -0.026 A 
ATOM     30  C   UNL     1       3.571 -15.688   1.739  0.00  0.00    -0.008 A 
ATOM     31  S   UNL     1       4.019 -14.622   0.381  0.00  0.00    -0.075 S 
ATOM     32  C   UNL     1       3.475 -13.076   1.057  0.00  0.00    +0.092 A 
ATOM     33  N   UNL     1       3.463 -11.788   0.629  0.00  0.00    -0.339 N 
ATOM     34  C   UNL     1       3.749 -17.180   1.854  0.00  0.00    +0.052 C 
ATOM     35  C   UNL     1       2.520 -15.351   3.953  0.00  0.00    +0.045 C 
ATOM     36  H   UNL     1       3.820 -11.568  -0.246  0.00  0.00    +0.167 HD
ENDBRANCH  23  24
ENDBRANCH  13  23
TORSDOF 5
