REMARK  Name = ZINC42270660
REMARK  3 active torsions:
REMARK  status: ('A' for Active; 'I' for Inactive)
REMARK    1  A    between atoms: C_2  and  C_10
REMARK    2  A    between atoms: C_6  and  N_7
REMARK    3  A    between atoms: C_17  and  C_19
REMARK                            x       y       z     vdW  Elec       q    Type
REMARK                         _______ _______ _______ _____ _____    ______ ____
ROOT
ATOM      1  C   UNL     1       1.297   4.444  -1.597  0.00  0.00    +0.247 C 
ATOM      2  O   UNL     1       0.229   4.958  -1.326  0.00  0.00    -0.270 OA
ATOM      3  N   UNL     1       2.382   4.705  -0.840  0.00  0.00    -0.286 N 
ATOM      4  C   UNL     1       3.643   3.986  -1.067  0.00  0.00    +0.109 C 
ATOM      5  C   UNL     1       4.102   3.366   0.256  0.00  0.00    +0.019 C 
ATOM      6  C   UNL     1       4.184   4.458   1.325  0.00  0.00    +0.004 C 
ATOM      7  C   UNL     1       2.799   5.074   1.535  0.00  0.00    +0.032 C 
ATOM      8  C   UNL     1       2.327   5.718   0.223  0.00  0.00    +0.162 C 
ENDROOT
BRANCH   1  10
ATOM      9  C   UNL     1       0.264   2.925  -3.278  0.00  0.00    +0.037 A 
ATOM     10  C   UNL     1       1.406   3.533  -2.756  0.00  0.00    +0.040 A 
ATOM     11  C   UNL     1       2.652   3.278  -3.331  0.00  0.00    +0.034 A 
ATOM     12  C   UNL     1       2.752   2.427  -4.414  0.00  0.00    +0.062 A 
ATOM     13  C   UNL     1       1.619   1.825  -4.932  0.00  0.00    +0.080 A 
ATOM     14  C   UNL     1       0.373   2.072  -4.365  0.00  0.00    +0.045 A 
ATOM     15 CL   UNL     1       1.752   0.757  -6.295  0.00  0.00    -0.080 Cl
ATOM     16 CL   UNL     1       4.303   2.112  -5.128  0.00  0.00    -0.082 Cl
BRANCH  14  17
ATOM     17  N   UNL     1      -0.769   1.462  -4.891  0.00  0.00    -0.357 N 
ATOM     18  H   UNL     1      -1.638   1.635  -4.496  0.00  0.00    +0.142 HD
ATOM     19  H   UNL     1      -0.693   0.865  -5.652  0.00  0.00    +0.142 HD
ENDBRANCH  14  17
ENDBRANCH   1  10
BRANCH   8  20
ATOM     20  C   UNL     1       0.911   6.209   0.380  0.00  0.00    +0.231 C 
ATOM     21  O   UNL     1       0.061   5.474   0.837  0.00  0.00    -0.274 OA
ATOM     22  N   UNL     1       0.589   7.465   0.011  0.00  0.00    -0.328 N 
ATOM     23  H   UNL     1       1.268   8.052  -0.355  0.00  0.00    +0.145 HD
ATOM     24  H   UNL     1      -0.323   7.781   0.112  0.00  0.00    +0.145 HD
ENDBRANCH   8  20
TORSDOF 3
