REMARK  Name = ZINC64449262
REMARK  12 active torsions:
REMARK  status: ('A' for Active; 'I' for Inactive)
REMARK    1  A    between atoms: C_1  and  C_2
REMARK    2  A    between atoms: C_2  and  C_3
REMARK    3  A    between atoms: C_4  and  C_24
REMARK    4  A    between atoms: C_5  and  C_23
REMARK    5  A    between atoms: C_6  and  C_9
REMARK    6  A    between atoms: C_15  and  N_18
REMARK    7  A    between atoms: N_18  and  C_19
REMARK    8  A    between atoms: N_18  and  C_20
REMARK    9  A    between atoms: C_20  and  C_21
REMARK   10  A    between atoms: C_21  and  O_22
REMARK   11  A    between atoms: C_24  and  O_26
REMARK   12  A    between atoms: O_26  and  C_27
REMARK                            x       y       z     vdW  Elec       q    Type
REMARK                         _______ _______ _______ _____ _____    ______ ____
ROOT
ATOM      1  C   UNL     1      -4.419  -1.786   1.621  0.00  0.00    +0.266 C 
ATOM      2  O   UNL     1      -5.492  -2.137   1.166  0.00  0.00    -0.268 OA
ATOM      3  N   UNL     1      -4.201  -1.837   2.950  0.00  0.00    -0.265 N 
ATOM      4  C   UNL     1      -5.238  -2.189   3.814  0.00  0.00    +0.125 A 
ATOM      5  C   UNL     1      -5.035  -2.135   5.188  0.00  0.00    +0.045 A 
ATOM      6  C   UNL     1      -6.069  -2.486   6.037  0.00  0.00    +0.028 A 
ATOM      7  C   UNL     1      -7.282  -2.882   5.476  0.00  0.00    +0.048 A 
ATOM      8  C   UNL     1      -7.412  -2.911   4.095  0.00  0.00    +0.136 A 
ATOM      9  N   UNL     1      -6.405  -2.564   3.316  0.00  0.00    -0.238 NA
ATOM     10  H   UNL     1      -3.323  -1.628   3.305  0.00  0.00    +0.157 HD
ENDROOT
BRANCH   1  14
ATOM     11  C   UNL     1      -1.413  -0.520   0.013  0.00  0.00    +0.031 A 
ATOM     12  C   UNL     1      -2.215  -0.707  -1.098  0.00  0.00    +0.083 A 
ATOM     13  C   UNL     1      -3.453  -1.209  -0.636  0.00  0.00    -0.006 A 
ATOM     14  C   UNL     1      -3.362  -1.309   0.721  0.00  0.00    +0.106 A 
ATOM     15  N   UNL     1      -2.106  -0.889   1.102  0.00  0.00    -0.353 N 
ATOM     16  H   UNL     1      -1.776  -0.862   2.014  0.00  0.00    +0.166 HD
ATOM     17  C   UNL     1      -4.647  -1.567  -1.483  0.00  0.00    +0.047 C 
BRANCH  11  19
ATOM     18  C   UNL     1      -0.022   1.532   0.013  0.00  0.00    +0.010 C 
ATOM     19  C   UNL     1       0.000   0.002   0.003  0.00  0.00    +0.050 C 
ENDBRANCH  11  19
BRANCH  12  20
ATOM     20  C   UNL     1      -1.849  -0.434  -2.497  0.00  0.00    +0.341 C 
ATOM     21  O   UNL     1      -1.334  -1.304  -3.172  0.00  0.00    -0.245 OA
BRANCH  20  22
ATOM     22  O   UNL     1      -2.084   0.781  -3.030  0.00  0.00    -0.464 OA
ATOM     23  C   UNL     1      -1.703   0.977  -4.394  0.00  0.00    +0.280 C 
ENDBRANCH  20  22
ENDBRANCH  12  20
ENDBRANCH   1  14
BRANCH   7  24
ATOM     24  N   UNL     1      -8.357  -3.247   6.296  0.00  0.00    -0.330 N 
ATOM     25  C   UNL     1      -8.210  -3.214   7.753  0.00  0.00    +0.129 C 
BRANCH  24  26
ATOM     26  C   UNL     1      -9.627  -3.661   5.697  0.00  0.00    +0.132 C 
BRANCH  26  27
ATOM     27  C   UNL     1      -9.617  -5.175   5.474  0.00  0.00    +0.174 C 
BRANCH  27  28
ATOM     28  O   UNL     1      -9.558  -5.842   6.736  0.00  0.00    -0.393 OA
ATOM     29  H   UNL     1      -9.548  -6.807   6.671  0.00  0.00    +0.209 HD
ENDBRANCH  27  28
ENDBRANCH  26  27
ENDBRANCH  24  26
ENDBRANCH   7  24
TORSDOF 8
