REMARK  Name = ZINC62958019
REMARK  5 active torsions:
REMARK  status: ('A' for Active; 'I' for Inactive)
REMARK    1  A    between atoms: C_1  and  C_2
REMARK    2  A    between atoms: C_2  and  C_3
REMARK    3  A    between atoms: C_3  and  C_18
REMARK    4  A    between atoms: C_9  and  C_11
REMARK    5  A    between atoms: C_18  and  C_19
REMARK                            x       y       z     vdW  Elec       q    Type
REMARK                         _______ _______ _______ _____ _____    ______ ____
ROOT
ATOM      1  C   UNL     1      -2.089  -0.801  -0.045  0.00  0.00    -0.027 C 
ATOM      2  C   UNL     1      -2.556  -0.486  -1.468  0.00  0.00    +0.026 C 
ATOM      3  C   UNL     1      -1.466  -0.900  -2.462  0.00  0.00    +0.109 C 
ATOM      4  N   UNL     1      -1.133  -2.313  -2.236  0.00  0.00    -0.295 N 
ATOM      5  C   UNL     1      -0.758  -2.742  -0.881  0.00  0.00    +0.109 C 
ATOM      6  C   UNL     1      -1.855  -2.307   0.095  0.00  0.00    +0.026 C 
ATOM      7  C   UNL     1      -1.170  -3.198  -3.251  0.00  0.00    +0.286 C 
ATOM      8  O   UNL     1      -1.605  -2.862  -4.335  0.00  0.00    -0.267 OA
ENDROOT
BRANCH   7   9
ATOM      9  C   UNL     1      -0.681  -4.579  -3.046  0.00  0.00    +0.238 A 
ATOM     10  N   UNL     1      -0.777  -5.582  -3.935  0.00  0.00    -0.190 NA
ATOM     11  C   UNL     1      -0.243  -6.670  -3.432  0.00  0.00    +0.209 A 
ATOM     12  N   UNL     1       0.213  -6.380  -2.191  0.00  0.00    -0.246 N 
ATOM     13  H   UNL     1       0.656  -6.988  -1.579  0.00  0.00    +0.192 HD
ATOM     14  N   UNL     1      -0.076  -5.024  -1.967  0.00  0.00    -0.146 NA
ATOM     15  N   UNL     1      -0.161  -7.899  -4.060  0.00  0.00    -0.328 N 
ATOM     16  H   UNL     1      -0.518  -8.011  -4.955  0.00  0.00    +0.145 HD
ATOM     17  H   UNL     1       0.254  -8.649  -3.606  0.00  0.00    +0.145 HD
ENDBRANCH   7   9
BRANCH   1  19
ATOM     18  C   UNL     1      -0.372  -0.288   1.696  0.00  0.00    +0.004 C 
ATOM     19  C   UNL     1      -0.785  -0.054   0.241  0.00  0.00    +0.003 C 
ENDBRANCH   1  19
BRANCH   1  20
ATOM     20  C   UNL     1      -3.160  -0.357   0.953  0.00  0.00    +0.003 C 
ATOM     21  C   UNL     1      -4.479  -1.066   0.636  0.00  0.00    +0.004 C 
ENDBRANCH   1  20
TORSDOF 3
