REMARK  Name = ZINC00882211
REMARK  11 active torsions:
REMARK  status: ('A' for Active; 'I' for Inactive)
REMARK    1  A    between atoms: C_1  and  C_2
REMARK    2  A    between atoms: C_2  and  C_3
REMARK    3  A    between atoms: C_2  and  C_4
REMARK    4  A    between atoms: C_2  and  C_5
REMARK    5  A    between atoms: C_12  and  N_17
REMARK    6  A    between atoms: C_13  and  C_14
REMARK    7  A    between atoms: C_18  and  C_20
REMARK    8  A    between atoms: C_20  and  C_21
REMARK    9  A    between atoms: C_21  and  C_22
REMARK   10  A    between atoms: N_24  and  C_25
REMARK   11  A    between atoms: C_25  and  C_26
REMARK                            x       y       z     vdW  Elec       q    Type
REMARK                         _______ _______ _______ _____ _____    ______ ____
ROOT
ATOM      1  N   UNL     1      12.005  -2.366   0.289  0.00  0.00    -0.279 N 
ATOM      2  C   UNL     1      10.701  -2.203  -0.012  0.00  0.00    +0.218 C 
ATOM      3  O   UNL     1      10.310  -2.402  -1.142  0.00  0.00    -0.275 OA
ATOM      4  H   UNL     1      12.318  -2.207   1.193  0.00  0.00    +0.155 HD
ENDROOT
BRANCH   1  11
ATOM      5  C   UNL     1      16.210  -3.819  -4.301  0.00  0.00    -0.000 C 
ATOM      6  C   UNL     1      16.792  -4.502  -3.060  0.00  0.00    +0.009 C 
ATOM      7  C   UNL     1      16.477  -3.672  -1.814  0.00  0.00    +0.037 C 
ATOM      8  C   UNL     1      14.980  -3.393  -1.777  0.00  0.00    -0.023 A 
ATOM      9  C   UNL     1      14.221  -3.520  -2.887  0.00  0.00    -0.004 A 
ATOM     10  S   UNL     1      12.582  -3.100  -2.364  0.00  0.00    -0.077 S 
ATOM     11  C   UNL     1      12.899  -2.761  -0.695  0.00  0.00    +0.084 A 
ATOM     12  C   UNL     1      14.265  -2.974  -0.583  0.00  0.00    +0.068 A 
ATOM     13  C   UNL     1      14.679  -3.926  -4.253  0.00  0.00    +0.046 C 
BRANCH  12  14
ATOM     14  C   UNL     1      14.962  -2.787   0.694  0.00  0.00    +0.244 C 
ATOM     15  O   UNL     1      15.074  -3.720   1.468  0.00  0.00    -0.270 OA
ATOM     16  N   UNL     1      15.478  -1.583   1.010  0.00  0.00    -0.325 N 
ATOM     17  H   UNL     1      15.389  -0.840   0.393  0.00  0.00    +0.145 HD
ATOM     18  H   UNL     1      15.939  -1.460   1.855  0.00  0.00    +0.145 HD
ENDBRANCH  12  14
BRANCH   5  20
ATOM     19  C   UNL     1      16.138  -3.839  -6.798  0.00  0.00    +0.011 C 
ATOM     20  C   UNL     1      16.734  -4.512  -5.561  0.00  0.00    -0.035 C 
ATOM     21  C   UNL     1      18.259  -4.404  -5.606  0.00  0.00    +0.011 C 
ATOM     22  C   UNL     1      16.328  -5.987  -5.537  0.00  0.00    +0.011 C 
ENDBRANCH   5  20
ENDBRANCH   1  11
BRANCH   2  23
ATOM     23  C   UNL     1       9.729  -1.774   1.058  0.00  0.00    +0.105 C 
BRANCH  23  24
ATOM     24  C   UNL     1       8.326  -1.665   0.457  0.00  0.00    +0.105 C 
BRANCH  24  25
ATOM     25  C   UNL     1       7.355  -1.236   1.526  0.00  0.00    +0.214 C 
ATOM     26  O   UNL     1       7.746  -1.037   2.657  0.00  0.00    -0.276 OA
ATOM     27  N   UNL     1       6.051  -1.073   1.226  0.00  0.00    -0.311 N 
ATOM     28  H   UNL     1       5.738  -1.231   0.322  0.00  0.00    +0.149 HD
BRANCH  27  29
ATOM     29  C   UNL     1       5.107  -0.655   2.265  0.00  0.00    +0.139 C 
BRANCH  29  30
ATOM     30  C   UNL     1       3.725  -0.548   1.674  0.00  0.00    -0.027 A 
ATOM     31  C   UNL     1       2.885  -1.646   1.677  0.00  0.00    +0.009 A 
ATOM     32  C   UNL     1       1.617  -1.553   1.135  0.00  0.00    +0.050 A 
ATOM     33  C   UNL     1       1.183  -0.356   0.589  0.00  0.00    +0.166 A 
ATOM     34  C   UNL     1       2.028   0.751   0.586  0.00  0.00    +0.167 A 
ATOM     35  C   UNL     1       3.299   0.650   1.130  0.00  0.00    +0.054 A 
ATOM     36  O   UNL     1       1.376   1.797  -0.001  0.00  0.00    -0.453 OA
ATOM     37  C   UNL     1      -0.018   1.436   0.010  0.00  0.00    +0.466 C 
ATOM     38  O   UNL     1       0.002  -0.004   0.002  0.00  0.00    -0.453 OA
ENDBRANCH  29  30
ENDBRANCH  27  29
ENDBRANCH  24  25
ENDBRANCH  23  24
ENDBRANCH   2  23
TORSDOF 8
