REMARK  Name = ZINC66952949
REMARK  7 active torsions:
REMARK  status: ('A' for Active; 'I' for Inactive)
REMARK    1  A    between atoms: C_1  and  O_2
REMARK    2  A    between atoms: O_2  and  C_3
REMARK    3  A    between atoms: N_5  and  C_6
REMARK    4  A    between atoms: C_8  and  N_13
REMARK    5  A    between atoms: N_16  and  C_17
REMARK    6  A    between atoms: C_17  and  C_18
REMARK    7  A    between atoms: C_18  and  O_28
REMARK                            x       y       z     vdW  Elec       q    Type
REMARK                         _______ _______ _______ _____ _____    ______ ____
ROOT
ATOM      1  N   UNL     1      -6.071  -1.976  -0.092  0.00  0.00    -0.269 N 
ATOM      2  C   UNL     1      -7.202  -2.611   0.276  0.00  0.00    +0.304 C 
ATOM      3  O   UNL     1      -7.191  -3.812   0.465  0.00  0.00    -0.253 OA
ATOM      4  N   UNL     1      -8.345  -1.915   0.434  0.00  0.00    -0.296 N 
ATOM      5  H   UNL     1      -6.096  -1.032  -0.315  0.00  0.00    +0.156 HD
ATOM      6  H   UNL     1      -8.354  -0.956   0.283  0.00  0.00    +0.150 HD
ENDROOT
BRANCH   1   9
ATOM      7  C   UNL     1      -2.662  -2.960  -1.074  0.00  0.00    +0.073 A 
ATOM      8  C   UNL     1      -3.859  -2.262  -1.016  0.00  0.00    +0.049 A 
ATOM      9  C   UNL     1      -4.861  -2.679  -0.153  0.00  0.00    +0.037 A 
ATOM     10  C   UNL     1      -4.665  -3.794   0.652  0.00  0.00    +0.026 A 
ATOM     11  C   UNL     1      -3.471  -4.488   0.594  0.00  0.00    +0.042 A 
ATOM     12  C   UNL     1      -2.471  -4.079  -0.270  0.00  0.00    +0.145 A 
ATOM     13  F   UNL     1      -1.308  -4.762  -0.329  0.00  0.00    -0.204 F 
BRANCH   7  16
ATOM     14  C   UNL     1      -1.468  -1.229  -2.189  0.00  0.00    +0.404 C 
ATOM     15  O   UNL     1      -2.236  -0.413  -1.720  0.00  0.00    -0.226 OA
ATOM     16  N   UNL     1      -1.647  -2.542  -1.945  0.00  0.00    -0.248 N 
ATOM     17  H   UNL     1      -1.074  -3.198  -2.373  0.00  0.00    +0.158 HD
BRANCH  14  19
ATOM     18  C   UNL     1      -0.307   0.585  -3.171  0.00  0.00    +0.282 C 
ATOM     19  O   UNL     1      -0.436  -0.821  -2.953  0.00  0.00    -0.453 OA
ENDBRANCH  14  19
ENDBRANCH   7  16
ENDBRANCH   1   9
BRANCH   4  20
ATOM     20  C   UNL     1      -9.574  -2.604   0.834  0.00  0.00    +0.145 C 
BRANCH  20  21
ATOM     21  C   UNL     1     -10.741  -1.615   0.824  0.00  0.00    +0.107 C 
ATOM     22  C   UNL     1     -10.407  -0.434   1.734  0.00  0.00    +0.041 C 
ATOM     23  C   UNL     1     -11.664   0.431   1.883  0.00  0.00    +0.008 C 
ATOM     24  C   UNL     1     -12.684  -0.340   2.719  0.00  0.00    +0.035 C 
ATOM     25  C   UNL     1     -12.882  -1.726   2.165  0.00  0.00    -0.041 A 
ATOM     26  C   UNL     1     -11.988  -2.313   1.298  0.00  0.00    -0.011 A 
ATOM     27  C   UNL     1     -12.228  -3.598   0.829  0.00  0.00    +0.007 A 
ATOM     28  C   UNL     1     -13.355  -4.290   1.222  0.00  0.00    +0.000 A 
ATOM     29  C   UNL     1     -14.255  -3.699   2.089  0.00  0.00    +0.000 A 
ATOM     30  C   UNL     1     -14.018  -2.423   2.558  0.00  0.00    +0.004 A 
BRANCH  21  31
ATOM     31  O   UNL     1     -10.944  -1.140  -0.508  0.00  0.00    -0.382 OA
ATOM     32  H   UNL     1     -11.152  -1.836  -1.147  0.00  0.00    +0.211 HD
ENDBRANCH  21  31
ENDBRANCH  20  21
ENDBRANCH   4  20
TORSDOF 6
