REMARK  Name = ZINC60292122
REMARK  4 active torsions:
REMARK  status: ('A' for Active; 'I' for Inactive)
REMARK    1  A    between atoms: C_6  and  C_7
REMARK    2  A    between atoms: C_9  and  C_12
REMARK    3  A    between atoms: C_19  and  C_21
REMARK    4  A    between atoms: C_21  and  C_22
REMARK                            x       y       z     vdW  Elec       q    Type
REMARK                         _______ _______ _______ _____ _____    ______ ____
ROOT
ATOM      1  C   UNL     1      -2.958  -3.981   0.033  0.00  0.00    +0.266 C 
ATOM      2  O   UNL     1      -4.084  -4.391   0.243  0.00  0.00    -0.268 OA
ATOM      3  N   UNL     1      -1.935  -4.850  -0.083  0.00  0.00    -0.293 N 
ATOM      4  C   UNL     1      -0.545  -4.373  -0.087  0.00  0.00    +0.108 C 
ATOM      5  C   UNL     1       0.239  -5.131   0.989  0.00  0.00    +0.019 C 
ATOM      6  C   UNL     1       0.090  -6.636   0.758  0.00  0.00    +0.003 C 
ATOM      7  C   UNL     1      -1.385  -7.028   0.870  0.00  0.00    +0.023 C 
ATOM      8  C   UNL     1      -2.187  -6.292  -0.201  0.00  0.00    +0.085 C 
ENDROOT
BRANCH   1  11
ATOM      9  C   UNL     1      -1.356  -0.779  -0.594  0.00  0.00    +0.109 A 
ATOM     10  N   UNL     1      -1.531  -2.084  -0.492  0.00  0.00    -0.234 NA
ATOM     11  C   UNL     1      -2.714  -2.533  -0.095  0.00  0.00    +0.133 A 
ATOM     12  C   UNL     1      -3.705  -1.634   0.195  0.00  0.00    +0.080 A 
ATOM     13  S   UNL     1      -2.951  -0.157  -0.092  0.00  0.00    -0.075 S 
BRANCH   9  19
ATOM     14  C   UNL     1      -0.170   1.365  -1.043  0.00  0.00    +0.012 A 
ATOM     15  C   UNL     1       0.958   2.059  -1.430  0.00  0.00    +0.020 A 
ATOM     16  C   UNL     1       2.108   1.374  -1.783  0.00  0.00    +0.041 A 
ATOM     17  C   UNL     1       2.134  -0.010  -1.751  0.00  0.00    +0.020 A 
ATOM     18  C   UNL     1       1.012  -0.714  -1.366  0.00  0.00    +0.012 A 
ATOM     19  C   UNL     1      -0.150  -0.029  -1.008  0.00  0.00    +0.007 A 
ATOM     20 CL   UNL     1       3.523   2.254  -2.270  0.00  0.00    -0.084 Cl
ENDBRANCH   9  19
ENDBRANCH   1  11
BRANCH   8  21
ATOM     21  C   UNL     1      -3.679  -6.570  -0.003  0.00  0.00    +0.118 C 
BRANCH  21  22
ATOM     22  C   UNL     1      -4.449  -6.050  -1.190  0.00  0.00    +0.212 C 
ATOM     23  O   UNL     1      -3.862  -5.510  -2.104  0.00  0.00    -0.276 OA
ATOM     24  N   UNL     1      -5.789  -6.184  -1.235  0.00  0.00    -0.329 N 
ATOM     25  H   UNL     1      -6.258  -6.615  -0.504  0.00  0.00    +0.145 HD
ATOM     26  H   UNL     1      -6.284  -5.849  -1.999  0.00  0.00    +0.145 HD
ENDBRANCH  21  22
ENDBRANCH   8  21
TORSDOF 4
