REMARK  Name = ZINC18199549
REMARK  6 active torsions:
REMARK  status: ('A' for Active; 'I' for Inactive)
REMARK    1  A    between atoms: C_4  and  C_7
REMARK    2  A    between atoms: C_8  and  C_24
REMARK    3  A    between atoms: C_9  and  C_17
REMARK    4  A    between atoms: C_11  and  C_15
REMARK    5  A    between atoms: C_12  and  N_14
REMARK    6  A    between atoms: C_24  and  C_26
REMARK                            x       y       z     vdW  Elec       q    Type
REMARK                         _______ _______ _______ _____ _____    ______ ____
ROOT
ATOM      1  C   UNL     1      -4.410   2.233  -0.877  0.00  0.00    +0.145 C 
ATOM      2  C   UNL     1      -3.196   1.642  -1.017  0.00  0.00    +0.055 C 
ATOM      3  C   UNL     1      -2.227   1.579   0.132  0.00  0.00    +0.102 C 
ATOM      4  C   UNL     1      -2.942   1.869   1.424  0.00  0.00    +0.098 C 
ATOM      5  C   UNL     1      -4.167   2.447   1.429  0.00  0.00    +0.199 C 
ATOM      6  O   UNL     1      -4.796   2.784   0.289  0.00  0.00    -0.440 OA
ENDROOT
BRANCH   3   7
ATOM      7  C   UNL     1      -1.138   2.599  -0.076  0.00  0.00    -0.034 A 
ATOM      8  C   UNL     1       0.187   2.203  -0.083  0.00  0.00    +0.006 A 
ATOM      9  C   UNL     1       1.186   3.137  -0.280  0.00  0.00    +0.020 A 
ATOM     10  C   UNL     1       0.862   4.470  -0.464  0.00  0.00    +0.041 A 
ATOM     11  C   UNL     1      -0.464   4.866  -0.451  0.00  0.00    +0.020 A 
ATOM     12  C   UNL     1      -1.463   3.931  -0.254  0.00  0.00    +0.006 A 
ATOM     13 CL   UNL     1       2.116   5.643  -0.712  0.00  0.00    -0.084 Cl
ENDBRANCH   3   7
BRANCH   1  17
ATOM     14  C   UNL     1      -7.052   2.346  -4.197  0.00  0.00    +0.000 A 
ATOM     15  C   UNL     1      -6.467   1.149  -3.823  0.00  0.00    +0.001 A 
ATOM     16  C   UNL     1      -5.608   1.105  -2.745  0.00  0.00    +0.011 A 
ATOM     17  C   UNL     1      -5.328   2.272  -2.030  0.00  0.00    +0.018 A 
ATOM     18  C   UNL     1      -5.927   3.476  -2.410  0.00  0.00    +0.011 A 
ATOM     19  C   UNL     1      -6.780   3.507  -3.493  0.00  0.00    +0.001 A 
ENDBRANCH   1  17
BRANCH   5  20
ATOM     20  N   UNL     1      -4.784   2.694   2.631  0.00  0.00    -0.328 N 
ATOM     21  H   UNL     1      -4.342   2.456   3.461  0.00  0.00    +0.145 HD
ATOM     22  H   UNL     1      -5.661   3.108   2.650  0.00  0.00    +0.145 HD
ENDBRANCH   5  20
BRANCH   4  23
ATOM     23  C   UNL     1      -2.318   1.528   2.667  0.00  0.00    +0.101 C 
ATOM     24  N   UNL     1      -1.823   1.258   3.652  0.00  0.00    -0.191 NA
ENDBRANCH   4  23
BRANCH   2  25
ATOM     25  C   UNL     1      -2.837   1.078  -2.259  0.00  0.00    +0.194 C 
ATOM     26  O   UNL     1      -2.671   1.796  -3.229  0.00  0.00    -0.287 OA
BRANCH  25  27
ATOM     27  C   UNL     1      -2.663  -0.387  -2.384  0.00  0.00    +0.022 A 
ATOM     28  C   UNL     1      -2.804  -1.207  -1.264  0.00  0.00    +0.012 A 
ATOM     29  C   UNL     1      -2.646  -2.572  -1.388  0.00  0.00    +0.001 A 
ATOM     30  C   UNL     1      -2.336  -3.127  -2.618  0.00  0.00    +0.000 A 
ATOM     31  C   UNL     1      -2.188  -2.318  -3.731  0.00  0.00    +0.001 A 
ATOM     32  C   UNL     1      -2.350  -0.952  -3.621  0.00  0.00    +0.012 A 
ENDBRANCH  25  27
ENDBRANCH   2  25
TORSDOF 6
