REMARK  Name = ZINC54155615
REMARK  6 active torsions:
REMARK  status: ('A' for Active; 'I' for Inactive)
REMARK    1  A    between atoms: C_1  and  C_2
REMARK    2  A    between atoms: C_2  and  C_4
REMARK    3  A    between atoms: C_2  and  C_17
REMARK    4  A    between atoms: C_4  and  N_5
REMARK    5  A    between atoms: C_6  and  C_8
REMARK    6  A    between atoms: N_18  and  O_19
REMARK                            x       y       z     vdW  Elec       q    Type
REMARK                         _______ _______ _______ _____ _____    ______ ____
ROOT
ATOM      1  N   UNL     1       2.148  -0.104   1.172  0.00  0.00    -0.311 N 
ATOM      2  C   UNL     1       2.997  -0.441   2.162  0.00  0.00    +0.245 C 
ATOM      3  O   UNL     1       2.596  -1.084   3.115  0.00  0.00    -0.270 OA
ATOM      4  H   UNL     1       2.467   0.409   0.412  0.00  0.00    +0.149 HD
ENDROOT
BRANCH   2   5
ATOM      5  C   UNL     1       4.406  -0.033   2.092  0.00  0.00    +0.051 A 
ATOM      6  C   UNL     1       4.874   0.689   1.042  0.00  0.00    +0.059 A 
ATOM      7  S   UNL     1       6.503   0.933   1.359  0.00  0.00    -0.096 S 
ATOM      8  C   UNL     1       6.651   0.086   2.908  0.00  0.00    +0.020 A 
ATOM      9  C   UNL     1       5.348  -0.388   3.156  0.00  0.00    +0.001 A 
ATOM     10  C   UNL     1       5.141  -1.114   4.344  0.00  0.00    +0.010 A 
ATOM     11  C   UNL     1       6.180  -1.333   5.214  0.00  0.00    +0.001 A 
ATOM     12  C   UNL     1       7.453  -0.850   4.949  0.00  0.00    +0.001 A 
ATOM     13  C   UNL     1       7.688  -0.144   3.786  0.00  0.00    +0.015 A 
ENDBRANCH   2   5
BRANCH   1  14
ATOM     14  C   UNL     1       0.742  -0.511   1.242  0.00  0.00    +0.115 C 
BRANCH  14  16
ATOM     15  C   UNL     1      -0.019   1.526   0.010  0.00  0.00    +0.017 C 
ATOM     16  C   UNL     1       0.002  -0.004   0.002  0.00  0.00    +0.069 C 
BRANCH  16  17
ATOM     17  C   UNL     1      -1.412  -0.526   0.013  0.00  0.00    +0.136 C 
ATOM     18  N   UNL     1      -2.364   0.200   0.498  0.00  0.00    -0.076 NA
ATOM     19  N   UNL     1      -1.688  -1.775  -0.495  0.00  0.00    -0.344 N 
ATOM     20  H   UNL     1      -0.973  -2.320  -0.860  0.00  0.00    +0.144 HD
ATOM     21  H   UNL     1      -2.599  -2.111  -0.489  0.00  0.00    +0.144 HD
BRANCH  18  22
ATOM     22  O   UNL     1      -3.692  -0.291   0.509  0.00  0.00    -0.408 OA
ATOM     23  H   UNL     1      -4.335   0.322   0.891  0.00  0.00    +0.328 HD
ENDBRANCH  18  22
ENDBRANCH  16  17
ENDBRANCH  14  16
ENDBRANCH   1  14
TORSDOF 5
