REMARK  Name = ZINC45267017
REMARK  9 active torsions:
REMARK  status: ('A' for Active; 'I' for Inactive)
REMARK    1  A    between atoms: C_1  and  C_2
REMARK    2  A    between atoms: C_3  and  C_7
REMARK    3  A    between atoms: C_10  and  S_13
REMARK    4  A    between atoms: N_11  and  N_12
REMARK    5  A    between atoms: S_13  and  C_14
REMARK    6  A    between atoms: C_14  and  C_15
REMARK    7  A    between atoms: N_17  and  N_18
REMARK    8  A    between atoms: C_21  and  C_25
REMARK    9  A    between atoms: C_21  and  C_26
REMARK                            x       y       z     vdW  Elec       q    Type
REMARK                         _______ _______ _______ _____ _____    ______ ____
ROOT
ATOM      1  C   UNL     1      -8.784   0.369   0.057  0.00  0.00    +0.240 C 
ATOM      2  O   UNL     1      -9.179  -0.777   0.059  0.00  0.00    -0.273 OA
ATOM      3  N   UNL     1      -9.668   1.386   0.064  0.00  0.00    -0.223 N 
ATOM      4  H   UNL     1      -9.352   2.304   0.063  0.00  0.00    +0.174 HD
ENDROOT
BRANCH   3   5
ATOM      5  N   UNL     1     -11.043   1.119   0.074  0.00  0.00    -0.137 N 
ATOM      6  C   UNL     1     -11.848   1.254  -0.998  0.00  0.00    +0.267 C 
ATOM      7  O   UNL     1     -11.531   1.615  -2.111  0.00  0.00    -0.271 OA
ATOM      8  C   UNL     1     -13.233   0.858  -0.524  0.00  0.00    +0.137 C 
ATOM      9  N   UNL     1     -13.028   0.514   0.894  0.00  0.00    -0.280 N 
ATOM     10  C   UNL     1     -11.719   0.693   1.148  0.00  0.00    +0.327 C 
ATOM     11  O   UNL     1     -11.207   0.493   2.232  0.00  0.00    -0.251 OA
ATOM     12  C   UNL     1     -13.742  -0.356  -1.304  0.00  0.00    +0.047 C 
ATOM     13  H   UNL     1     -13.704   0.214   1.521  0.00  0.00    +0.152 HD
BRANCH   8  14
ATOM     14  C   UNL     1     -14.189   2.015  -0.656  0.00  0.00    -0.015 A 
ATOM     15  C   UNL     1     -14.006   2.952  -1.655  0.00  0.00    +0.006 A 
ATOM     16  C   UNL     1     -14.884   4.014  -1.776  0.00  0.00    +0.000 A 
ATOM     17  C   UNL     1     -15.944   4.137  -0.899  0.00  0.00    +0.000 A 
ATOM     18  C   UNL     1     -16.128   3.199   0.100  0.00  0.00    +0.000 A 
ATOM     19  C   UNL     1     -15.253   2.135   0.218  0.00  0.00    +0.006 A 
ENDBRANCH   8  14
ENDBRANCH   3   5
BRANCH   1  20
ATOM     20  C   UNL     1      -7.305   0.657   0.047  0.00  0.00    +0.174 C 
BRANCH  20  21
ATOM     21  S   UNL     1      -6.385  -0.906   0.039  0.00  0.00    -0.075 S 
BRANCH  21  25
ATOM     22  C   UNL     1      -2.510  -0.400   0.013  0.00  0.00    +0.185 A 
ATOM     23  N   UNL     1      -2.963   0.832   0.017  0.00  0.00    -0.127 NA
ATOM     24  N   UNL     1      -4.248   0.828   0.025  0.00  0.00    -0.121 NA
ATOM     25  C   UNL     1      -4.695  -0.406   0.027  0.00  0.00    +0.209 A 
ATOM     26  N   UNL     1      -3.605  -1.232   0.013  0.00  0.00    -0.224 N 
BRANCH  22  29
ATOM     27  C   UNL     1      -0.018   1.503   0.010  0.00  0.00    +0.087 C 
ATOM     28  C   UNL     1       0.002  -0.004   0.002  0.00  0.00    +0.112 A 
ATOM     29  C   UNL     1      -1.091  -0.815   0.003  0.00  0.00    +0.061 A 
ATOM     30  C   UNL     1      -0.568  -2.187  -0.008  0.00  0.00    +0.053 A 
ATOM     31  C   UNL     1       0.770  -2.074  -0.014  0.00  0.00    +0.196 A 
ATOM     32  O   UNL     1       1.100  -0.773  -0.013  0.00  0.00    -0.467 OA
ENDBRANCH  22  29
BRANCH  26  33
ATOM     33  N   UNL     1      -3.604  -2.598   0.004  0.00  0.00    -0.295 N 
ATOM     34  H   UNL     1      -3.598  -2.966   0.944  0.00  0.00    +0.163 HD
ATOM     35  H   UNL     1      -4.388  -2.957  -0.520  0.00  0.00    +0.163 HD
ENDBRANCH  26  33
ENDBRANCH  21  25
ENDBRANCH  20  21
ENDBRANCH   1  20
TORSDOF 7
