REMARK  Name = ZINC59599441
REMARK  10 active torsions:
REMARK  status: ('A' for Active; 'I' for Inactive)
REMARK    1  A    between atoms: C_1  and  N_2
REMARK    2  A    between atoms: C_3  and  N_32
REMARK    3  A    between atoms: C_4  and  O_11
REMARK    4  A    between atoms: N_7  and  C_10
REMARK    5  A    between atoms: O_11  and  C_12
REMARK    6  A    between atoms: C_15  and  C_20
REMARK    7  A    between atoms: C_17  and  O_18
REMARK    8  A    between atoms: O_18  and  C_19
REMARK    9  A    between atoms: N_21  and  N_22
REMARK   10  A    between atoms: C_23  and  C_25
REMARK                            x       y       z     vdW  Elec       q    Type
REMARK                         _______ _______ _______ _____ _____    ______ ____
ROOT
ATOM      1  C   UNL     1      -3.473  -2.062  -0.033  0.00  0.00    +0.171 A 
ATOM      2  C   UNL     1      -3.442  -0.689  -0.231  0.00  0.00    +0.066 A 
ATOM      3  C   UNL     1      -4.619   0.027  -0.302  0.00  0.00    +0.030 A 
ATOM      4  C   UNL     1      -5.846  -0.631  -0.174  0.00  0.00    +0.012 A 
ATOM      5  C   UNL     1      -5.875  -2.014   0.025  0.00  0.00    +0.060 A 
ATOM      6  C   UNL     1      -4.692  -2.725   0.090  0.00  0.00    +0.163 A 
ATOM      7 BR   UNL     1      -4.573   1.898  -0.572  0.00  0.00    -0.050 Br
ENDROOT
BRANCH   6   8
ATOM      8  O   UNL     1      -4.718  -4.072   0.280  0.00  0.00    -0.491 OA
ATOM      9  C   UNL     1      -6.003  -4.686   0.397  0.00  0.00    +0.277 C 
ENDBRANCH   6   8
BRANCH   4  10
ATOM     10  C   UNL     1      -7.104   0.132  -0.249  0.00  0.00    +0.139 C 
ATOM     11  N   UNL     1      -7.075   1.416  -0.435  0.00  0.00    -0.187 NA
BRANCH  11  12
ATOM     12  N   UNL     1      -8.272   2.141  -0.506  0.00  0.00    -0.203 N 
ATOM     13  C   UNL     1      -8.241   3.475  -0.698  0.00  0.00    +0.263 C 
ATOM     14  O   UNL     1      -7.175   4.049  -0.810  0.00  0.00    -0.268 OA
ATOM     15  H   UNL     1      -9.122   1.683  -0.417  0.00  0.00    +0.178 HD
BRANCH  13  16
ATOM     16  C   UNL     1      -9.504   4.240  -0.774  0.00  0.00    +0.038 A 
ATOM     17  C   UNL     1     -10.729   3.585  -0.640  0.00  0.00    +0.013 A 
ATOM     18  C   UNL     1     -11.904   4.305  -0.711  0.00  0.00    +0.001 A 
ATOM     19  C   UNL     1     -11.869   5.673  -0.914  0.00  0.00    +0.000 A 
ATOM     20  C   UNL     1     -10.658   6.328  -1.047  0.00  0.00    +0.001 A 
ATOM     21  C   UNL     1      -9.475   5.621  -0.973  0.00  0.00    +0.013 A 
ENDBRANCH  13  16
ENDBRANCH  11  12
ENDBRANCH   4  10
BRANCH   1  22
ATOM     22  O   UNL     1      -2.311  -2.763   0.036  0.00  0.00    -0.443 OA
BRANCH  22  26
ATOM     23  C   UNL     1       1.818  -1.553  -2.159  0.00  0.00    +0.155 C 
ATOM     24  N   UNL     1       0.893  -1.450  -1.028  0.00  0.00    -0.282 N 
ATOM     25  C   UNL     1      -0.282  -2.166  -1.038  0.00  0.00    +0.149 A 
ATOM     26  C   UNL     1      -1.140  -2.064   0.023  0.00  0.00    +0.230 A 
ATOM     27  C   UNL     1      -0.796  -1.228   1.100  0.00  0.00    +0.301 A 
ATOM     28  O   UNL     1      -1.544  -1.121   2.057  0.00  0.00    -0.263 OA
ATOM     29  N   UNL     1       0.365  -0.545   1.068  0.00  0.00    -0.261 N 
ATOM     30  C   UNL     1       1.199  -0.661   0.018  0.00  0.00    +0.333 A 
ATOM     31  O   UNL     1       2.244  -0.040   0.013  0.00  0.00    -0.246 OA
ATOM     32  C   UNL     1       0.726   0.327   2.188  0.00  0.00    +0.157 C 
BRANCH  25  33
ATOM     33  N   UNL     1      -0.592  -2.976  -2.106  0.00  0.00    -0.341 N 
ATOM     34  H   UNL     1      -0.018  -2.989  -2.887  0.00  0.00    +0.144 HD
ATOM     35  H   UNL     1      -1.385  -3.534  -2.077  0.00  0.00    +0.144 HD
ENDBRANCH  25  33
ENDBRANCH  22  26
ENDBRANCH   1  22
TORSDOF 7
