REMARK  Name = ZINC35590900
REMARK  12 active torsions:
REMARK  status: ('A' for Active; 'I' for Inactive)
REMARK    1  A    between atoms: C_1  and  C_2
REMARK    2  A    between atoms: C_5  and  C_8
REMARK    3  A    between atoms: N_10  and  C_17
REMARK    4  A    between atoms: N_13  and  C_14
REMARK    5  A    between atoms: C_14  and  C_15
REMARK    6  A    between atoms: C_14  and  C_16
REMARK    7  A    between atoms: C_19  and  N_32
REMARK    8  A    between atoms: C_21  and  O_31
REMARK    9  A    between atoms: C_23  and  O_30
REMARK   10  A    between atoms: C_25  and  C_28
REMARK   11  A    between atoms: C_28  and  O_29
REMARK   12  A    between atoms: C_33  and  C_35
REMARK                            x       y       z     vdW  Elec       q    Type
REMARK                         _______ _______ _______ _____ _____    ______ ____
ROOT
ATOM      1  C   UNL     1       0.234  -7.500  -1.560  0.00  0.00    +0.262 C 
ATOM      2  C   UNL     1       1.035  -7.133  -2.812  0.00  0.00    +0.155 C 
ATOM      3  C   UNL     1       1.070  -8.338  -3.758  0.00  0.00    +0.170 C 
ATOM      4  C   UNL     1      -0.366  -8.755  -4.088  0.00  0.00    +0.176 C 
ATOM      5  C   UNL     1      -1.113  -9.059  -2.787  0.00  0.00    +0.177 C 
ATOM      6  O   UNL     1      -1.082  -7.908  -1.941  0.00  0.00    -0.345 OA
ENDROOT
BRANCH   1   9
ATOM      7  C   UNL     1      -0.133  -4.271   0.002  0.00  0.00    +0.163 A 
ATOM      8  N   UNL     1      -0.148  -5.020  -1.065  0.00  0.00    -0.148 NA
ATOM      9  N   UNL     1       0.148  -6.334  -0.677  0.00  0.00    -0.209 N 
ATOM     10  C   UNL     1       0.338  -6.330   0.659  0.00  0.00    +0.181 A 
ATOM     11  S   UNL     1       0.724  -7.686   1.629  0.00  0.00    -0.011 S 
ATOM     12  N   UNL     1       0.173  -5.064   1.090  0.00  0.00    -0.300 N 
BRANCH   7  17
ATOM     13  C   UNL     1      -1.146   1.393   0.147  0.00  0.00    +0.044 C 
ATOM     14  C   UNL     1      -0.881  -0.090   0.109  0.00  0.00    -0.050 A 
ATOM     15  C   UNL     1      -1.246  -0.883   1.182  0.00  0.00    +0.004 A 
ATOM     16  C   UNL     1      -1.006  -2.241   1.153  0.00  0.00    +0.012 A 
ATOM     17  C   UNL     1      -0.394  -2.815   0.039  0.00  0.00    +0.019 A 
ATOM     18  C   UNL     1      -0.027  -2.010  -1.040  0.00  0.00    +0.012 A 
ATOM     19  C   UNL     1      -0.278  -0.654  -1.002  0.00  0.00    +0.004 A 
ENDBRANCH   7  17
BRANCH  12  20
ATOM     20  C   UNL     1       0.295  -4.607   2.477  0.00  0.00    +0.085 C 
ATOM     21  C   UNL     1      -0.804  -5.250   3.325  0.00  0.00    +0.030 C 
ATOM     22  C   UNL     1       1.665  -5.010   3.028  0.00  0.00    +0.030 C 
ENDBRANCH  12  20
ENDBRANCH   1   9
BRANCH   2  23
ATOM     23  N   UNL     1       0.399  -5.998  -3.486  0.00  0.00    -0.306 N 
ATOM     24  C   UNL     1       1.130  -5.186  -4.275  0.00  0.00    +0.210 C 
ATOM     25  O   UNL     1       2.315  -5.395  -4.426  0.00  0.00    -0.276 OA
ATOM     26  C   UNL     1       0.476  -4.019  -4.968  0.00  0.00    +0.109 C 
ATOM     27  H   UNL     1      -0.549  -5.832  -3.365  0.00  0.00    +0.149 HD
ENDBRANCH   2  23
BRANCH   4  28
ATOM     28  O   UNL     1      -1.025  -7.692  -4.781  0.00  0.00    -0.387 OA
ATOM     29  H   UNL     1      -1.940  -7.888  -5.022  0.00  0.00    +0.210 HD
ENDBRANCH   4  28
BRANCH   3  30
ATOM     30  O   UNL     1       1.755  -7.982  -4.960  0.00  0.00    -0.387 OA
ATOM     31  H   UNL     1       1.815  -8.699  -5.606  0.00  0.00    +0.210 HD
ENDBRANCH   3  30
BRANCH   5  32
ATOM     32  C   UNL     1      -2.566  -9.418  -3.105  0.00  0.00    +0.190 C 
BRANCH  32  33
ATOM     33  O   UNL     1      -3.232  -9.815  -1.904  0.00  0.00    -0.392 OA
ATOM     34  H   UNL     1      -4.160 -10.057  -2.031  0.00  0.00    +0.210 HD
ENDBRANCH  32  33
ENDBRANCH   5  32
TORSDOF 8
