REMARK  Name = ZINC09165838
REMARK  8 active torsions:
REMARK  status: ('A' for Active; 'I' for Inactive)
REMARK    1  A    between atoms: C_1  and  C_2
REMARK    2  A    between atoms: N_4  and  C_5
REMARK    3  A    between atoms: C_8  and  S_12
REMARK    4  A    between atoms: S_12  and  N_15
REMARK    5  A    between atoms: N_15  and  C_16
REMARK    6  A    between atoms: C_24  and  C_29
REMARK    7  A    between atoms: C_24  and  C_30
REMARK    8  A    between atoms: N_27  and  C_28
REMARK                            x       y       z     vdW  Elec       q    Type
REMARK                         _______ _______ _______ _____ _____    ______ ____
ROOT
ATOM      1  N   UNL     1      -0.905  -1.212  -0.434  0.00  0.00    -0.216 N 
ATOM      2  H   UNL     1      -0.882  -2.041   0.070  0.00  0.00    +0.174 HD
ENDROOT
BRANCH   1   3
ATOM      3  C   UNL     1       0.195  -0.348  -0.410  0.00  0.00    +0.052 A 
ATOM      4  C   UNL     1       0.001   1.017  -0.243  0.00  0.00    +0.026 A 
ATOM      5  C   UNL     1       1.086   1.873  -0.217  0.00  0.00    +0.029 A 
ATOM      6  C   UNL     1       2.368   1.369  -0.358  0.00  0.00    +0.078 A 
ATOM      7  C   UNL     1       2.566  -0.000  -0.530  0.00  0.00    +0.144 A 
ATOM      8  C   UNL     1       1.479  -0.857  -0.554  0.00  0.00    +0.072 A 
ATOM      9  O   UNL     1       3.827  -0.485  -0.681  0.00  0.00    -0.489 OA
ATOM     10  C   UNL     1       4.459  -0.277  -1.941  0.00  0.00    +0.244 C 
ATOM     11  C   UNL     1       4.222   1.151  -2.428  0.00  0.00    +0.076 C 
ATOM     12  C   UNL     1       4.420   2.124  -1.295  0.00  0.00    +0.229 C 
ATOM     13  O   UNL     1       5.418   2.812  -1.248  0.00  0.00    -0.275 OA
ATOM     14  N   UNL     1       3.479   2.226  -0.329  0.00  0.00    -0.271 N 
ATOM     15  C   UNL     1       3.618   3.221   0.737  0.00  0.00    +0.138 C 
ATOM     16  C   UNL     1       2.793   1.275  -2.960  0.00  0.00    +0.024 C 
ATOM     17  C   UNL     1       5.211   1.472  -3.551  0.00  0.00    +0.024 C 
ENDBRANCH   1   3
BRANCH   1  18
ATOM     18  S   UNL     1      -2.246  -0.821  -1.323  0.00  0.00    +0.072 S 
ATOM     19  O   UNL     1      -3.164  -1.894  -1.167  0.00  0.00    -0.150 OA
ATOM     20  O   UNL     1      -2.578   0.520  -0.989  0.00  0.00    -0.150 OA
BRANCH  18  24
ATOM     21  C   UNL     1      -1.005  -0.797  -5.680  0.00  0.00    +0.069 A 
ATOM     22  C   UNL     1      -0.913   0.364  -4.923  0.00  0.00    +0.028 A 
ATOM     23  C   UNL     1      -1.298   0.354  -3.596  0.00  0.00    +0.031 A 
ATOM     24  C   UNL     1      -1.764  -0.812  -3.018  0.00  0.00    +0.111 A 
ATOM     25  C   UNL     1      -1.857  -1.971  -3.767  0.00  0.00    +0.069 A 
ATOM     26  C   UNL     1      -1.478  -1.967  -5.097  0.00  0.00    +0.146 A 
ATOM     27  F   UNL     1      -1.569  -3.099  -5.830  0.00  0.00    -0.203 F 
BRANCH  21  31
ATOM     28  C   UNL     1      -0.390   0.335  -9.218  0.00  0.00    +0.109 C 
ATOM     29  C   UNL     1      -0.705   0.349  -7.745  0.00  0.00    +0.214 C 
ATOM     30  O   UNL     1      -1.034   1.384  -7.205  0.00  0.00    -0.276 OA
ATOM     31  N   UNL     1      -0.621  -0.788  -7.027  0.00  0.00    -0.283 N 
ATOM     32  H   UNL     1      -0.294  -1.601  -7.442  0.00  0.00    +0.155 HD
ENDBRANCH  21  31
ENDBRANCH  18  24
ENDBRANCH   1  18
TORSDOF 4
