REMARK  Name = ZINC12391152
REMARK  7 active torsions:
REMARK  status: ('A' for Active; 'I' for Inactive)
REMARK    1  A    between atoms: C_1  and  C_2
REMARK    2  A    between atoms: C_2  and  C_27
REMARK    3  A    between atoms: C_4  and  N_9
REMARK    4  A    between atoms: C_6  and  C_7
REMARK    5  A    between atoms: C_6  and  C_8
REMARK    6  A    between atoms: C_10  and  C_12
REMARK    7  A    between atoms: C_14  and  C_17
REMARK                            x       y       z     vdW  Elec       q    Type
REMARK                         _______ _______ _______ _____ _____    ______ ____
ROOT
ATOM      1  N   UNL     1      -6.761  -0.576   0.028  0.00  0.00    -0.305 N 
ATOM      2  C   UNL     1      -6.043   0.564   0.032  0.00  0.00    +0.302 C 
ATOM      3  O   UNL     1      -6.610   1.639   0.040  0.00  0.00    -0.265 OA
ATOM      4  H   UNL     1      -6.309  -1.434   0.022  0.00  0.00    +0.149 HD
ENDROOT
BRANCH   1   8
ATOM      5  C   UNL     1     -10.819  -0.838  -1.662  0.00  0.00    -0.010 C 
ATOM      6  C   UNL     1     -10.310  -1.783  -0.567  0.00  0.00    -0.072 C 
ATOM      7  C   UNL     1      -8.784  -1.805  -0.580  0.00  0.00    +0.009 C 
ATOM      8  C   UNL     1      -8.229  -0.520   0.035  0.00  0.00    +0.071 C 
ATOM      9  C   UNL     1      -8.722  -0.420   1.478  0.00  0.00    +0.009 C 
ATOM     10  C   UNL     1     -10.248  -0.383   1.517  0.00  0.00    -0.072 C 
ATOM     11  C   UNL     1     -10.739   1.002   1.077  0.00  0.00    -0.010 C 
ATOM     12  C   UNL     1     -10.680  -0.575   2.988  0.00  0.00    -0.010 C 
ATOM     13  C   UNL     1     -10.799  -3.204  -0.927  0.00  0.00    -0.010 C 
ATOM     14  N   UNL     1     -10.921  -1.467   0.752  0.00  0.00    +0.386 N 
ATOM     15  H   UNL     1     -10.901  -2.320   1.325  0.00  0.00    -0.084 HD
ATOM     16  H   UNL     1     -11.895  -1.185   0.593  0.00  0.00    -0.084 HD
ENDBRANCH   1   8
BRANCH   2  17
ATOM     17  C   UNL     1      -4.562   0.508   0.025  0.00  0.00    +0.314 A 
ATOM     18  N   UNL     1      -3.739   1.535   0.027  0.00  0.00    -0.183 NA
ATOM     19  C   UNL     1      -2.498   1.005   0.019  0.00  0.00    +0.203 A 
ATOM     20  N   UNL     1      -2.630  -0.297   0.006  0.00  0.00    -0.055 NA
ATOM     21  O   UNL     1      -3.805  -0.600   0.015  0.00  0.00    -0.328 OA
BRANCH  19  22
ATOM     22  C   UNL     1      -1.220   1.760   0.017  0.00  0.00    +0.023 A 
ATOM     23  C   UNL     1      -1.235   3.158   0.030  0.00  0.00    +0.014 A 
ATOM     24  C   UNL     1      -0.069   3.867   0.024  0.00  0.00    +0.027 A 
ATOM     25  C   UNL     1       1.155   3.203   0.008  0.00  0.00    +0.046 A 
ATOM     26  C   UNL     1       1.182   1.796   0.000  0.00  0.00    +0.000 A 
ATOM     27  C   UNL     1      -0.013   1.076   0.008  0.00  0.00    +0.021 A 
ATOM     28  C   UNL     1       2.597   1.417  -0.015  0.00  0.00    +0.027 A 
ATOM     29  C   UNL     1       3.307   2.557  -0.016  0.00  0.00    +0.083 A 
ATOM     30  N   UNL     1       2.462   3.633  -0.002  0.00  0.00    -0.361 N 
ATOM     31  H   UNL     1       2.743   4.561   0.001  0.00  0.00    +0.165 HD
ENDBRANCH  19  22
ENDBRANCH   2  17
TORSDOF 3
