REMARK  Name = ZINC65504094
REMARK  8 active torsions:
REMARK  status: ('A' for Active; 'I' for Inactive)
REMARK    1  A    between atoms: C_5  and  C_7
REMARK    2  A    between atoms: C_7  and  C_8
REMARK    3  A    between atoms: C_8  and  N_9
REMARK    4  A    between atoms: N_12  and  N_13
REMARK    5  A    between atoms: C_14  and  C_16
REMARK    6  A    between atoms: C_16  and  O_17
REMARK    7  A    between atoms: O_17  and  C_18
REMARK    8  A    between atoms: C_23  and  C_24
REMARK                            x       y       z     vdW  Elec       q    Type
REMARK                         _______ _______ _______ _____ _____    ______ ____
ROOT
ATOM      1  N   UNL     1       1.395  -4.167   1.402  0.00  0.00    -0.298 N 
ATOM      2  C   UNL     1       1.518  -4.846   2.560  0.00  0.00    +0.316 C 
ATOM      3  O   UNL     1       1.612  -4.243   3.612  0.00  0.00    -0.251 OA
ATOM      4  N   UNL     1       1.536  -6.194   2.552  0.00  0.00    -0.218 N 
ATOM      5  H   UNL     1       1.320  -4.648   0.564  0.00  0.00    +0.150 HD
ATOM      6  H   UNL     1       1.624  -6.683   3.386  0.00  0.00    +0.174 HD
ENDROOT
BRANCH   4   7
ATOM      7  N   UNL     1       1.427  -6.889   1.341  0.00  0.00    -0.230 N 
ATOM      8  C   UNL     1       1.446  -8.236   1.333  0.00  0.00    +0.267 C 
ATOM      9  O   UNL     1       1.556  -8.848   2.375  0.00  0.00    -0.271 OA
ATOM     10  H   UNL     1       1.339  -6.400   0.507  0.00  0.00    +0.173 HD
BRANCH   8  11
ATOM     11  C   UNL     1       1.329  -8.984   0.030  0.00  0.00    +0.326 C 
BRANCH  11  12
ATOM     12  O   UNL     1       1.373 -10.390   0.281  0.00  0.00    -0.481 OA
BRANCH  12  13
ATOM     13  C   UNL     1       1.280 -11.212  -0.794  0.00  0.00    +0.138 A 
ATOM     14  C   UNL     1       1.154 -10.680  -2.068  0.00  0.00    +0.047 A 
ATOM     15  C   UNL     1       1.059 -11.517  -3.163  0.00  0.00    +0.004 A 
ATOM     16  C   UNL     1       1.088 -12.892  -2.997  0.00  0.00    +0.001 A 
ATOM     17  C   UNL     1       1.213 -13.438  -1.738  0.00  0.00    +0.022 A 
ATOM     18  C   UNL     1       1.316 -12.602  -0.623  0.00  0.00    +0.093 A 
BRANCH  18  19
ATOM     19  C   UNL     1       1.452 -13.164   0.687  0.00  0.00    +0.103 C 
ATOM     20  N   UNL     1       1.559 -13.609   1.727  0.00  0.00    -0.191 NA
ENDBRANCH  18  19
ENDBRANCH  12  13
ENDBRANCH  11  12
ENDBRANCH   8  11
ENDBRANCH   4   7
BRANCH   1  21
ATOM     21  C   UNL     1       1.376  -2.702   1.411  0.00  0.00    +0.110 C 
BRANCH  21  22
ATOM     22  C   UNL     1       1.229  -2.186  -0.022  0.00  0.00    +0.055 C 
BRANCH  22  27
ATOM     23  C   UNL     1      -0.017   1.378   0.010  0.00  0.00    +0.000 A 
ATOM     24  C   UNL     1       1.171   2.086   0.002  0.00  0.00    +0.001 A 
ATOM     25  C   UNL     1       2.377   1.412  -0.013  0.00  0.00    +0.020 A 
ATOM     26  C   UNL     1       2.397   0.029  -0.021  0.00  0.00    +0.044 A 
ATOM     27  C   UNL     1       1.208  -0.679  -0.013  0.00  0.00    -0.028 A 
ATOM     28  C   UNL     1       0.002  -0.004   0.002  0.00  0.00    +0.005 A 
ATOM     29 CL   UNL     1       3.912  -0.818  -0.041  0.00  0.00    -0.083 Cl
ENDBRANCH  22  27
ENDBRANCH  21  22
ENDBRANCH   1  21
TORSDOF 8
