REMARK  Name = ZINC03259234
REMARK  8 active torsions:
REMARK  status: ('A' for Active; 'I' for Inactive)
REMARK    1  A    between atoms: C_1  and  O_2
REMARK    2  A    between atoms: O_2  and  C_3
REMARK    3  A    between atoms: C_15  and  N_16
REMARK    4  A    between atoms: C_17  and  C_19
REMARK    5  A    between atoms: C_19  and  O_20
REMARK    6  A    between atoms: O_20  and  C_21
REMARK    7  A    between atoms: C_21  and  C_23
REMARK    8  A    between atoms: C_24  and  C_25
REMARK                            x       y       z     vdW  Elec       q    Type
REMARK                         _______ _______ _______ _____ _____    ______ ____
ROOT
ATOM      1  N   UNL     1       0.093  -2.773  -0.108  0.00  0.00    -0.280 N 
ATOM      2  C   UNL     1       0.054  -4.115  -0.221  0.00  0.00    +0.255 C 
ATOM      3  O   UNL     1       0.591  -4.661  -1.162  0.00  0.00    -0.272 OA
ATOM      4  H   UNL     1      -0.279  -2.341   0.677  0.00  0.00    +0.155 HD
ENDROOT
BRANCH   1  17
ATOM      5  C   UNL     1       0.136  -0.750  -1.433  0.00  0.00    +0.142 A 
ATOM      6  C   UNL     1       0.706   0.017  -2.431  0.00  0.00    +0.059 A 
ATOM      7  C   UNL     1       1.810  -0.466  -3.128  0.00  0.00    +0.031 A 
ATOM      8  C   UNL     1       2.645   0.071  -4.220  0.00  0.00    +0.028 A 
ATOM      9  C   UNL     1       2.634   1.254  -4.951  0.00  0.00    +0.012 A 
ATOM     10  C   UNL     1       3.580   1.459  -5.934  0.00  0.00    +0.001 A 
ATOM     11  C   UNL     1       4.536   0.489  -6.192  0.00  0.00    +0.004 A 
ATOM     12  C   UNL     1       4.555  -0.687  -5.472  0.00  0.00    +0.047 A 
ATOM     13  C   UNL     1       3.611  -0.911  -4.478  0.00  0.00    +0.136 A 
ATOM     14  O   UNL     1       3.403  -1.949  -3.638  0.00  0.00    -0.455 OA
ATOM     15  C   UNL     1       2.347  -1.725  -2.824  0.00  0.00    +0.138 A 
ATOM     16  C   UNL     1       1.765  -2.487  -1.819  0.00  0.00    +0.074 A 
ATOM     17  C   UNL     1       0.670  -2.001  -1.124  0.00  0.00    +0.079 A 
BRANCH   5  19
ATOM     18  C   UNL     1      -1.438   1.006  -1.118  0.00  0.00    +0.277 C 
ATOM     19  O   UNL     1      -0.943  -0.282  -0.749  0.00  0.00    -0.493 OA
ENDBRANCH   5  19
ENDBRANCH   1  17
BRANCH   2  20
ATOM     20  C   UNL     1      -0.657  -4.939   0.822  0.00  0.00    +0.328 C 
BRANCH  20  21
ATOM     21  O   UNL     1      -0.560  -6.324   0.483  0.00  0.00    -0.452 OA
BRANCH  21  22
ATOM     22  C   UNL     1      -1.148  -7.202   1.321  0.00  0.00    +0.332 C 
ATOM     23  O   UNL     1      -1.728  -6.802   2.312  0.00  0.00    -0.246 OA
BRANCH  22  24
ATOM     24  C   UNL     1      -1.089  -8.635   1.037  0.00  0.00    +0.092 C 
ATOM     25  C   UNL     1      -1.678  -9.514   1.875  0.00  0.00    +0.015 C 
BRANCH  25  26
ATOM     26  C   UNL     1      -1.618 -10.956   1.589  0.00  0.00    -0.025 A 
ATOM     27  C   UNL     1      -0.948 -11.421   0.454  0.00  0.00    +0.008 A 
ATOM     28  C   UNL     1      -0.896 -12.774   0.193  0.00  0.00    +0.001 A 
ATOM     29  C   UNL     1      -1.506 -13.671   1.052  0.00  0.00    +0.000 A 
ATOM     30  C   UNL     1      -2.171 -13.220   2.178  0.00  0.00    +0.001 A 
ATOM     31  C   UNL     1      -2.227 -11.870   2.456  0.00  0.00    +0.008 A 
ENDBRANCH  25  26
ENDBRANCH  22  24
ENDBRANCH  21  22
ENDBRANCH  20  21
ENDBRANCH   2  20
TORSDOF 7
