REMARK  Name = ZINC36636277
REMARK  5 active torsions:
REMARK  status: ('A' for Active; 'I' for Inactive)
REMARK    1  A    between atoms: C_1  and  C_2
REMARK    2  A    between atoms: C_4  and  S_10
REMARK    3  A    between atoms: S_10  and  N_13
REMARK    4  A    between atoms: N_13  and  C_14
REMARK    5  A    between atoms: C_14  and  C_15
REMARK                            x       y       z     vdW  Elec       q    Type
REMARK                         _______ _______ _______ _____ _____    ______ ____
ROOT
ATOM      1  S   UNL     1       0.028  -2.942  -2.739  0.00  0.00    +0.060 S 
ATOM      2  O   UNL     1      -0.984  -3.935  -2.643  0.00  0.00    -0.153 OA
ATOM      3  O   UNL     1       0.036  -1.959  -3.765  0.00  0.00    -0.153 OA
ENDROOT
BRANCH   1   7
ATOM      4  C   UNL     1      -0.018   1.503   0.010  0.00  0.00    +0.045 C 
ATOM      5  C   UNL     1       0.002  -0.004   0.002  0.00  0.00    -0.030 A 
ATOM      6  C   UNL     1       0.006  -0.689  -1.199  0.00  0.00    +0.034 A 
ATOM      7  C   UNL     1       0.025  -2.070  -1.208  0.00  0.00    +0.124 A 
ATOM      8  C   UNL     1       0.040  -2.770  -0.013  0.00  0.00    +0.069 A 
ATOM      9  C   UNL     1       0.037  -2.085   1.188  0.00  0.00    +0.042 A 
ATOM     10  C   UNL     1       0.023  -0.702   1.196  0.00  0.00    +0.045 A 
ATOM     11 CL   UNL     1       0.025   0.158   2.704  0.00  0.00    -0.083 Cl
ATOM     12 CL   UNL     1       0.063  -4.505  -0.024  0.00  0.00    -0.081 Cl
ENDBRANCH   1   7
BRANCH   1  13
ATOM     13  N   UNL     1       1.472  -3.746  -2.841  0.00  0.00    -0.186 NA
ATOM     14  H   UNL     1       2.112  -3.507  -3.531  0.00  0.00    +0.148 HD
BRANCH  13  15
ATOM     15  C   UNL     1       1.784  -4.816  -1.891  0.00  0.00    +0.136 C 
BRANCH  15  16
ATOM     16  C   UNL     1       2.951  -5.619  -2.404  0.00  0.00    -0.058 C 
ATOM     17  C   UNL     1       4.134  -5.310  -1.979  0.00  0.00    -0.026 C 
ATOM     18  C   UNL     1       5.391  -6.010  -2.407  0.00  0.00    +0.027 C 
ATOM     19  C   UNL     1       5.052  -7.358  -3.046  0.00  0.00    +0.004 C 
ATOM     20  C   UNL     1       3.957  -7.136  -4.097  0.00  0.00    +0.005 C 
ATOM     21  C   UNL     1       2.670  -6.731  -3.371  0.00  0.00    +0.032 C 
ENDBRANCH  15  16
ENDBRANCH  13  15
ENDBRANCH   1  13
TORSDOF 4
