REMARK  Name = ZINC34036632
REMARK  12 active torsions:
REMARK  status: ('A' for Active; 'I' for Inactive)
REMARK    1  A    between atoms: C_1  and  C_2
REMARK    2  A    between atoms: C_2  and  C_3
REMARK    3  A    between atoms: C_16  and  O_35
REMARK    4  A    between atoms: N_19  and  C_34
REMARK    5  A    between atoms: C_22  and  C_29
REMARK    6  A    between atoms: C_22  and  O_33
REMARK    7  A    between atoms: C_23  and  O_25
REMARK    8  A    between atoms: O_25  and  C_26
REMARK    9  A    between atoms: C_26  and  C_28
REMARK   10  A    between atoms: C_29  and  O_31
REMARK   11  A    between atoms: O_31  and  C_32
REMARK   12  A    between atoms: O_35  and  C_36
REMARK                            x       y       z     vdW  Elec       q    Type
REMARK                         _______ _______ _______ _____ _____    ______ ____
ROOT
ATOM      1  C   UNL     1      -1.877  -0.791   0.403  0.00  0.00    +0.018 C 
ATOM      2  C   UNL     1      -2.712  -0.651  -0.829  0.00  0.00    -0.024 C 
ATOM      3  C   UNL     1      -2.752  -1.650  -1.668  0.00  0.00    -0.049 C 
ATOM      4  C   UNL     1      -2.038  -2.946  -1.486  0.00  0.00    -0.051 C 
ATOM      5  N   UNL     1      -1.613  -3.256  -0.131  0.00  0.00    +0.385 N 
ATOM      6  C   UNL     1      -1.847  -2.220   0.864  0.00  0.00    -0.042 C 
ATOM      7  C   UNL     1      -3.095  -2.632   1.619  0.00  0.00    +0.007 C 
ATOM      8  C   UNL     1      -2.814  -4.138   1.797  0.00  0.00    -0.007 C 
ATOM      9  C   UNL     1      -2.299  -4.484   0.366  0.00  0.00    -0.077 C 
ATOM     10  C   UNL     1      -4.424  -2.488   0.945  0.00  0.00    -0.020 A 
ATOM     11  C   UNL     1      -4.854  -2.688  -0.346  0.00  0.00    +0.009 A 
ATOM     12  C   UNL     1      -6.179  -2.396  -0.648  0.00  0.00    +0.046 A 
ATOM     13  C   UNL     1      -7.065  -1.972   0.327  0.00  0.00    +0.122 A 
ATOM     14  C   UNL     1      -6.675  -1.859   1.657  0.00  0.00    +0.069 A 
ATOM     15  C   UNL     1      -5.346  -2.131   1.961  0.00  0.00    +0.037 A 
ATOM     16  N   UNL     1      -4.696  -2.155   3.178  0.00  0.00    -0.325 N 
ATOM     17  C   UNL     1      -3.276  -1.819   2.902  0.00  0.00    +0.128 C 
ATOM     18  C   UNL     1      -3.150  -0.334   2.618  0.00  0.00    +0.219 C 
ATOM     19  C   UNL     1      -2.221   0.140   1.536  0.00  0.00    +0.229 C 
ATOM     20  C   UNL     1      -5.349  -1.560   4.312  0.00  0.00    +0.129 C 
ATOM     21  H   UNL     1      -0.523  -3.353  -0.242  0.00  0.00    -0.081 HD
ENDROOT
BRANCH   1  23
ATOM     22  C   UNL     1      -0.402   0.965  -0.612  0.00  0.00    +0.005 C 
ATOM     23  C   UNL     1      -0.434  -0.444  -0.016  0.00  0.00    +0.010 C 
ENDBRANCH   1  23
BRANCH  18  24
ATOM     24  C   UNL     1      -2.663   0.334   3.891  0.00  0.00    +0.345 C 
ATOM     25  O   UNL     1      -1.886  -0.241   4.615  0.00  0.00    -0.247 OA
BRANCH  24  26
ATOM     26  O   UNL     1      -3.097   1.563   4.212  0.00  0.00    -0.466 OA
ATOM     27  C   UNL     1      -2.590   2.140   5.444  0.00  0.00    +0.280 C 
ENDBRANCH  24  26
ENDBRANCH  18  24
BRANCH  18  28
ATOM     28  O   UNL     1      -4.429   0.229   2.322  0.00  0.00    -0.373 OA
ATOM     29  H   UNL     1      -4.519   1.300   2.091  0.00  0.00    +0.211 HD
ENDBRANCH  18  28
BRANCH  13  30
ATOM     30  O   UNL     1      -8.344  -1.671  -0.019  0.00  0.00    -0.495 OA
ATOM     31  C   UNL     1      -8.694  -1.816  -1.396  0.00  0.00    +0.277 C 
ENDBRANCH  13  30
BRANCH  19  32
ATOM     32  O   UNL     1      -2.786   1.359   0.975  0.00  0.00    -0.457 OA
BRANCH  32  33
ATOM     33  C   UNL     1      -2.305   2.523   1.439  0.00  0.00    +0.304 C 
ATOM     34  O   UNL     1      -1.375   2.528   2.211  0.00  0.00    -0.251 OA
ATOM     35  C   UNL     1      -2.924   3.824   0.997  0.00  0.00    +0.136 C 
ENDBRANCH  32  33
ENDBRANCH  19  32
TORSDOF 7
