REMARK  Name = ZINC66873956
REMARK  8 active torsions:
REMARK  status: ('A' for Active; 'I' for Inactive)
REMARK    1  A    between atoms: C_4  and  C_7
REMARK    2  A    between atoms: C_7  and  N_8
REMARK    3  A    between atoms: C_9  and  C_11
REMARK    4  A    between atoms: C_11  and  C_12
REMARK    5  A    between atoms: C_12  and  N_13
REMARK    6  A    between atoms: C_17  and  C_20
REMARK    7  A    between atoms: C_20  and  C_21
REMARK    8  A    between atoms: C_21  and  C_22
REMARK                            x       y       z     vdW  Elec       q    Type
REMARK                         _______ _______ _______ _____ _____    ______ ____
ROOT
ATOM      1  N   UNL     1       4.655  -6.085   4.495  0.00  0.00    +0.380 N 
ATOM      2  C   UNL     1       5.500  -6.450   3.352  0.00  0.00    -0.079 C 
ATOM      3  C   UNL     1       5.567  -7.974   3.228  0.00  0.00    -0.018 C 
ATOM      4  C   UNL     1       6.163  -8.559   4.512  0.00  0.00    -0.000 C 
ATOM      5  C   UNL     1       5.316  -8.111   5.707  0.00  0.00    -0.027 C 
ATOM      6  C   UNL     1       5.258  -6.582   5.739  0.00  0.00    -0.075 C 
ATOM      7  H   UNL     1       3.740  -6.495   4.379  0.00  0.00    -0.082 HD
ENDROOT
BRANCH   1   8
ATOM      8  C   UNL     1       4.531  -4.623   4.563  0.00  0.00    -0.070 C 
BRANCH   8   9
ATOM      9  C   UNL     1       3.791  -4.116   3.324  0.00  0.00    +0.077 C 
BRANCH   9  11
ATOM     10  N   UNL     1       3.042  -1.946   2.402  0.00  0.00    -0.315 N 
ATOM     11  C   UNL     1       3.663  -2.616   3.393  0.00  0.00    +0.211 C 
ATOM     12  O   UNL     1       4.119  -2.012   4.341  0.00  0.00    -0.276 OA
ATOM     13  H   UNL     1       2.677  -2.429   1.645  0.00  0.00    +0.149 HD
BRANCH  10  14
ATOM     14  C   UNL     1       2.917  -0.488   2.470  0.00  0.00    +0.107 C 
BRANCH  14  18
ATOM     15  C   UNL     1      -0.019   1.526   0.010  0.00  0.00    +0.000 C 
ATOM     16  C   UNL     1       1.417   2.055  -0.000  0.00  0.00    +0.000 C 
ATOM     17  C   UNL     1       2.157   1.548   1.239  0.00  0.00    +0.005 C 
ATOM     18  C   UNL     1       2.178   0.019   1.231  0.00  0.00    +0.006 C 
ATOM     19  C   UNL     1       0.742  -0.511   1.242  0.00  0.00    +0.005 C 
ATOM     20  C   UNL     1       0.002  -0.004   0.002  0.00  0.00    +0.000 C 
ENDBRANCH  14  18
ENDBRANCH  10  14
ENDBRANCH   9  11
ENDBRANCH   8   9
ENDBRANCH   1   8
BRANCH   5  21
ATOM     21  C   UNL     1       5.945  -8.626   7.002  0.00  0.00    +0.011 C 
BRANCH  21  22
ATOM     22  C   UNL     1       5.894 -10.155   7.021  0.00  0.00    +0.096 C 
BRANCH  22  23
ATOM     23  C   UNL     1       6.514 -10.663   8.297  0.00  0.00    +0.210 C 
ATOM     24  O   UNL     1       6.954  -9.879   9.111  0.00  0.00    -0.276 OA
ATOM     25  N   UNL     1       6.580 -11.988   8.534  0.00  0.00    -0.329 N 
ATOM     26  H   UNL     1       6.228 -12.615   7.883  0.00  0.00    +0.145 HD
ATOM     27  H   UNL     1       6.979 -12.315   9.355  0.00  0.00    +0.145 HD
ENDBRANCH  22  23
ENDBRANCH  21  22
ENDBRANCH   5  21
TORSDOF 8
