REMARK  Name = ZINC40812020
REMARK  8 active torsions:
REMARK  status: ('A' for Active; 'I' for Inactive)
REMARK    1  A    between atoms: C_1  and  C_2
REMARK    2  A    between atoms: C_4  and  C_32
REMARK    3  A    between atoms: C_6  and  N_8
REMARK    4  A    between atoms: C_9  and  C_11
REMARK    5  A    between atoms: C_12  and  C_31
REMARK    6  A    between atoms: N_20  and  N_21
REMARK    7  A    between atoms: C_22  and  C_24
REMARK    8  A    between atoms: C_27  and  O_30
REMARK                            x       y       z     vdW  Elec       q    Type
REMARK                         _______ _______ _______ _____ _____    ______ ____
ROOT
ATOM      1  C   UNL     1       0.277  -2.880   4.818  0.00  0.00    +0.193 A 
ATOM      2  C   UNL     1       0.378  -2.330   6.066  0.00  0.00    +0.009 A 
ATOM      3  C   UNL     1       0.479  -3.403   6.960  0.00  0.00    +0.042 A 
ATOM      4  C   UNL     1       0.436  -4.561   6.220  0.00  0.00    +0.115 A 
ATOM      5  O   UNL     1       0.307  -4.226   4.939  0.00  0.00    -0.454 OA
ATOM      6  C   UNL     1       0.524  -5.933   6.839  0.00  0.00    +0.075 C 
ATOM      7  C   UNL     1       1.161  -5.825   8.227  0.00  0.00    +0.014 C 
ATOM      8  C   UNL     1       0.424  -4.787   9.081  0.00  0.00    +0.058 C 
ATOM      9  C   UNL     1       0.608  -3.422   8.434  0.00  0.00    +0.070 C 
ATOM     10  N   UNL     1       0.860  -2.353   9.124  0.00  0.00    -0.184 NA
ATOM     11  C   UNL     1       0.382  -0.863   6.410  0.00  0.00    +0.048 C 
ENDROOT
BRANCH   1  13
ATOM     12  N   UNL     1       0.052  -2.797   2.392  0.00  0.00    -0.279 N 
ATOM     13  C   UNL     1       0.150  -2.134   3.561  0.00  0.00    +0.284 C 
ATOM     14  O   UNL     1       0.134  -0.917   3.574  0.00  0.00    -0.266 OA
ATOM     15  H   UNL     1      -0.012  -3.765   2.387  0.00  0.00    +0.155 HD
BRANCH  12  21
ATOM     16  C   UNL     1      -1.514  -2.364  -2.248  0.00  0.00    +0.044 C 
ATOM     17  C   UNL     1      -0.707  -1.857  -1.080  0.00  0.00    -0.048 A 
ATOM     18  C   UNL     1       0.025  -0.690  -1.201  0.00  0.00    +0.006 A 
ATOM     19  C   UNL     1       0.766  -0.221  -0.132  0.00  0.00    -0.048 A 
ATOM     20  C   UNL     1       0.777  -0.917   1.061  0.00  0.00    +0.026 A 
ATOM     21  C   UNL     1       0.043  -2.089   1.186  0.00  0.00    +0.034 A 
ATOM     22  C   UNL     1      -0.705  -2.555   0.112  0.00  0.00    +0.026 A 
ATOM     23  C   UNL     1       1.562   1.051  -0.268  0.00  0.00    +0.044 C 
ENDBRANCH  12  21
ENDBRANCH   1  13
BRANCH  10  24
ATOM     24  N   UNL     1       0.972  -2.430  10.519  0.00  0.00    -0.203 N 
ATOM     25  C   UNL     1       1.234  -1.319  11.236  0.00  0.00    +0.263 C 
ATOM     26  O   UNL     1       1.373  -0.250  10.673  0.00  0.00    -0.268 OA
ATOM     27  H   UNL     1       0.861  -3.283  10.968  0.00  0.00    +0.178 HD
BRANCH  25  28
ATOM     28  C   UNL     1       1.352  -1.401  12.705  0.00  0.00    +0.039 A 
ATOM     29  C   UNL     1       1.198  -2.629  13.353  0.00  0.00    +0.016 A 
ATOM     30  C   UNL     1       1.308  -2.700  14.724  0.00  0.00    +0.046 A 
ATOM     31  C   UNL     1       1.572  -1.553  15.463  0.00  0.00    +0.117 A 
ATOM     32  C   UNL     1       1.726  -0.329  14.822  0.00  0.00    +0.046 A 
ATOM     33  C   UNL     1       1.623  -0.250  13.451  0.00  0.00    +0.016 A 
BRANCH  31  34
ATOM     34  O   UNL     1       1.680  -1.627  16.814  0.00  0.00    -0.507 OA
ATOM     35  H   UNL     1       2.578  -1.798  17.128  0.00  0.00    +0.292 HD
ENDBRANCH  31  34
ENDBRANCH  25  28
ENDBRANCH  10  24
TORSDOF 5
