REMARK  Name = ZINC13387871
REMARK  13 active torsions:
REMARK  status: ('A' for Active; 'I' for Inactive)
REMARK    1  A    between atoms: C_1  and  C_2
REMARK    2  A    between atoms: C_2  and  C_4
REMARK    3  A    between atoms: C_2  and  O_40
REMARK    4  A    between atoms: C_7  and  N_10
REMARK    5  A    between atoms: C_11  and  C_13
REMARK    6  A    between atoms: C_19  and  C_28
REMARK    7  A    between atoms: C_22  and  C_24
REMARK    8  A    between atoms: C_30  and  O_38
REMARK    9  A    between atoms: C_31  and  O_36
REMARK   10  A    between atoms: C_32  and  O_34
REMARK   11  A    between atoms: O_34  and  C_35
REMARK   12  A    between atoms: O_36  and  C_37
REMARK   13  A    between atoms: O_38  and  C_39
REMARK                            x       y       z     vdW  Elec       q    Type
REMARK                         _______ _______ _______ _____ _____    ______ ____
ROOT
ATOM      1  C   UNL     1       2.768  -2.605   6.926  0.00  0.00    +0.091 C 
ATOM      2  C   UNL     1       2.207  -3.074   8.097  0.00  0.00    +0.104 C 
ATOM      3  N   UNL     1       3.193  -3.316   8.998  0.00  0.00    -0.269 N 
ATOM      4  N   UNL     1       4.427  -2.995   8.447  0.00  0.00    -0.226 N 
ATOM      5  C   UNL     1       4.219  -2.569   7.143  0.00  0.00    +0.126 C 
ATOM      6  N   UNL     1       5.179  -2.215   6.338  0.00  0.00    -0.364 N 
ATOM      7  C   UNL     1       6.569  -2.308   6.801  0.00  0.00    +0.113 C 
ATOM      8  C   UNL     1       6.650  -2.054   8.307  0.00  0.00    +0.062 C 
ATOM      9  C   UNL     1       5.761  -3.055   9.055  0.00  0.00    +0.201 C 
ATOM     10  H   UNL     1       3.055  -3.662   9.894  0.00  0.00    +0.170 HD
ATOM     11  H   UNL     1       4.978  -1.895   5.444  0.00  0.00    +0.161 HD
ENDROOT
BRANCH   7  12
ATOM     12  C   UNL     1       7.102  -3.685   6.500  0.00  0.00    -0.018 A 
ATOM     13  C   UNL     1       6.292  -4.791   6.674  0.00  0.00    +0.055 A 
ATOM     14  C   UNL     1       6.779  -6.060   6.399  0.00  0.00    +0.165 A 
ATOM     15  C   UNL     1       8.084  -6.219   5.948  0.00  0.00    +0.204 A 
ATOM     16  C   UNL     1       8.895  -5.104   5.774  0.00  0.00    +0.165 A 
ATOM     17  C   UNL     1       8.399  -3.838   6.046  0.00  0.00    +0.055 A 
BRANCH  16  18
ATOM     18  O   UNL     1      10.173  -5.254   5.332  0.00  0.00    -0.491 OA
ATOM     19  C   UNL     1      10.949  -4.064   5.177  0.00  0.00    +0.277 C 
ENDBRANCH  16  18
BRANCH  15  20
ATOM     20  O   UNL     1       8.566  -7.462   5.677  0.00  0.00    -0.488 OA
ATOM     21  C   UNL     1       8.392  -7.950   4.345  0.00  0.00    +0.277 C 
ENDBRANCH  15  20
BRANCH  14  22
ATOM     22  O   UNL     1       5.981  -7.148   6.571  0.00  0.00    -0.491 OA
ATOM     23  C   UNL     1       4.652  -6.910   7.038  0.00  0.00    +0.277 C 
ENDBRANCH  14  22
ENDBRANCH   7  12
BRANCH   1  25
ATOM     24  N   UNL     1       2.743  -1.957   4.576  0.00  0.00    -0.281 N 
ATOM     25  C   UNL     1       2.054  -2.224   5.703  0.00  0.00    +0.253 C 
ATOM     26  O   UNL     1       0.839  -2.149   5.706  0.00  0.00    -0.270 OA
ATOM     27  H   UNL     1       3.696  -2.136   4.536  0.00  0.00    +0.155 HD
BRANCH  24  31
ATOM     28  C   UNL     1       0.784  -0.361   1.264  0.00  0.00    -0.019 A 
ATOM     29  C   UNL     1       2.088   0.008   1.538  0.00  0.00    +0.008 A 
ATOM     30  C   UNL     1       2.741  -0.519   2.636  0.00  0.00    +0.023 A 
ATOM     31  C   UNL     1       2.085  -1.421   3.464  0.00  0.00    +0.034 A 
ATOM     32  C   UNL     1       0.775  -1.789   3.187  0.00  0.00    +0.023 A 
ATOM     33  C   UNL     1       0.127  -1.254   2.091  0.00  0.00    +0.008 A 
BRANCH  28  35
ATOM     34  C   UNL     1      -0.426   1.623   0.399  0.00  0.00    +0.043 C 
ATOM     35  C   UNL     1       0.075   0.216   0.066  0.00  0.00    +0.141 C 
BRANCH  35  36
ATOM     36  O   UNL     1       0.981   0.282  -1.037  0.00  0.00    -0.387 OA
ATOM     37  H   UNL     1       1.760   0.831  -0.874  0.00  0.00    +0.210 HD
ENDBRANCH  35  36
ENDBRANCH  28  35
ENDBRANCH  24  31
ENDBRANCH   1  25
BRANCH   9  38
ATOM     38  C   UNL     1       5.676  -2.687  10.537  0.00  0.00    +0.410 C 
ATOM     39  F   UNL     1       4.829  -3.587  11.194  0.00  0.00    -0.169 F 
ATOM     40  F   UNL     1       6.952  -2.747  11.107  0.00  0.00    -0.169 F 
ATOM     41  F   UNL     1       5.168  -1.390  10.667  0.00  0.00    -0.169 F 
ENDBRANCH   9  38
TORSDOF 9
