REMARK  Name = ZINC04356150
REMARK  6 active torsions:
REMARK  status: ('A' for Active; 'I' for Inactive)
REMARK    1  A    between atoms: C_1  and  C_2
REMARK    2  A    between atoms: C_2  and  C_26
REMARK    3  A    between atoms: C_7  and  C_9
REMARK    4  A    between atoms: N_16  and  C_19
REMARK    5  A    between atoms: C_26  and  O_28
REMARK    6  A    between atoms: O_28  and  C_29
REMARK                            x       y       z     vdW  Elec       q    Type
REMARK                         _______ _______ _______ _____ _____    ______ ____
ROOT
ATOM      1  C   UNL     1      -3.189   2.389  -1.509  0.00  0.00    +0.002 C 
ATOM      2  C   UNL     1      -2.264   1.453  -0.728  0.00  0.00    +0.041 C 
ATOM      3  C   UNL     1      -2.239   1.843   0.764  0.00  0.00    +0.086 C 
ATOM      4  C   UNL     1      -0.771   1.610   1.212  0.00  0.00    +0.078 C 
ATOM      5  C   UNL     1      -0.048   1.100  -0.052  0.00  0.00    -0.020 C 
ATOM      6  C   UNL     1      -0.267   2.995   1.549  0.00  0.00    +0.229 C 
ATOM      7  O   UNL     1       0.847   3.258   1.948  0.00  0.00    -0.275 OA
ATOM      8  N   UNL     1      -1.242   3.886   1.336  0.00  0.00    -0.210 N 
ATOM      9  C   UNL     1      -2.389   3.359   0.893  0.00  0.00    +0.229 C 
ATOM     10  O   UNL     1      -3.396   3.985   0.637  0.00  0.00    -0.275 OA
ATOM     11  N   UNL     1      -0.870   1.600  -1.153  0.00  0.00    +0.396 N 
ATOM     12  H   UNL     1      -0.656   2.588  -1.336  0.00  0.00    -0.083 HD
ATOM     13  H   UNL     1      -0.698   1.050  -2.003  0.00  0.00    -0.083 HD
ENDROOT
BRANCH   8  14
ATOM     14  C   UNL     1      -1.076   5.261   1.561  0.00  0.00    +0.044 A 
ATOM     15  C   UNL     1      -1.081   6.145   0.491  0.00  0.00    +0.027 A 
ATOM     16  C   UNL     1      -0.922   7.499   0.714  0.00  0.00    +0.040 A 
ATOM     17  C   UNL     1      -0.748   7.973   2.003  0.00  0.00    +0.124 A 
ATOM     18  C   UNL     1      -0.738   7.092   3.072  0.00  0.00    +0.040 A 
ATOM     19  C   UNL     1      -0.902   5.738   2.853  0.00  0.00    +0.027 A 
ATOM     20  F   UNL     1      -0.587   9.297   2.220  0.00  0.00    -0.205 F 
ENDBRANCH   8  14
BRANCH   5  21
ATOM     21  C   UNL     1       1.353   1.652  -0.115  0.00  0.00    -0.023 A 
ATOM     22  C   UNL     1       2.525   1.045   0.195  0.00  0.00    +0.009 A 
ATOM     23  C   UNL     1       3.704   1.754   0.059  0.00  0.00    +0.008 A 
ATOM     24  C   UNL     1       3.653   3.035  -0.380  0.00  0.00    +0.045 A 
ATOM     25  S   UNL     1       1.901   3.273  -0.623  0.00  0.00    -0.103 S 
ENDBRANCH   5  21
BRANCH   2  26
ATOM     26  C   UNL     1      -2.710   0.022  -0.889  0.00  0.00    +0.296 C 
ATOM     27  O   UNL     1      -3.397  -0.495  -0.040  0.00  0.00    -0.252 OA
BRANCH  26  28
ATOM     28  O   UNL     1      -2.344  -0.677  -1.975  0.00  0.00    -0.469 OA
ATOM     29  C   UNL     1      -2.810  -2.049  -2.063  0.00  0.00    +0.280 C 
ENDBRANCH  26  28
ENDBRANCH   2  26
TORSDOF 4
