REMARK  Name = ZINC02103191
REMARK  8 active torsions:
REMARK  status: ('A' for Active; 'I' for Inactive)
REMARK    1  A    between atoms: C_1  and  C_2
REMARK    2  A    between atoms: C_3  and  O_22
REMARK    3  A    between atoms: C_12  and  C_13
REMARK    4  A    between atoms: C_13  and  C_14
REMARK    5  A    between atoms: N_16  and  C_17
REMARK    6  A    between atoms: C_17  and  C_18
REMARK    7  A    between atoms: C_18  and  C_19
REMARK    8  A    between atoms: C_19  and  C_20
REMARK                            x       y       z     vdW  Elec       q    Type
REMARK                         _______ _______ _______ _____ _____    ______ ____
ROOT
ATOM      1  C   UNL     1       3.679   2.218  -0.022  0.00  0.00    +0.051 C 
ATOM      2  C   UNL     1       2.396   1.427  -0.013  0.00  0.00    +0.034 A 
ATOM      3  C   UNL     1       1.175   2.083   0.002  0.00  0.00    +0.123 A 
ATOM      4  C   UNL     1      -0.016   1.361   0.009  0.00  0.00    +0.046 A 
ATOM      5  C   UNL     1       0.002  -0.004   0.002  0.00  0.00    +0.015 A 
ATOM      6  C   UNL     1       1.226  -0.683  -0.013  0.00  0.00    +0.022 A 
ATOM      7  C   UNL     1       2.433   0.041  -0.021  0.00  0.00    +0.146 A 
ATOM      8  O   UNL     1       3.611  -0.618  -0.035  0.00  0.00    -0.422 OA
ATOM      9  C   UNL     1       3.664  -1.959  -0.042  0.00  0.00    +0.338 A 
ATOM     10  O   UNL     1       4.751  -2.510  -0.054  0.00  0.00    -0.245 OA
ATOM     11  C   UNL     1       2.495  -2.746  -0.035  0.00  0.00    +0.096 A 
ATOM     12  C   UNL     1       1.276  -2.146  -0.021  0.00  0.00    -0.021 A 
ENDROOT
BRANCH   3  13
ATOM     13  O   UNL     1       1.140   3.440   0.010  0.00  0.00    -0.506 OA
ATOM     14  H   UNL     1       1.138   3.828   0.895  0.00  0.00    +0.292 HD
ENDBRANCH   3  13
BRANCH  12  15
ATOM     15  C   UNL     1       0.011  -2.965  -0.013  0.00  0.00    +0.131 C 
BRANCH  15  16
ATOM     16  C   UNL     1      -0.492  -3.126  -1.424  0.00  0.00    +0.217 C 
ATOM     17  O   UNL     1       0.117  -2.626  -2.346  0.00  0.00    -0.275 OA
ATOM     18  N   UNL     1      -1.619  -3.826  -1.662  0.00  0.00    -0.315 N 
ATOM     19  H   UNL     1      -2.106  -4.226  -0.925  0.00  0.00    +0.149 HD
BRANCH  18  20
ATOM     20  C   UNL     1      -2.107  -3.983  -3.034  0.00  0.00    +0.104 C 
BRANCH  20  21
ATOM     21  C   UNL     1      -3.392  -4.814  -3.026  0.00  0.00    +0.030 C 
BRANCH  21  22
ATOM     22  C   UNL     1      -3.903  -4.978  -4.459  0.00  0.00    +0.126 C 
BRANCH  22  23
ATOM     23  C   UNL     1      -5.168  -5.796  -4.451  0.00  0.00    +0.356 C 
ATOM     24  O   UNL     1      -5.616  -6.206  -3.406  0.00  0.00    -0.246 OA
ATOM     25  O   UNL     1      -5.798  -6.070  -5.604  0.00  0.00    -0.246 OA
ENDBRANCH  22  23
ENDBRANCH  21  22
ENDBRANCH  20  21
ENDBRANCH  18  20
ENDBRANCH  15  16
ENDBRANCH  12  15
TORSDOF 7
