REMARK  Name = ZINC33743429
REMARK  9 active torsions:
REMARK  status: ('A' for Active; 'I' for Inactive)
REMARK    1  A    between atoms: C_1  and  O_2
REMARK    2  A    between atoms: O_2  and  C_3
REMARK    3  A    between atoms: C_5  and  C_10
REMARK    4  A    between atoms: C_8  and  O_9
REMARK    5  A    between atoms: N_18  and  C_21
REMARK    6  A    between atoms: C_27  and  C_29
REMARK    7  A    between atoms: C_27  and  C_39
REMARK    8  A    between atoms: C_29  and  C_30
REMARK    9  A    between atoms: C_33  and  N_36
REMARK                            x       y       z     vdW  Elec       q    Type
REMARK                         _______ _______ _______ _____ _____    ______ ____
ROOT
ATOM      1  C   UNL     1      -4.210   3.836  -4.913  0.00  0.00    -0.027 C 
ATOM      2  C   UNL     1      -4.145   2.907  -3.724  0.00  0.00    +0.077 C 
ATOM      3  C   UNL     1      -3.719   1.596  -4.497  0.00  0.00    +0.086 C 
ATOM      4  C   UNL     1      -3.444   0.724  -3.358  0.00  0.00    +0.225 C 
ATOM      5  O   UNL     1      -3.653  -0.467  -3.272  0.00  0.00    -0.275 OA
ATOM      6  N   UNL     1      -2.897   1.548  -2.408  0.00  0.00    -0.239 N 
ATOM      7  C   UNL     1      -3.091   2.876  -2.688  0.00  0.00    +0.225 C 
ATOM      8  O   UNL     1      -2.519   3.823  -2.193  0.00  0.00    -0.275 OA
ATOM      9  C   UNL     1      -4.726   1.569  -5.589  0.00  0.00    +0.052 C 
ATOM     10  N   UNL     1      -4.957   3.013  -5.925  0.00  0.00    +0.396 N 
ATOM     11  H   UNL     1      -6.029   3.252  -5.874  0.00  0.00    -0.083 HD
ATOM     12  H   UNL     1      -4.578   3.239  -6.933  0.00  0.00    -0.083 HD
ENDROOT
BRANCH   1  15
ATOM     13  C   UNL     1      -4.996   7.403  -3.949  0.00  0.00    +0.161 A 
ATOM     14  C   UNL     1      -4.294   6.250  -4.262  0.00  0.00    +0.051 A 
ATOM     15  C   UNL     1      -4.976   5.089  -4.573  0.00  0.00    -0.057 A 
ATOM     16  C   UNL     1      -6.358   5.075  -4.578  0.00  0.00    +0.006 A 
ATOM     17  C   UNL     1      -7.065   6.220  -4.261  0.00  0.00    +0.049 A 
ATOM     18  C   UNL     1      -6.388   7.388  -3.949  0.00  0.00    +0.158 A 
BRANCH  13  20
ATOM     19  C   UNL     1      -2.899   8.488  -3.664  0.00  0.00    +0.277 C 
ATOM     20  O   UNL     1      -4.327   8.547  -3.643  0.00  0.00    -0.491 OA
ENDBRANCH  13  20
BRANCH  18  21
ATOM     21  O   UNL     1      -7.081   8.517  -3.642  0.00  0.00    -0.503 OA
ATOM     22  H   UNL     1      -8.181   8.504  -3.642  0.00  0.00    +0.292 HD
ENDBRANCH  18  21
ENDBRANCH   1  15
BRANCH   6  23
ATOM     23  C   UNL     1      -2.188   1.063  -1.221  0.00  0.00    +0.084 C 
ATOM     24  C   UNL     1      -0.753   1.593  -1.232  0.00  0.00    +0.023 C 
ATOM     25  C   UNL     1      -0.013   1.086   0.008  0.00  0.00    +0.002 C 
ATOM     26  C   UNL     1      -0.729   1.579   1.267  0.00  0.00    +0.000 C 
ATOM     27  C   UNL     1      -2.164   1.050   1.278  0.00  0.00    +0.002 C 
ATOM     28  C   UNL     1      -2.904   1.556   0.038  0.00  0.00    +0.023 C 
ENDBRANCH   6  23
BRANCH   9  29
ATOM     29  C   UNL     1      -6.003   0.930  -5.111  0.00  0.00    +0.347 C 
ATOM     30  O   UNL     1      -5.980   0.146  -4.192  0.00  0.00    -0.248 OA
ATOM     31  O   UNL     1      -7.168   1.231  -5.706  0.00  0.00    -0.248 OA
ENDBRANCH   9  29
BRANCH   9  32
ATOM     32  C   UNL     1      -4.175   0.821  -6.804  0.00  0.00    +0.035 C 
BRANCH  32  33
ATOM     33  C   UNL     1      -5.161   0.912  -7.940  0.00  0.00    -0.048 A 
ATOM     34  C   UNL     1      -6.139  -0.054  -8.085  0.00  0.00    +0.006 A 
ATOM     35  C   UNL     1      -7.047   0.032  -9.124  0.00  0.00    +0.033 A 
ATOM     36  C   UNL     1      -6.970   1.078 -10.024  0.00  0.00    +0.126 A 
ATOM     37  C   UNL     1      -5.989   2.041  -9.882  0.00  0.00    +0.033 A 
ATOM     38  C   UNL     1      -5.084   1.958  -8.840  0.00  0.00    +0.006 A 
BRANCH  36  39
ATOM     39  N   UNL     1      -7.939   1.168 -11.139  0.00  0.00    +0.056 N 
ATOM     40  O   UNL     1      -7.872   2.090 -11.932  0.00  0.00    -0.126 OA
ATOM     41  O   UNL     1      -8.804   0.319 -11.264  0.00  0.00    -0.126 OA
ENDBRANCH  36  39
ENDBRANCH  32  33
ENDBRANCH   9  32
TORSDOF 8
