REMARK  Name = ZINC52627254
REMARK  10 active torsions:
REMARK  status: ('A' for Active; 'I' for Inactive)
REMARK    1  A    between atoms: C_1  and  C_2
REMARK    2  A    between atoms: C_2  and  C_3
REMARK    3  A    between atoms: C_2  and  C_4
REMARK    4  A    between atoms: C_2  and  C_5
REMARK    5  A    between atoms: C_8  and  N_11
REMARK    6  A    between atoms: C_18  and  O_25
REMARK    7  A    between atoms: C_20  and  C_22
REMARK    8  A    between atoms: O_25  and  C_26
REMARK    9  A    between atoms: C_29  and  C_32
REMARK   10  A    between atoms: C_35  and  C_37
REMARK                            x       y       z     vdW  Elec       q    Type
REMARK                         _______ _______ _______ _____ _____    ______ ____
ROOT
ATOM      1  N   UNL     1       2.639  -1.844  -4.686  0.00  0.00    -0.267 N 
ATOM      2  C   UNL     1       2.074  -2.610  -5.700  0.00  0.00    +0.133 A 
ATOM      3  C   UNL     1       2.991  -2.879  -6.707  0.00  0.00    +0.035 A 
ATOM      4  C   UNL     1       2.614  -3.631  -7.803  0.00  0.00    +0.012 A 
ATOM      5  C   UNL     1       1.308  -4.102  -7.865  0.00  0.00    +0.020 A 
ATOM      6  C   UNL     1       0.441  -3.802  -6.834  0.00  0.00    +0.113 A 
ATOM      7  N   UNL     1       0.832  -3.083  -5.803  0.00  0.00    -0.240 NA
ATOM      8  C   UNL     1       4.309  -2.234  -6.345  0.00  0.00    +0.239 C 
ATOM      9  C   UNL     1       4.040  -1.547  -4.996  0.00  0.00    +0.238 C 
ENDROOT
BRANCH   1  13
ATOM     10  C   UNL     1       0.631  -0.564  -1.270  0.00  0.00    -0.042 A 
ATOM     11  C   UNL     1      -0.031  -1.329  -2.212  0.00  0.00    +0.006 A 
ATOM     12  C   UNL     1       0.632  -1.755  -3.347  0.00  0.00    +0.024 A 
ATOM     13  C   UNL     1       1.965  -1.414  -3.540  0.00  0.00    +0.036 A 
ATOM     14  C   UNL     1       2.626  -0.645  -2.591  0.00  0.00    +0.024 A 
ATOM     15  C   UNL     1       1.956  -0.218  -1.461  0.00  0.00    +0.006 A 
BRANCH  10  17
ATOM     16  C   UNL     1      -0.101   1.428   0.012  0.00  0.00    +0.015 C 
ATOM     17  C   UNL     1      -0.095  -0.101  -0.033  0.00  0.00    -0.013 C 
ATOM     18  C   UNL     1       0.613  -0.645   1.209  0.00  0.00    +0.015 C 
ATOM     19  C   UNL     1      -1.536  -0.616  -0.065  0.00  0.00    +0.015 C 
ENDBRANCH  10  17
ENDBRANCH   1  13
BRANCH   9  20
ATOM     20  C   UNL     1       4.244  -0.058  -5.114  0.00  0.00    +0.380 C 
ATOM     21  O   UNL     1       3.310   0.702  -4.929  0.00  0.00    -0.244 OA
ATOM     22  O   UNL     1       5.345   0.385  -5.395  0.00  0.00    -0.244 OA
ENDBRANCH   9  20
BRANCH   8  23
ATOM     23  O   UNL     1       5.330  -3.225  -6.214  0.00  0.00    -0.482 OA
BRANCH  23  24
ATOM     24  C   UNL     1       5.966  -3.609  -7.350  0.00  0.00    +0.122 A 
ATOM     25  C   UNL     1       5.676  -2.977  -8.553  0.00  0.00    +0.046 A 
ATOM     26  C   UNL     1       6.318  -3.362  -9.709  0.00  0.00    +0.013 A 
ATOM     27  C   UNL     1       7.264  -4.393  -9.670  0.00  0.00    -0.003 A 
ATOM     28  C   UNL     1       7.552  -5.027  -8.456  0.00  0.00    +0.013 A 
ATOM     29  C   UNL     1       6.909  -4.630  -7.305  0.00  0.00    +0.046 A 
BRANCH  27  30
ATOM     30  C   UNL     1       7.952  -4.809 -10.900  0.00  0.00    +0.053 C 
ATOM     31  N   UNL     1       7.793  -4.311 -12.094  0.00  0.00    -0.259 NA
ATOM     32  C   UNL     1       8.567  -4.902 -13.026  0.00  0.00    +0.119 C 
ATOM     33  C   UNL     1       9.328  -5.868 -12.517  0.00  0.00    +0.056 C 
ATOM     34  C   UNL     1       8.997  -5.900 -11.036  0.00  0.00    +0.097 C 
BRANCH  33  35
ATOM     35  C   UNL     1      10.313  -6.740 -13.253  0.00  0.00    +0.415 C 
ATOM     36  F   UNL     1      10.327  -6.388 -14.607  0.00  0.00    -0.166 F 
ATOM     37  F   UNL     1      11.590  -6.561 -12.711  0.00  0.00    -0.166 F 
ATOM     38  F   UNL     1       9.935  -8.081 -13.124  0.00  0.00    -0.166 F 
ENDBRANCH  33  35
ENDBRANCH  27  30
ENDBRANCH  23  24
ENDBRANCH   8  23
TORSDOF 7
