REMARK  Name = ZINC40802602
REMARK  1 active torsions:
REMARK  status: ('A' for Active; 'I' for Inactive)
REMARK    1  A    between atoms: N_10  and  C_11
REMARK                            x       y       z     vdW  Elec       q    Type
REMARK                         _______ _______ _______ _____ _____    ______ ____
ROOT
ATOM      1  C   UNL     1      -0.025   1.337  -0.374  0.00  0.00    +0.001 A 
ATOM      2  C   UNL     1       1.154   2.036  -0.564  0.00  0.00    +0.001 A 
ATOM      3  C   UNL     1       2.377   1.394  -0.454  0.00  0.00    +0.012 A 
ATOM      4  C   UNL     1       2.418   0.045  -0.151  0.00  0.00    +0.030 A 
ATOM      5  C   UNL     1       1.218  -0.670   0.043  0.00  0.00    +0.025 A 
ATOM      6  C   UNL     1       0.001  -0.013  -0.071  0.00  0.00    +0.012 A 
ATOM      7  C   UNL     1       1.619  -2.057   0.344  0.00  0.00    +0.126 C 
ATOM      8  N   UNL     1       2.930  -2.143   0.327  0.00  0.00    -0.212 NA
ATOM      9  C   UNL     1       3.501  -0.947   0.042  0.00  0.00    +0.163 C 
ATOM     10  N   UNL     1       4.791  -0.709  -0.047  0.00  0.00    -0.226 NA
ATOM     11  N   UNL     1       0.757  -3.095   0.602  0.00  0.00    -0.343 N 
ATOM     12  H   UNL     1      -0.201  -2.943   0.595  0.00  0.00    +0.144 HD
ATOM     13  H   UNL     1       1.107  -3.979   0.791  0.00  0.00    +0.144 HD
ENDROOT
BRANCH  10  14
ATOM     14  C   UNL     1       5.681  -1.736   0.042  0.00  0.00    +0.086 A 
ATOM     15  C   UNL     1       5.498  -2.893  -0.725  0.00  0.00    +0.029 A 
ATOM     16  C   UNL     1       6.403  -3.928  -0.630  0.00  0.00    +0.004 A 
ATOM     17  C   UNL     1       7.490  -3.828   0.222  0.00  0.00    +0.021 A 
ATOM     18  C   UNL     1       7.680  -2.687   0.984  0.00  0.00    +0.061 A 
ATOM     19  C   UNL     1       6.786  -1.638   0.896  0.00  0.00    +0.085 A 
ATOM     20 CL   UNL     1       7.028  -0.205   1.846  0.00  0.00    -0.080 Cl
ATOM     21 CL   UNL     1       9.047  -2.574   2.048  0.00  0.00    -0.082 Cl
ENDBRANCH  10  14
TORSDOF 1
