REMARK  Name = ZINC44932439
REMARK  5 active torsions:
REMARK  status: ('A' for Active; 'I' for Inactive)
REMARK    1  A    between atoms: C_1  and  C_2
REMARK    2  A    between atoms: C_2  and  N_9
REMARK    3  A    between atoms: C_10  and  C_14
REMARK    4  A    between atoms: C_17  and  N_21
REMARK    5  A    between atoms: C_19  and  N_20
REMARK                            x       y       z     vdW  Elec       q    Type
REMARK                         _______ _______ _______ _____ _____    ______ ____
ROOT
ATOM      1  N   UNL     1       0.449  -0.650  -1.247  0.00  0.00    -0.218 N 
ATOM      2  C   UNL     1       0.182  -0.221  -2.512  0.00  0.00    +0.184 A 
ATOM      3  N   UNL     1       1.037  -0.827  -3.311  0.00  0.00    -0.108 NA
ATOM      4  N   UNL     1       1.812  -1.598  -2.638  0.00  0.00    -0.023 NA
ATOM      5  N   UNL     1       1.526  -1.544  -1.383  0.00  0.00    -0.043 NA
ENDROOT
BRANCH   1   7
ATOM      6  C   UNL     1       0.011   1.230   0.234  0.00  0.00    +0.038 C 
ATOM      7  C   UNL     1      -0.235  -0.260  -0.011  0.00  0.00    +0.085 C 
ATOM      8  C   UNL     1      -1.735  -0.485  -0.194  0.00  0.00    +0.054 C 
ATOM      9  C   UNL     1      -2.122  -1.923   0.253  0.00  0.00    +0.168 C 
ATOM     10  S   UNL     1      -1.047  -2.081   1.746  0.00  0.00    -0.029 S 
ATOM     11  O   UNL     1      -1.671  -1.429   2.843  0.00  0.00    -0.174 OA
ATOM     12  O   UNL     1      -0.626  -3.432   1.878  0.00  0.00    -0.174 OA
ATOM     13  C   UNL     1       0.368  -1.059   1.160  0.00  0.00    +0.196 C 
ENDBRANCH   1   7
BRANCH   2  14
ATOM     14  C   UNL     1      -0.866   0.741  -2.912  0.00  0.00    +0.041 A 
ATOM     15  C   UNL     1      -1.590   1.432  -1.939  0.00  0.00    +0.015 A 
ATOM     16  C   UNL     1      -2.566   2.328  -2.315  0.00  0.00    +0.023 A 
ATOM     17  C   UNL     1      -2.834   2.549  -3.663  0.00  0.00    +0.026 A 
ATOM     18  C   UNL     1      -2.119   1.867  -4.638  0.00  0.00    +0.046 A 
ATOM     19  C   UNL     1      -1.132   0.967  -4.271  0.00  0.00    +0.037 A 
BRANCH  19  20
ATOM     20  N   UNL     1      -0.409   0.285  -5.247  0.00  0.00    -0.357 N 
ATOM     21  H   UNL     1       0.357  -0.255  -4.995  0.00  0.00    +0.142 HD
ATOM     22  H   UNL     1      -0.671   0.351  -6.179  0.00  0.00    +0.142 HD
ENDBRANCH  19  20
BRANCH  17  23
ATOM     23  N   UNL     1      -3.824   3.457  -4.035  0.00  0.00    -0.358 N 
ATOM     24  H   UNL     1      -4.325   3.934  -3.355  0.00  0.00    +0.142 HD
ATOM     25  H   UNL     1      -4.013   3.612  -4.974  0.00  0.00    +0.142 HD
ENDBRANCH  17  23
ENDBRANCH   2  14
TORSDOF 4
