REMARK  Name = ZINC28294283
REMARK  4 active torsions:
REMARK  status: ('A' for Active; 'I' for Inactive)
REMARK    1  A    between atoms: C_3  and  N_23
REMARK    2  A    between atoms: C_6  and  C_7
REMARK    3  A    between atoms: C_7  and  C_8
REMARK    4  A    between atoms: N_14  and  C_15
REMARK                            x       y       z     vdW  Elec       q    Type
REMARK                         _______ _______ _______ _____ _____    ______ ____
ROOT
ATOM      1  C   UNL     1      -1.744  -1.028  -1.429  0.00  0.00    +0.144 C 
ATOM      2  C   UNL     1      -3.035  -1.831  -1.469  0.00  0.00    +0.232 C 
ATOM      3  O   UNL     1      -3.109  -2.955  -1.022  0.00  0.00    -0.274 OA
ATOM      4  N   UNL     1      -4.073  -1.225  -2.020  0.00  0.00    -0.264 N 
ATOM      5  C   UNL     1      -3.998   0.054  -2.530  0.00  0.00    +0.161 C 
ATOM      6  N   UNL     1      -4.950   0.758  -3.097  0.00  0.00    -0.226 NA
ATOM      7  S   UNL     1      -2.299   0.529  -2.238  0.00  0.00    -0.077 S 
ATOM      8  H   UNL     1      -4.918  -1.698  -2.068  0.00  0.00    +0.157 HD
ENDROOT
BRANCH   6   9
ATOM      9  C   UNL     1      -6.204   0.225  -3.237  0.00  0.00    +0.067 A 
ATOM     10  C   UNL     1      -6.362  -1.086  -3.691  0.00  0.00    +0.029 A 
ATOM     11  C   UNL     1      -7.628  -1.617  -3.830  0.00  0.00    +0.022 A 
ATOM     12  C   UNL     1      -8.740  -0.852  -3.522  0.00  0.00    +0.041 A 
ATOM     13  C   UNL     1      -8.590   0.449  -3.072  0.00  0.00    +0.022 A 
ATOM     14  C   UNL     1      -7.330   0.989  -2.922  0.00  0.00    +0.029 A 
ATOM     15 CL   UNL     1     -10.329  -1.528  -3.700  0.00  0.00    -0.084 Cl
ENDBRANCH   6   9
BRANCH   1  16
ATOM     16  C   UNL     1      -1.293  -0.775   0.010  0.00  0.00    +0.059 C 
BRANCH  16  22
ATOM     17  C   UNL     1      -0.017   1.378   0.010  0.00  0.00    +0.006 A 
ATOM     18  C   UNL     1       1.171   2.086   0.002  0.00  0.00    +0.033 A 
ATOM     19  C   UNL     1       2.377   1.411  -0.013  0.00  0.00    +0.126 A 
ATOM     20  C   UNL     1       2.396   0.029  -0.020  0.00  0.00    +0.033 A 
ATOM     21  C   UNL     1       1.208  -0.679  -0.012  0.00  0.00    +0.006 A 
ATOM     22  C   UNL     1       0.002  -0.004   0.002  0.00  0.00    -0.046 A 
BRANCH  19  23
ATOM     23  N   UNL     1       3.649   2.168  -0.022  0.00  0.00    +0.056 N 
ATOM     24  O   UNL     1       3.633   3.377  -0.016  0.00  0.00    -0.126 OA
ATOM     25  O   UNL     1       4.704   1.578  -0.035  0.00  0.00    -0.126 OA
ENDBRANCH  19  23
ENDBRANCH  16  22
ENDBRANCH   1  16
TORSDOF 4
