REMARK  Name = ZINC27664188
REMARK  5 active torsions:
REMARK  status: ('A' for Active; 'I' for Inactive)
REMARK    1  A    between atoms: C_10  and  C_11
REMARK    2  A    between atoms: C_13  and  C_24
REMARK    3  A    between atoms: C_14  and  N_16
REMARK    4  A    between atoms: N_16  and  C_17
REMARK    5  A    between atoms: C_17  and  C_18
REMARK                            x       y       z     vdW  Elec       q    Type
REMARK                         _______ _______ _______ _____ _____    ______ ____
ROOT
ATOM      1  C   UNL     1      -0.734   3.473   0.027  0.00  0.00    +0.231 A 
ATOM      2  N   UNL     1      -1.119   2.223  -0.033  0.00  0.00    -0.196 NA
ATOM      3  C   UNL     1      -0.017   1.428  -0.023  0.00  0.00    +0.201 A 
ATOM      4  C   UNL     1       1.086   2.268   0.038  0.00  0.00    +0.225 A 
ATOM      5  O   UNL     1       0.612   3.527   0.068  0.00  0.00    -0.421 OA
ENDROOT
BRANCH   1  15
ATOM      6  C   UNL     1      -1.114   7.740   2.812  0.00  0.00    +0.001 A 
ATOM      7  C   UNL     1      -0.252   6.646   2.818  0.00  0.00    +0.001 A 
ATOM      8  C   UNL     1      -0.405   5.628   1.925  0.00  0.00    +0.009 A 
ATOM      9  C   UNL     1      -1.444   5.680   0.985  0.00  0.00    -0.006 A 
ATOM     10  C   UNL     1      -2.321   6.791   0.977  0.00  0.00    -0.017 A 
ATOM     11  C   UNL     1      -2.134   7.823   1.913  0.00  0.00    +0.008 A 
ATOM     12  C   UNL     1      -3.364   6.844   0.036  0.00  0.00    +0.008 A 
ATOM     13  C   UNL     1      -3.527   5.831  -0.862  0.00  0.00    +0.001 A 
ATOM     14  C   UNL     1      -2.672   4.737  -0.874  0.00  0.00    +0.014 A 
ATOM     15  C   UNL     1      -1.633   4.640   0.041  0.00  0.00    +0.045 A 
ENDBRANCH   1  15
BRANCH   4  16
ATOM     16  N   UNL     1       2.409   1.887   0.063  0.00  0.00    -0.309 N 
ATOM     17  H   UNL     1       2.675   0.820   0.034  0.00  0.00    +0.149 HD
BRANCH  16  18
ATOM     18  C   UNL     1       3.463   2.903   0.129  0.00  0.00    +0.141 C 
BRANCH  18  19
ATOM     19  C   UNL     1       4.810   2.229   0.145  0.00  0.00    -0.012 A 
ATOM     20  C   UNL     1       5.406   1.878   1.347  0.00  0.00    +0.008 A 
ATOM     21  C   UNL     1       6.644   1.256   1.313  0.00  0.00    +0.020 A 
ATOM     22  C   UNL     1       7.244   1.015   0.091  0.00  0.00    +0.111 A 
ATOM     23  N   UNL     1       6.650   1.367  -1.032  0.00  0.00    -0.263 NA
ATOM     24  C   UNL     1       5.470   1.957  -1.038  0.00  0.00    +0.115 A 
ENDBRANCH  18  19
ENDBRANCH  16  18
ENDBRANCH   4  16
BRANCH   3  25
ATOM     25  C   UNL     1       0.003  -0.003  -0.072  0.00  0.00    +0.124 C 
ATOM     26  N   UNL     1       0.019  -1.138  -0.112  0.00  0.00    -0.189 NA
ENDBRANCH   3  25
TORSDOF 5
