REMARK  Name = ZINC04190383
REMARK  7 active torsions:
REMARK  status: ('A' for Active; 'I' for Inactive)
REMARK    1  A    between atoms: C_3  and  C_6
REMARK    2  A    between atoms: C_6  and  N_43
REMARK    3  A    between atoms: C_7  and  C_8
REMARK    4  A    between atoms: C_7  and  N_43
REMARK    5  A    between atoms: C_8  and  C_10
REMARK    6  A    between atoms: C_8  and  O_26
REMARK    7  A    between atoms: C_10  and  N_11
REMARK                            x       y       z     vdW  Elec       q    Type
REMARK                         _______ _______ _______ _____ _____    ______ ____
ROOT
ATOM      1  N   UNL     1       2.469   3.649  -0.002  0.00  0.00    -0.337 N 
ATOM      2  C   UNL     1       1.162   3.193   0.008  0.00  0.00    +0.050 A 
ATOM      3  C   UNL     1      -0.061   3.857   0.024  0.00  0.00    +0.028 A 
ATOM      4  C   UNL     1      -1.236   3.139   0.031  0.00  0.00    +0.022 A 
ATOM      5  C   UNL     1      -1.215   1.751   0.017  0.00  0.00    +0.042 A 
ATOM      6  C   UNL     1      -0.013   1.076   0.008  0.00  0.00    +0.030 A 
ATOM      7  C   UNL     1       1.183   1.791   0.000  0.00  0.00    +0.009 A 
ATOM      8  C   UNL     1       2.603   1.393  -0.016  0.00  0.00    +0.009 A 
ATOM      9  C   UNL     1       3.349   2.581  -0.017  0.00  0.00    +0.050 A 
ATOM     10  C   UNL     1       4.739   2.514  -0.032  0.00  0.00    +0.028 A 
ATOM     11  C   UNL     1       5.370   1.288  -0.046  0.00  0.00    +0.022 A 
ATOM     12  C   UNL     1       4.631   0.114  -0.045  0.00  0.00    +0.042 A 
ATOM     13  C   UNL     1       3.252   0.161  -0.029  0.00  0.00    +0.030 A 
ATOM     14 CL   UNL     1       5.444  -1.419  -0.062  0.00  0.00    -0.084 Cl
ATOM     15 CL   UNL     1      -2.707   0.863   0.019  0.00  0.00    -0.084 Cl
ENDROOT
BRANCH   1  16
ATOM     16  C   UNL     1       2.864   5.060   0.001  0.00  0.00    +0.151 C 
BRANCH  16  17
ATOM     17  C   UNL     1       2.986   5.558  -1.441  0.00  0.00    +0.117 C 
BRANCH  17  18
ATOM     18  O   UNL     1       4.054   4.868  -2.094  0.00  0.00    -0.392 OA
ATOM     19  H   UNL     1       4.917   4.991  -1.675  0.00  0.00    +0.210 HD
ENDBRANCH  17  18
BRANCH  17  20
ATOM     20  C   UNL     1       3.277   7.061  -1.438  0.00  0.00    -0.049 C 
BRANCH  20  21
ATOM     21  N   UNL     1       3.274   7.556  -2.827  0.00  0.00    +0.385 N 
ATOM     22  H   UNL     1       3.997   7.062  -3.364  0.00  0.00    -0.085 HD
ATOM     23  H   UNL     1       2.354   7.379  -3.248  0.00  0.00    -0.085 HD
BRANCH  21  24
ATOM     24  C   UNL     1       3.552   9.004  -2.855  0.00  0.00    -0.007 C 
BRANCH  24  27
ATOM     25  C   UNL     1       2.911  10.274  -6.255  0.00  0.00    +0.041 A 
ATOM     26  C   UNL     1       2.469   9.937  -4.955  0.00  0.00    +0.042 A 
ATOM     27  C   UNL     1       3.543   9.482  -4.285  0.00  0.00    +0.088 A 
ATOM     28  O   UNL     1       4.606   9.530  -5.103  0.00  0.00    -0.470 OA
ATOM     29  C   UNL     1       4.228  10.004  -6.301  0.00  0.00    +0.195 A 
ENDBRANCH  24  27
ENDBRANCH  21  24
ENDBRANCH  20  21
ENDBRANCH  17  20
ENDBRANCH  16  17
ENDBRANCH   1  16
TORSDOF 7
