REMARK  Name = ZINC58129218
REMARK  11 active torsions:
REMARK  status: ('A' for Active; 'I' for Inactive)
REMARK    1  A    between atoms: C_1  and  C_2
REMARK    2  A    between atoms: C_2  and  C_3
REMARK    3  A    between atoms: C_3  and  N_4
REMARK    4  A    between atoms: N_7  and  C_8
REMARK    5  A    between atoms: C_8  and  C_9
REMARK    6  A    between atoms: C_8  and  C_10
REMARK    7  A    between atoms: C_8  and  C_11
REMARK    8  A    between atoms: N_13  and  C_14
REMARK    9  A    between atoms: C_14  and  C_15
REMARK   10  A    between atoms: C_15  and  C_16
REMARK   11  A    between atoms: C_15  and  N_23
REMARK                            x       y       z     vdW  Elec       q    Type
REMARK                         _______ _______ _______ _____ _____    ______ ____
ROOT
ATOM      1  C   UNL     1      -3.555  -6.226  -0.112  0.00  0.00    +0.236 C 
ATOM      2  O   UNL     1      -4.371  -6.986   0.366  0.00  0.00    -0.273 OA
ATOM      3  N   UNL     1      -2.456  -6.714  -0.720  0.00  0.00    -0.315 N 
ATOM      4  H   UNL     1      -1.804  -6.106  -1.102  0.00  0.00    +0.149 HD
ENDROOT
BRANCH   1   5
ATOM      5  C   UNL     1      -3.771  -4.737  -0.025  0.00  0.00    +0.106 C 
ATOM      6  C   UNL     1      -4.668  -4.421   1.174  0.00  0.00    +0.041 C 
ATOM      7  C   UNL     1      -4.441  -4.243  -1.308  0.00  0.00    +0.041 C 
BRANCH   5  11
ATOM      8  N   UNL     1      -1.238  -2.106   0.395  0.00  0.00    -0.299 N 
ATOM      9  C   UNL     1      -2.426  -2.723   0.242  0.00  0.00    +0.300 C 
ATOM     10  O   UNL     1      -3.450  -2.069   0.195  0.00  0.00    -0.253 OA
ATOM     11  N   UNL     1      -2.479  -4.066   0.141  0.00  0.00    -0.286 N 
ATOM     12  H   UNL     1      -0.421  -2.628   0.432  0.00  0.00    +0.150 HD
ATOM     13  H   UNL     1      -1.663  -4.588   0.178  0.00  0.00    +0.151 HD
BRANCH   8  14
ATOM     14  C   UNL     1      -1.180  -0.646   0.504  0.00  0.00    +0.105 C 
BRANCH  14  16
ATOM     15  C   UNL     1       0.337   1.320   0.783  0.00  0.00    +0.005 C 
ATOM     16  C   UNL     1       0.276  -0.204   0.669  0.00  0.00    +0.015 C 
ENDBRANCH  14  16
ENDBRANCH   8  14
ENDBRANCH   5  11
ENDBRANCH   1   5
BRANCH   3  17
ATOM     17  C   UNL     1      -2.247  -8.162  -0.805  0.00  0.00    +0.093 C 
BRANCH  17  18
ATOM     18  C   UNL     1      -0.991  -8.448  -1.631  0.00  0.00    -0.020 C 
BRANCH  18  19
ATOM     19  C   UNL     1       0.220  -7.925  -0.902  0.00  0.00    -0.058 A 
ATOM     20  C   UNL     1       0.778  -8.659   0.128  0.00  0.00    +0.002 A 
ATOM     21  C   UNL     1       1.888  -8.180   0.797  0.00  0.00    +0.002 A 
ATOM     22  C   UNL     1       2.441  -6.965   0.437  0.00  0.00    +0.020 A 
ATOM     23  C   UNL     1       1.883  -6.230  -0.593  0.00  0.00    +0.041 A 
ATOM     24  C   UNL     1       0.775  -6.713  -1.266  0.00  0.00    +0.022 A 
ATOM     25 CL   UNL     1       2.578  -4.704  -1.046  0.00  0.00    -0.084 Cl
ENDBRANCH  18  19
BRANCH  18  26
ATOM     26  N   UNL     1      -0.855  -9.897  -1.829  0.00  0.00    +0.385 N 
ATOM     27  C   UNL     1      -2.006 -10.418  -2.610  0.00  0.00    -0.078 C 
ATOM     28  C   UNL     1      -1.463 -11.743  -3.201  0.00  0.00    -0.020 C 
ATOM     29  C   UNL     1       0.007 -11.398  -3.531  0.00  0.00    -0.020 C 
ATOM     30  C   UNL     1       0.348 -10.191  -2.638  0.00  0.00    -0.078 C 
ATOM     31  H   UNL     1      -0.798 -10.367  -0.937  0.00  0.00    -0.081 HD
ENDBRANCH  18  26
ENDBRANCH  17  18
ENDBRANCH   3  17
TORSDOF 8
