REMARK  Name = ZINC05424186
REMARK  9 active torsions:
REMARK  status: ('A' for Active; 'I' for Inactive)
REMARK    1  A    between atoms: C_1  and  C_2
REMARK    2  A    between atoms: C_2  and  C_25
REMARK    3  A    between atoms: C_4  and  N_9
REMARK    4  A    between atoms: C_6  and  C_7
REMARK    5  A    between atoms: C_6  and  C_8
REMARK    6  A    between atoms: C_10  and  C_11
REMARK    7  A    between atoms: C_10  and  C_17
REMARK    8  A    between atoms: C_20  and  O_24
REMARK    9  A    between atoms: C_21  and  O_23
REMARK                            x       y       z     vdW  Elec       q    Type
REMARK                         _______ _______ _______ _____ _____    ______ ____
ROOT
ATOM      1  N   UNL     1      -2.420   4.976   0.213  0.00  0.00    -0.280 NA
ATOM      2  C   UNL     1      -2.427   3.678   0.097  0.00  0.00    +0.073 C 
ENDROOT
BRANCH   1   6
ATOM      3  C   UNL     1       1.351   6.552  -1.424  0.00  0.00    -0.010 C 
ATOM      4  C   UNL     1       0.206   7.456  -0.953  0.00  0.00    -0.071 C 
ATOM      5  C   UNL     1      -1.101   6.668  -0.957  0.00  0.00    +0.014 C 
ATOM      6  C   UNL     1      -1.146   5.706   0.230  0.00  0.00    +0.103 C 
ATOM      7  C   UNL     1      -1.049   6.520   1.520  0.00  0.00    +0.014 C 
ATOM      8  C   UNL     1       0.258   7.309   1.554  0.00  0.00    -0.071 C 
ATOM      9  C   UNL     1       1.420   6.360   1.870  0.00  0.00    -0.010 C 
ATOM     10  C   UNL     1       0.162   8.317   2.720  0.00  0.00    -0.010 C 
ATOM     11  C   UNL     1       0.067   8.595  -1.988  0.00  0.00    -0.010 C 
ATOM     12  N   UNL     1       0.533   8.120   0.338  0.00  0.00    +0.386 N 
ATOM     13  H   UNL     1      -0.020   8.983   0.400  0.00  0.00    -0.084 HD
ATOM     14  H   UNL     1       1.533   8.354   0.331  0.00  0.00    -0.084 HD
ENDBRANCH   1   6
BRANCH   2  15
ATOM     15  C   UNL     1      -3.709   2.956  -0.070  0.00  0.00    +0.001 A 
ATOM     16  C   UNL     1      -3.738   1.562  -0.032  0.00  0.00    +0.010 A 
ATOM     17  C   UNL     1      -4.936   0.895  -0.184  0.00  0.00    +0.001 A 
ATOM     18  C   UNL     1      -6.106   1.605  -0.383  0.00  0.00    +0.000 A 
ATOM     19  C   UNL     1      -6.084   2.988  -0.426  0.00  0.00    +0.001 A 
ATOM     20  C   UNL     1      -4.892   3.667  -0.271  0.00  0.00    +0.010 A 
ENDBRANCH   2  15
BRANCH   2  21
ATOM     21  C   UNL     1      -1.153   2.926   0.131  0.00  0.00    +0.004 A 
ATOM     22  C   UNL     1      -0.817   2.072  -0.920  0.00  0.00    +0.014 A 
ATOM     23  C   UNL     1       0.368   1.367  -0.884  0.00  0.00    +0.050 A 
ATOM     24  C   UNL     1       1.233   1.514   0.191  0.00  0.00    +0.158 A 
ATOM     25  C   UNL     1       0.906   2.370   1.241  0.00  0.00    +0.159 A 
ATOM     26  C   UNL     1      -0.283   3.074   1.213  0.00  0.00    +0.059 A 
BRANCH  25  27
ATOM     27  O   UNL     1       1.756   2.511   2.293  0.00  0.00    -0.503 OA
ATOM     28  H   UNL     1       2.406   3.218   2.181  0.00  0.00    +0.292 HD
ENDBRANCH  25  27
BRANCH  24  29
ATOM     29  O   UNL     1       2.402   0.822   0.220  0.00  0.00    -0.503 OA
ATOM     30  H   UNL     1       3.145   1.287  -0.189  0.00  0.00    +0.292 HD
ENDBRANCH  24  29
ENDBRANCH   2  21
TORSDOF 5
