REMARK  Name = ZINC64491709
REMARK  3 active torsions:
REMARK  status: ('A' for Active; 'I' for Inactive)
REMARK    1  A    between atoms: C_1  and  C_2
REMARK    2  A    between atoms: C_8  and  C_12
REMARK    3  A    between atoms: C_20  and  C_22
REMARK                            x       y       z     vdW  Elec       q    Type
REMARK                         _______ _______ _______ _____ _____    ______ ____
ROOT
ATOM      1  C   UNL     1      -0.777  -2.404   3.511  0.00  0.00    +0.238 C 
ATOM      2  O   UNL     1      -1.918  -2.793   3.647  0.00  0.00    -0.273 OA
ATOM      3  N   UNL     1      -0.280  -1.467   4.342  0.00  0.00    -0.297 N 
ATOM      4  C   UNL     1       1.068  -0.920   4.133  0.00  0.00    +0.127 C 
ATOM      5  C   UNL     1       0.967   0.607   4.033  0.00  0.00    +0.127 C 
ATOM      6  N   UNL     1       0.170   1.101   5.164  0.00  0.00    -0.297 N 
ATOM      7  C   UNL     1      -1.178   0.554   5.373  0.00  0.00    +0.127 C 
ATOM      8  C   UNL     1      -1.080  -0.969   5.471  0.00  0.00    +0.127 C 
ATOM      9  C   UNL     1       0.667   2.038   5.996  0.00  0.00    +0.242 C 
ATOM     10  O   UNL     1       1.781   2.481   5.814  0.00  0.00    -0.273 OA
ENDROOT
BRANCH   1  18
ATOM     11  C   UNL     1       1.934  -6.394   5.708  0.00  0.00    +0.044 C 
ATOM     12  C   UNL     1       2.101  -5.461   4.536  0.00  0.00    -0.050 A 
ATOM     13  C   UNL     1       3.328  -5.375   3.903  0.00  0.00    +0.004 A 
ATOM     14  C   UNL     1       3.475  -4.510   2.833  0.00  0.00    +0.016 A 
ATOM     15  C   UNL     1       2.401  -3.752   2.412  0.00  0.00    +0.028 A 
ATOM     16  C   UNL     1       1.153  -3.836   3.028  0.00  0.00    -0.006 A 
ATOM     17  C   UNL     1       1.029  -4.710   4.107  0.00  0.00    +0.010 A 
ATOM     18  C   UNL     1       0.085  -2.969   2.412  0.00  0.00    +0.182 C 
ATOM     19  N   UNL     1       0.641  -1.847   1.620  0.00  0.00    -0.243 NA
ATOM     20  S   UNL     1       2.213  -2.546   1.121  0.00  0.00    -0.043 S 
ATOM     21  H   UNL     1       0.063  -1.649   0.818  0.00  0.00    +0.137 HD
ENDBRANCH   1  18
BRANCH   9  22
ATOM     22  C   UNL     1      -0.162   2.535   7.152  0.00  0.00    +0.190 C 
ATOM     23  C   UNL     1      -0.458   1.400   8.107  0.00  0.00    +0.016 C 
ATOM     24  C   UNL     1       0.092   1.754   9.291  0.00  0.00    -0.002 A 
ATOM     25  C   UNL     1       0.150   1.089  10.598  0.00  0.00    +0.029 A 
ATOM     26  C   UNL     1       0.787   1.706  11.621  0.00  0.00    +0.042 A 
ATOM     27  C   UNL     1       1.391   2.962  11.462  0.00  0.00    +0.022 A 
ATOM     28  C   UNL     1       1.379   3.634  10.291  0.00  0.00    +0.027 A 
ATOM     29  C   UNL     1       0.738   3.079   9.150  0.00  0.00    +0.043 A 
ATOM     30  N   UNL     1       0.592   3.527   7.925  0.00  0.00    -0.370 N 
ATOM     31 CL   UNL     1       0.857   0.924  13.169  0.00  0.00    -0.084 Cl
ATOM     32  H   UNL     1       0.927   4.373   7.588  0.00  0.00    +0.161 HD
ENDBRANCH   9  22
TORSDOF 2
