REMARK  Name = ZINC59601420
REMARK  12 active torsions:
REMARK  status: ('A' for Active; 'I' for Inactive)
REMARK    1  A    between atoms: C_1  and  O_2
REMARK    2  A    between atoms: O_2  and  C_3
REMARK    3  A    between atoms: C_6  and  C_9
REMARK    4  A    between atoms: C_9  and  C_10
REMARK    5  A    between atoms: C_9  and  C_16
REMARK    6  A    between atoms: C_9  and  O_24
REMARK    7  A    between atoms: C_19  and  O_22
REMARK    8  A    between atoms: O_22  and  C_23
REMARK    9  A    between atoms: O_24  and  C_25
REMARK   10  A    between atoms: C_25  and  C_26
REMARK   11  A    between atoms: C_28  and  O_42
REMARK   12  A    between atoms: C_31  and  N_34
REMARK                            x       y       z     vdW  Elec       q    Type
REMARK                         _______ _______ _______ _____ _____    ______ ____
ROOT
ATOM      1  C   UNL     1       2.513  -2.193  -4.573  0.00  0.00    +0.144 C 
ENDROOT
BRANCH   1   5
ATOM      2  C   UNL     1       0.891   1.176  -2.505  0.00  0.00    +0.120 A 
ATOM      3  C   UNL     1       1.156   1.257  -3.864  0.00  0.00    +0.046 A 
ATOM      4  C   UNL     1       1.680   0.166  -4.531  0.00  0.00    +0.011 A 
ATOM      5  C   UNL     1       1.941  -1.005  -3.844  0.00  0.00    -0.007 A 
ATOM      6  C   UNL     1       1.678  -1.089  -2.489  0.00  0.00    +0.011 A 
ATOM      7  C   UNL     1       1.159   0.001  -1.817  0.00  0.00    +0.046 A 
BRANCH   2   9
ATOM      8  C   UNL     1       0.124   3.423  -2.619  0.00  0.00    +0.277 C 
ATOM      9  O   UNL     1       0.375   2.247  -1.847  0.00  0.00    -0.495 OA
ENDBRANCH   2   9
ENDBRANCH   1   5
BRANCH   1  10
ATOM     10  C   UNL     1       4.003  -2.247  -4.355  0.00  0.00    -0.007 A 
ATOM     11  C   UNL     1       4.513  -2.270  -3.071  0.00  0.00    +0.007 A 
ATOM     12  C   UNL     1       5.880  -2.320  -2.871  0.00  0.00    +0.000 A 
ATOM     13  C   UNL     1       6.737  -2.346  -3.955  0.00  0.00    +0.000 A 
ATOM     14  C   UNL     1       6.227  -2.324  -5.240  0.00  0.00    +0.000 A 
ATOM     15  C   UNL     1       4.860  -2.279  -5.440  0.00  0.00    +0.007 A 
ENDBRANCH   1  10
BRANCH   1  16
ATOM     16  C   UNL     1       1.882  -3.457  -4.047  0.00  0.00    -0.007 A 
ATOM     17  C   UNL     1       0.539  -3.474  -3.720  0.00  0.00    +0.011 A 
ATOM     18  C   UNL     1      -0.041  -4.631  -3.238  0.00  0.00    +0.046 A 
ATOM     19  C   UNL     1       0.725  -5.777  -3.082  0.00  0.00    +0.120 A 
ATOM     20  C   UNL     1       2.072  -5.758  -3.411  0.00  0.00    +0.046 A 
ATOM     21  C   UNL     1       2.647  -4.599  -3.898  0.00  0.00    +0.011 A 
BRANCH  19  22
ATOM     22  O   UNL     1       0.156  -6.916  -2.607  0.00  0.00    -0.495 OA
ATOM     23  C   UNL     1       1.005  -8.057  -2.472  0.00  0.00    +0.277 C 
ENDBRANCH  19  22
ENDBRANCH   1  16
BRANCH   1  24
ATOM     24  O   UNL     1       2.240  -2.071  -5.971  0.00  0.00    -0.357 OA
BRANCH  24  25
ATOM     25  C   UNL     1       0.851  -2.138  -6.300  0.00  0.00    +0.196 C 
BRANCH  25  26
ATOM     26  C   UNL     1       0.668  -1.873  -7.796  0.00  0.00    +0.175 C 
ATOM     27  C   UNL     1      -0.836  -1.869  -8.169  0.00  0.00    +0.150 C 
ATOM     28  C   UNL     1      -0.797  -2.231  -9.674  0.00  0.00    +0.088 C 
ATOM     29  C   UNL     1       0.573  -2.910  -9.864  0.00  0.00    +0.226 C 
ATOM     30  O   UNL     1       1.209  -2.961  -8.575  0.00  0.00    -0.348 OA
BRANCH  29  31
ATOM     31  N   UNL     1       0.389  -4.266 -10.388  0.00  0.00    -0.273 N 
ATOM     32  C   UNL     1       0.853  -4.581 -11.630  0.00  0.00    +0.096 A 
ATOM     33  C   UNL     1       0.677  -5.838 -12.103  0.00  0.00    +0.061 A 
ATOM     34  C   UNL     1       0.016  -6.786 -11.295  0.00  0.00    +0.123 A 
ATOM     35  N   UNL     1      -0.419  -6.433 -10.092  0.00  0.00    -0.178 NA
ATOM     36  C   UNL     1      -0.234  -5.194  -9.639  0.00  0.00    +0.352 A 
ATOM     37  O   UNL     1      -0.638  -4.896  -8.527  0.00  0.00    -0.244 OA
ATOM     38  N   UNL     1      -0.176  -8.069 -11.751  0.00  0.00    -0.343 N 
ATOM     39  H   UNL     1       0.143  -8.324 -12.631  0.00  0.00    +0.144 HD
ATOM     40  H   UNL     1      -0.631  -8.719 -11.193  0.00  0.00    +0.144 HD
ENDBRANCH  29  31
BRANCH  27  41
ATOM     41  O   UNL     1      -1.549  -2.858  -7.424  0.00  0.00    -0.389 OA
ATOM     42  H   UNL     1      -2.495  -2.894  -7.623  0.00  0.00    +0.210 HD
ENDBRANCH  27  41
ENDBRANCH  25  26
ENDBRANCH  24  25
ENDBRANCH   1  24
TORSDOF 10
