REMARK  Name = ZINC24901151
REMARK  8 active torsions:
REMARK  status: ('A' for Active; 'I' for Inactive)
REMARK    1  A    between atoms: C_1  and  C_2
REMARK    2  A    between atoms: C_3  and  N_15
REMARK    3  A    between atoms: N_6  and  C_9
REMARK    4  A    between atoms: N_7  and  C_8
REMARK    5  A    between atoms: C_16  and  C_18
REMARK    6  A    between atoms: C_18  and  C_19
REMARK    7  A    between atoms: C_19  and  S_20
REMARK    8  A    between atoms: S_20  and  C_21
REMARK                            x       y       z     vdW  Elec       q    Type
REMARK                         _______ _______ _______ _____ _____    ______ ____
ROOT
ATOM      1  N   UNL     1      -1.157  -0.667   2.650  0.00  0.00    -0.280 N 
ATOM      2  C   UNL     1      -1.281  -1.244   3.862  0.00  0.00    +0.218 C 
ATOM      3  O   UNL     1      -1.550  -0.567   4.832  0.00  0.00    -0.275 OA
ATOM      4  H   UNL     1      -0.997  -1.290   1.758  0.00  0.00    +0.155 HD
ENDROOT
BRANCH   1   7
ATOM      5  C   UNL     1       0.989   1.090   1.337  0.00  0.00    +0.067 C 
ATOM      6  C   UNL     1      -0.310   1.541   1.956  0.00  0.00    +0.059 A 
ATOM      7  C   UNL     1      -1.233   0.735   2.527  0.00  0.00    +0.121 A 
ATOM      8  C   UNL     1      -2.325   1.590   2.993  0.00  0.00    +0.293 A 
ATOM      9  O   UNL     1      -3.340   1.225   3.560  0.00  0.00    -0.264 OA
ATOM     10  N   UNL     1      -1.994   2.858   2.676  0.00  0.00    -0.216 N 
ATOM     11  N   UNL     1      -0.748   2.836   2.039  0.00  0.00    -0.282 N 
ATOM     12  C   UNL     1      -0.029   4.010   1.539  0.00  0.00    +0.171 C 
BRANCH  10  13
ATOM     13  C   UNL     1      -2.760   3.998   2.941  0.00  0.00    +0.067 A 
ATOM     14  C   UNL     1      -3.296   4.197   4.207  0.00  0.00    +0.028 A 
ATOM     15  C   UNL     1      -4.046   5.327   4.468  0.00  0.00    +0.002 A 
ATOM     16  C   UNL     1      -4.275   6.253   3.467  0.00  0.00    +0.000 A 
ATOM     17  C   UNL     1      -3.749   6.054   2.204  0.00  0.00    +0.002 A 
ATOM     18  C   UNL     1      -2.992   4.930   1.938  0.00  0.00    +0.028 A 
ENDBRANCH  10  13
ENDBRANCH   1   7
BRANCH   2  19
ATOM     19  C   UNL     1      -1.085  -2.731   4.011  0.00  0.00    +0.107 C 
BRANCH  19  20
ATOM     20  C   UNL     1      -1.280  -3.126   5.476  0.00  0.00    +0.086 C 
BRANCH  20  21
ATOM     21  S   UNL     1      -1.044  -4.912   5.656  0.00  0.00    -0.085 S 
BRANCH  21  22
ATOM     22  C   UNL     1      -1.319  -5.084   7.388  0.00  0.00    +0.191 A 
ATOM     23  N   UNL     1      -1.235  -6.287   7.945  0.00  0.00    -0.207 NA
ATOM     24  C   UNL     1      -1.431  -6.477   9.238  0.00  0.00    +0.129 A 
ATOM     25  C   UNL     1      -1.740  -5.363  10.068  0.00  0.00    +0.047 A 
ATOM     26  C   UNL     1      -1.995  -5.314  11.498  0.00  0.00    +0.021 A 
ATOM     27  C   UNL     1      -2.270  -4.135  12.074  0.00  0.00    +0.048 A 
ATOM     28  S   UNL     1      -2.207  -2.983  10.715  0.00  0.00    -0.077 S 
ATOM     29  C   UNL     1      -1.812  -4.117   9.409  0.00  0.00    +0.114 A 
ATOM     30  N   UNL     1      -1.599  -4.009   8.113  0.00  0.00    -0.215 NA
ATOM     31  N   UNL     1      -1.335  -7.746   9.780  0.00  0.00    -0.343 N 
ATOM     32  H   UNL     1      -1.498  -7.898  10.857  0.00  0.00    +0.144 HD
ATOM     33  H   UNL     1      -1.095  -8.603   9.134  0.00  0.00    +0.144 HD
ENDBRANCH  21  22
ENDBRANCH  20  21
ENDBRANCH  19  20
ENDBRANCH   2  19
TORSDOF 6
