REMARK  Name = ZINC57339615
REMARK  6 active torsions:
REMARK  status: ('A' for Active; 'I' for Inactive)
REMARK    1  A    between atoms: C_1  and  C_2
REMARK    2  A    between atoms: C_3  and  C_15
REMARK    3  A    between atoms: C_4  and  O_11
REMARK    4  A    between atoms: C_6  and  C_9
REMARK    5  A    between atoms: O_11  and  C_12
REMARK    6  A    between atoms: C_12  and  C_14
REMARK                            x       y       z     vdW  Elec       q    Type
REMARK                         _______ _______ _______ _____ _____    ______ ____
ROOT
ATOM      1  C   UNL     1       0.074   1.503   0.001  0.00  0.00    +0.046 C 
ATOM      2  C   UNL     1       0.046  -0.004  -0.003  0.00  0.00    -0.019 A 
ATOM      3  C   UNL     1      -0.100  -0.699  -1.207  0.00  0.00    +0.110 A 
ATOM      4  C   UNL     1      -0.124  -2.101  -1.200  0.00  0.00    +0.160 A 
ATOM      5  C   UNL     1      -0.002  -2.785   0.002  0.00  0.00    +0.065 A 
ATOM      6  C   UNL     1       0.141  -2.086   1.185  0.00  0.00    -0.019 A 
ATOM      7  C   UNL     1       0.171  -0.699   1.181  0.00  0.00    +0.026 A 
ATOM      8 BR   UNL     1       0.376   0.242   2.808  0.00  0.00    -0.050 Br
ATOM      9  C   UNL     1       0.273  -2.834   2.486  0.00  0.00    +0.046 C 
ATOM     10 BR   UNL     1      -0.034  -4.675   0.020  0.00  0.00    -0.046 Br
ENDROOT
BRANCH   3  11
ATOM     11  C   UNL     1      -0.228   0.037  -2.476  0.00  0.00    +0.390 C 
ATOM     12  O   UNL     1       0.766   0.278  -3.146  0.00  0.00    -0.240 OA
ATOM     13  O   UNL     1      -1.329   0.407  -2.860  0.00  0.00    -0.240 OA
ENDBRANCH   3  11
BRANCH   4  14
ATOM     14  O   UNL     1      -0.265  -2.787  -2.362  0.00  0.00    -0.424 OA
BRANCH  14  15
ATOM     15  C   UNL     1       0.847  -3.126  -3.034  0.00  0.00    +0.309 C 
ATOM     16  O   UNL     1       1.932  -2.821  -2.599  0.00  0.00    -0.251 OA
ATOM     17  C   UNL     1       0.742  -3.888  -4.330  0.00  0.00    +0.136 C 
ENDBRANCH  14  15
ENDBRANCH   4  14
TORSDOF 3
