REMARK  Name = ZINC48316538
REMARK  4 active torsions:
REMARK  status: ('A' for Active; 'I' for Inactive)
REMARK    1  A    between atoms: C_1  and  C_2
REMARK    2  A    between atoms: C_2  and  N_3
REMARK    3  A    between atoms: N_12  and  C_13
REMARK    4  A    between atoms: C_13  and  C_15
REMARK                            x       y       z     vdW  Elec       q    Type
REMARK                         _______ _______ _______ _____ _____    ______ ____
ROOT
ATOM      1  N   UNL     1      -1.366  -0.525   0.012  0.00  0.00    -0.312 N 
ATOM      2  C   UNL     1      -2.121  -0.810   1.145  0.00  0.00    +0.068 A 
ATOM      3  C   UNL     1      -1.856  -0.727   2.505  0.00  0.00    +0.028 A 
ATOM      4  C   UNL     1      -2.826  -1.088   3.418  0.00  0.00    +0.002 A 
ATOM      5  C   UNL     1      -4.063  -1.534   2.984  0.00  0.00    +0.002 A 
ATOM      6  C   UNL     1      -4.337  -1.621   1.633  0.00  0.00    +0.028 A 
ATOM      7  C   UNL     1      -3.368  -1.259   0.707  0.00  0.00    +0.066 A 
ATOM      8  N   UNL     1      -3.346  -1.238  -0.684  0.00  0.00    -0.326 N 
ATOM      9  C   UNL     1      -2.128  -0.785  -1.084  0.00  0.00    +0.201 A 
ATOM     10  N   UNL     1      -1.743  -0.626  -2.345  0.00  0.00    -0.142 NA
ATOM     11  H   UNL     1      -4.076  -1.498  -1.268  0.00  0.00    +0.169 HD
ENDROOT
BRANCH   1  13
ATOM     12  C   UNL     1      -0.003   1.506   0.017  0.00  0.00    +0.027 C 
ATOM     13  C   UNL     1       0.010  -0.024   0.001  0.00  0.00    +0.122 C 
ENDBRANCH   1  13
BRANCH  10  14
ATOM     14  C   UNL     1      -2.541  -1.018  -3.342  0.00  0.00    +0.270 C 
ATOM     15  O   UNL     1      -3.660  -1.434  -3.100  0.00  0.00    -0.268 OA
BRANCH  14  16
ATOM     16  C   UNL     1      -2.063  -0.948  -4.746  0.00  0.00    +0.044 A 
ATOM     17  C   UNL     1      -0.780  -0.480  -5.045  0.00  0.00    +0.033 A 
ATOM     18  C   UNL     1      -0.373  -0.430  -6.363  0.00  0.00    +0.114 A 
ATOM     19  N   UNL     1      -1.175  -0.816  -7.336  0.00  0.00    -0.237 NA
ATOM     20  C   UNL     1      -2.396  -1.265  -7.099  0.00  0.00    +0.139 A 
ATOM     21  C   UNL     1      -2.881  -1.353  -5.801  0.00  0.00    +0.060 A 
ATOM     22  N   UNL     1      -3.206  -1.662  -8.169  0.00  0.00    -0.290 N 
ATOM     23  C   UNL     1      -2.837  -1.736  -9.488  0.00  0.00    +0.114 A 
ATOM     24  C   UNL     1      -3.916  -2.160 -10.171  0.00  0.00    +0.130 A 
ATOM     25  N   UNL     1      -4.919  -2.342  -9.300  0.00  0.00    -0.244 NA
ATOM     26  C   UNL     1      -4.505  -2.053  -8.096  0.00  0.00    +0.205 A 
ENDBRANCH  14  16
ENDBRANCH  10  14
TORSDOF 3
