REMARK  Name = ZINC26786682
REMARK  7 active torsions:
REMARK  status: ('A' for Active; 'I' for Inactive)
REMARK    1  A    between atoms: C_4  and  S_7
REMARK    2  A    between atoms: S_7  and  N_10
REMARK    3  A    between atoms: C_13  and  N_22
REMARK    4  A    between atoms: N_22  and  N_23
REMARK    5  A    between atoms: C_24  and  C_26
REMARK    6  A    between atoms: C_28  and  O_33
REMARK    7  A    between atoms: C_30  and  O_32
REMARK                            x       y       z     vdW  Elec       q    Type
REMARK                         _______ _______ _______ _____ _____    ______ ____
ROOT
ATOM      1  N   UNL     1      -6.041   7.439   0.095  0.00  0.00    -0.129 NA
ATOM      2  C   UNL     1      -4.912   8.097   0.099  0.00  0.00    +0.091 C 
ATOM      3  C   UNL     1      -3.641   7.364   0.085  0.00  0.00    +0.058 C 
ATOM      4  C   UNL     1      -2.474   8.046   0.088  0.00  0.00    +0.094 C 
ATOM      5  C   UNL     1      -2.488   9.520   0.111  0.00  0.00    +0.205 C 
ATOM      6  O   UNL     1      -1.438  10.134   0.117  0.00  0.00    -0.286 OA
ATOM      7  C   UNL     1      -3.766  10.253   0.120  0.00  0.00    +0.010 C 
ATOM      8  C   UNL     1      -4.922   9.578   0.118  0.00  0.00    -0.010 C 
ATOM      9  C   UNL     1      -6.250  10.285   0.134  0.00  0.00    +0.064 C 
ATOM     10  C   UNL     1      -6.130  11.691  -0.363  0.00  0.00    -0.026 C 
ATOM     11  C   UNL     1      -5.010  12.345  -0.361  0.00  0.00    -0.026 C 
ATOM     12  C   UNL     1      -3.728  11.757   0.139  0.00  0.00    +0.066 C 
ENDROOT
BRANCH   1  13
ATOM     13  S   UNL     1      -7.344   8.025   0.933  0.00  0.00    +0.099 S 
ATOM     14  O   UNL     1      -6.823   8.741   2.045  0.00  0.00    -0.146 OA
ATOM     15  O   UNL     1      -8.205   8.627  -0.024  0.00  0.00    -0.146 OA
BRANCH  13  19
ATOM     16  C   UNL     1      -9.568   4.460   2.615  0.00  0.00    +0.000 A 
ATOM     17  C   UNL     1      -8.564   5.059   3.352  0.00  0.00    +0.002 A 
ATOM     18  C   UNL     1      -7.885   6.147   2.838  0.00  0.00    +0.029 A 
ATOM     19  C   UNL     1      -8.209   6.637   1.587  0.00  0.00    +0.112 A 
ATOM     20  C   UNL     1      -9.217   6.042   0.852  0.00  0.00    +0.029 A 
ATOM     21  C   UNL     1      -9.893   4.950   1.363  0.00  0.00    +0.002 A 
ENDBRANCH  13  19
ENDBRANCH   1  13
BRANCH   4  22
ATOM     22  N   UNL     1      -1.266   7.361   0.076  0.00  0.00    -0.261 N 
ATOM     23  H   UNL     1      -0.317   7.918   0.078  0.00  0.00    +0.170 HD
BRANCH  22  24
ATOM     24  N   UNL     1      -1.255   5.960   0.060  0.00  0.00    -0.232 N 
ATOM     25  C   UNL     1      -0.083   5.295   0.048  0.00  0.00    +0.260 C 
ATOM     26  O   UNL     1       0.965   5.911   0.051  0.00  0.00    -0.269 OA
ATOM     27  H   UNL     1      -2.203   5.403   0.058  0.00  0.00    +0.173 HD
BRANCH  25  28
ATOM     28  C   UNL     1      -0.071   3.817   0.032  0.00  0.00    +0.045 A 
ATOM     29  C   UNL     1       1.141   3.126   0.019  0.00  0.00    +0.058 A 
ATOM     30  C   UNL     1       1.147   1.741   0.003  0.00  0.00    +0.121 A 
ATOM     31  C   UNL     1      -0.050   1.040  -0.001  0.00  0.00    +0.090 A 
ATOM     32  C   UNL     1      -1.258   1.723   0.006  0.00  0.00    +0.121 A 
ATOM     33  C   UNL     1      -1.273   3.108   0.028  0.00  0.00    +0.058 A 
BRANCH  32  34
ATOM     34  O   UNL     1      -2.428   1.032  -0.003  0.00  0.00    -0.507 OA
ATOM     35  H   UNL     1      -3.386   1.572   0.003  0.00  0.00    +0.292 HD
ENDBRANCH  32  34
BRANCH  30  36
ATOM     36  O   UNL     1       2.328   1.068  -0.009  0.00  0.00    -0.507 OA
ATOM     37  H   UNL     1       2.333  -0.032  -0.021  0.00  0.00    +0.292 HD
ENDBRANCH  30  36
ENDBRANCH  25  28
ENDBRANCH  22  24
ENDBRANCH   4  22
TORSDOF 7
