REMARK  Name = ZINC49549617
REMARK  3 active torsions:
REMARK  status: ('A' for Active; 'I' for Inactive)
REMARK    1  A    between atoms: C_1  and  N_2
REMARK    2  A    between atoms: C_8  and  C_14
REMARK    3  A    between atoms: C_11  and  O_13
REMARK                            x       y       z     vdW  Elec       q    Type
REMARK                         _______ _______ _______ _____ _____    ______ ____
ROOT
ATOM      1  C   UNL     1      -0.018   1.461   0.010  0.00  0.00    +0.127 C 
ATOM      2  N   UNL     1       0.002  -0.004   0.002  0.00  0.00    -0.326 N 
ATOM      3  C   UNL     1      -1.188  -0.713   0.010  0.00  0.00    +0.160 A 
ATOM      4  N   UNL     1      -2.430  -0.261   0.018  0.00  0.00    -0.206 NA
ATOM      5  C   UNL     1      -3.484  -1.084   0.027  0.00  0.00    +0.169 A 
ATOM      6  C   UNL     1      -3.218  -2.433   0.019  0.00  0.00    +0.045 A 
ATOM      7  S   UNL     1      -1.451  -2.484   0.003  0.00  0.00    -0.055 S 
ATOM      8  C   UNL     1      -4.238  -3.518   0.017  0.00  0.00    +0.070 C 
ATOM      9  C   UNL     1      -5.495  -2.971   0.711  0.00  0.00    +0.109 C 
ATOM     10  C   UNL     1      -5.744  -1.547   0.306  0.00  0.00    +0.190 C 
ATOM     11  N   UNL     1      -4.820  -0.693   0.020  0.00  0.00    -0.197 NA
ATOM     12  H   UNL     1       0.849  -0.478  -0.009  0.00  0.00    +0.148 HD
ENDROOT
BRANCH   8  13
ATOM     13  C   UNL     1      -4.564  -3.911  -1.401  0.00  0.00    -0.020 A 
ATOM     14  C   UNL     1      -5.074  -2.972  -2.278  0.00  0.00    +0.008 A 
ATOM     15  C   UNL     1      -5.373  -3.331  -3.578  0.00  0.00    +0.039 A 
ATOM     16  C   UNL     1      -5.162  -4.631  -4.004  0.00  0.00    +0.125 A 
ATOM     17  C   UNL     1      -4.651  -5.572  -3.126  0.00  0.00    +0.058 A 
ATOM     18  C   UNL     1      -4.347  -5.209  -1.826  0.00  0.00    +0.047 A 
ATOM     19 CL   UNL     1      -3.699  -6.386  -0.726  0.00  0.00    -0.083 Cl
ATOM     20  F   UNL     1      -5.455  -4.983  -5.275  0.00  0.00    -0.205 F 
ENDBRANCH   8  13
BRANCH  10  21
ATOM     21  O   UNL     1      -7.026  -1.129   0.237  0.00  0.00    -0.495 OA
ATOM     22  H   UNL     1      -7.125  -0.204  -0.029  0.00  0.00    +0.293 HD
ENDBRANCH  10  21
TORSDOF 2
