REMARK  Name = ZINC36007626
REMARK  10 active torsions:
REMARK  status: ('A' for Active; 'I' for Inactive)
REMARK    1  A    between atoms: C_1  and  C_2
REMARK    2  A    between atoms: C_3  and  C_7
REMARK    3  A    between atoms: C_10  and  S_13
REMARK    4  A    between atoms: N_11  and  N_12
REMARK    5  A    between atoms: S_13  and  C_14
REMARK    6  A    between atoms: C_14  and  C_15
REMARK    7  A    between atoms: N_17  and  C_18
REMARK    8  A    between atoms: C_25  and  C_29
REMARK    9  A    between atoms: C_26  and  C_27
REMARK   10  A    between atoms: C_26  and  C_28
REMARK                            x       y       z     vdW  Elec       q    Type
REMARK                         _______ _______ _______ _____ _____    ______ ____
ROOT
ATOM      1  S   UNL     1      -6.339  -0.773  -0.257  0.00  0.00    -0.075 S 
ENDROOT
BRANCH   1   5
ATOM      2  C   UNL     1      -2.473  -0.208  -0.293  0.00  0.00    +0.185 A 
ATOM      3  N   UNL     1      -2.940   1.004  -0.103  0.00  0.00    -0.127 NA
ATOM      4  N   UNL     1      -4.225   0.978  -0.067  0.00  0.00    -0.121 NA
ATOM      5  C   UNL     1      -4.657  -0.251  -0.233  0.00  0.00    +0.209 A 
ATOM      6  N   UNL     1      -3.557  -1.048  -0.389  0.00  0.00    -0.224 N 
BRANCH   2   9
ATOM      7  C   UNL     1      -0.005   1.713  -0.076  0.00  0.00    +0.087 C 
ATOM      8  C   UNL     1       0.033   0.224  -0.301  0.00  0.00    +0.112 A 
ATOM      9  C   UNL     1      -1.049  -0.595  -0.393  0.00  0.00    +0.061 A 
ATOM     10  C   UNL     1      -0.510  -1.944  -0.612  0.00  0.00    +0.053 A 
ATOM     11  C   UNL     1       0.826  -1.810  -0.630  0.00  0.00    +0.196 A 
ATOM     12  O   UNL     1       1.140  -0.518  -0.449  0.00  0.00    -0.467 OA
ENDBRANCH   2   9
BRANCH   6  13
ATOM     13  N   UNL     1      -3.539  -2.399  -0.594  0.00  0.00    -0.295 N 
ATOM     14  H   UNL     1      -3.508  -2.897   0.283  0.00  0.00    +0.163 HD
ATOM     15  H   UNL     1      -4.331  -2.691  -1.147  0.00  0.00    +0.163 HD
ENDBRANCH   6  13
ENDBRANCH   1   5
BRANCH   1  16
ATOM     16  C   UNL     1      -7.278   0.759  -0.005  0.00  0.00    +0.173 C 
BRANCH  16  17
ATOM     17  C   UNL     1      -8.753   0.450  -0.005  0.00  0.00    +0.224 C 
ATOM     18  O   UNL     1      -9.133  -0.691  -0.159  0.00  0.00    -0.275 OA
ATOM     19  N   UNL     1      -9.649   1.442   0.167  0.00  0.00    -0.311 N 
ATOM     20  H   UNL     1      -9.345   2.354   0.290  0.00  0.00    +0.149 HD
BRANCH  19  21
ATOM     21  C   UNL     1     -11.083   1.141   0.168  0.00  0.00    +0.080 C 
ATOM     22  C   UNL     1     -11.616   1.053  -1.281  0.00  0.00    +0.027 C 
ATOM     23  C   UNL     1     -12.688   2.181  -1.376  0.00  0.00    -0.003 C 
ATOM     24  C   UNL     1     -13.876   1.664  -0.507  0.00  0.00    +0.005 C 
ATOM     25  C   UNL     1     -13.358   1.739   0.947  0.00  0.00    +0.009 C 
ATOM     26  C   UNL     1     -11.883   2.313   0.814  0.00  0.00    -0.008 C 
ATOM     27  C   UNL     1     -12.057   3.261  -0.428  0.00  0.00    -0.025 C 
ATOM     28  C   UNL     1     -13.027   4.409  -0.141  0.00  0.00    +0.012 C 
ATOM     29  C   UNL     1     -10.714   3.771  -0.953  0.00  0.00    +0.012 C 
ATOM     30  C   UNL     1     -11.271   2.925   2.075  0.00  0.00    +0.013 C 
ENDBRANCH  19  21
ENDBRANCH  16  17
ENDBRANCH   1  16
TORSDOF 6
