REMARK  Name = ZINC04532730
REMARK  9 active torsions:
REMARK  status: ('A' for Active; 'I' for Inactive)
REMARK    1  A    between atoms: C_1  and  C_2
REMARK    2  A    between atoms: C_2  and  C_4
REMARK    3  A    between atoms: C_10  and  C_36
REMARK    4  A    between atoms: C_11  and  O_35
REMARK    5  A    between atoms: C_18  and  O_31
REMARK    6  A    between atoms: C_23  and  C_30
REMARK    7  A    between atoms: C_26  and  O_29
REMARK    8  A    between atoms: O_31  and  C_32
REMARK    9  A    between atoms: C_32  and  C_34
REMARK                            x       y       z     vdW  Elec       q    Type
REMARK                         _______ _______ _______ _____ _____    ______ ____
ROOT
ATOM      1  C   UNL     1       0.949   3.702  -1.379  0.00  0.00    +0.064 C 
ATOM      2  C   UNL     1       1.395   5.176  -1.192  0.00  0.00    +0.012 C 
ATOM      3  C   UNL     1       2.146   5.245   0.162  0.00  0.00    +0.005 C 
ATOM      4  C   UNL     1       2.445   3.772   0.478  0.00  0.00    +0.005 C 
ATOM      5  C   UNL     1       1.158   3.066   0.007  0.00  0.00    +0.007 C 
ATOM      6  C   UNL     1       1.325   1.569   0.043  0.00  0.00    +0.122 C 
ATOM      7  C   UNL     1       2.143   1.126   1.268  0.00  0.00    +0.036 C 
ATOM      8  C   UNL     1       2.134   2.167   2.373  0.00  0.00    +0.005 C 
ATOM      9  C   UNL     1       2.809   3.452   1.897  0.00  0.00    +0.037 C 
ATOM     10  C   UNL     1       2.571   4.596   2.874  0.00  0.00    +0.180 C 
ATOM     11  C   UNL     1       2.780   4.086   4.310  0.00  0.00    +0.049 C 
ATOM     12  C   UNL     1       3.629   2.827   4.242  0.00  0.00    +0.001 C 
ATOM     13  C   UNL     1       2.840   1.666   3.635  0.00  0.00    -0.026 C 
ATOM     14  C   UNL     1       3.802   0.517   3.361  0.00  0.00    +0.010 C 
ATOM     15  C   UNL     1       4.469   0.084   4.672  0.00  0.00    +0.032 C 
ATOM     16  C   UNL     1       5.187   1.252   5.341  0.00  0.00    +0.115 C 
ATOM     17  C   UNL     1       4.226   2.423   5.581  0.00  0.00    +0.035 C 
ATOM     18  C   UNL     1       1.754   1.197   4.606  0.00  0.00    +0.012 C 
ATOM     19  C   UNL     1      -0.061   3.483   0.844  0.00  0.00    +0.015 C 
ENDROOT
BRANCH   1  21
ATOM     20  C   UNL     1       1.340   3.113  -3.886  0.00  0.00    +0.086 C 
ATOM     21  C   UNL     1       1.780   3.052  -2.446  0.00  0.00    +0.134 C 
ATOM     22  O   UNL     1       2.801   2.479  -2.150  0.00  0.00    -0.297 OA
ENDBRANCH   1  21
BRANCH  16  23
ATOM     23  O   UNL     1       5.727   0.822   6.593  0.00  0.00    -0.392 OA
ATOM     24  H   UNL     1       6.345   0.081   6.521  0.00  0.00    +0.210 HD
ENDBRANCH  16  23
BRANCH   6  25
ATOM     25  O   UNL     1       0.034   0.940   0.085  0.00  0.00    -0.391 OA
ATOM     26  H   UNL     1       0.068  -0.026   0.110  0.00  0.00    +0.210 HD
ENDBRANCH   6  25
BRANCH  10  27
ATOM     27  O   UNL     1       3.532   5.656   2.616  0.00  0.00    -0.461 OA
BRANCH  27  28
ATOM     28  C   UNL     1       3.142   6.911   2.890  0.00  0.00    +0.304 C 
ATOM     29  O   UNL     1       2.035   7.118   3.330  0.00  0.00    -0.251 OA
ATOM     30  C   UNL     1       4.084   8.062   2.649  0.00  0.00    +0.136 C 
ENDBRANCH  27  28
ENDBRANCH  10  27
TORSDOF 5
