REMARK  Name = ZINC53112319
REMARK  7 active torsions:
REMARK  status: ('A' for Active; 'I' for Inactive)
REMARK    1  A    between atoms: C_1  and  C_2
REMARK    2  A    between atoms: C_3  and  N_22
REMARK    3  A    between atoms: C_5  and  C_9
REMARK    4  A    between atoms: N_11  and  C_12
REMARK    5  A    between atoms: C_12  and  C_20
REMARK    6  A    between atoms: C_16  and  C_19
REMARK    7  A    between atoms: C_20  and  O_21
REMARK                            x       y       z     vdW  Elec       q    Type
REMARK                         _______ _______ _______ _____ _____    ______ ____
ROOT
ATOM      1  C   UNL     1      -0.945  -3.883   1.529  0.00  0.00    +0.245 C 
ATOM      2  O   UNL     1      -1.953  -4.285   2.075  0.00  0.00    -0.270 OA
ATOM      3  N   UNL     1      -0.033  -4.761   1.066  0.00  0.00    -0.304 N 
ATOM      4  H   UNL     1       0.738  -4.444   0.570  0.00  0.00    +0.150 HD
ENDROOT
BRANCH   1   9
ATOM      5  C   UNL     1      -0.049   1.775   0.914  0.00  0.00    +0.048 C 
ATOM      6  C   UNL     1      -0.285   0.295   1.075  0.00  0.00    +0.005 A 
ATOM      7  C   UNL     1      -1.440  -0.158   1.701  0.00  0.00    +0.031 A 
ATOM      8  C   UNL     1      -1.659  -1.519   1.850  0.00  0.00    +0.036 A 
ATOM      9  C   UNL     1      -0.717  -2.430   1.372  0.00  0.00    +0.041 A 
ATOM     10  C   UNL     1       0.440  -1.967   0.745  0.00  0.00    +0.051 A 
ATOM     11  C   UNL     1       0.648  -0.608   0.595  0.00  0.00    +0.129 A 
ATOM     12  F   UNL     1       1.766  -0.161  -0.016  0.00  0.00    -0.205 F 
BRANCH   7  13
ATOM     13  N   UNL     1      -2.381   0.757   2.179  0.00  0.00    -0.358 N 
ATOM     14  H   UNL     1      -2.228   1.709   2.074  0.00  0.00    +0.142 HD
ATOM     15  H   UNL     1      -3.187   0.441   2.615  0.00  0.00    +0.142 HD
ENDBRANCH   7  13
ENDBRANCH   1   9
BRANCH   3  16
ATOM     16  C   UNL     1      -0.207  -6.195   1.312  0.00  0.00    +0.058 C 
ATOM     17  C   UNL     1       0.943  -6.967   0.663  0.00  0.00    +0.028 C 
ATOM     18  C   UNL     1       2.272  -6.504   1.263  0.00  0.00    +0.002 C 
ATOM     19  C   UNL     1       2.269  -6.765   2.771  0.00  0.00    +0.003 C 
ATOM     20  C   UNL     1       1.119  -5.993   3.421  0.00  0.00    -0.012 C 
ATOM     21  C   UNL     1      -0.209  -6.457   2.820  0.00  0.00    +0.031 C 
ATOM     22  C   UNL     1       1.300  -4.496   3.163  0.00  0.00    +0.007 C 
BRANCH  16  23
ATOM     23  C   UNL     1      -1.536  -6.659   0.712  0.00  0.00    +0.181 C 
BRANCH  23  24
ATOM     24  O   UNL     1      -1.584  -6.301  -0.671  0.00  0.00    -0.393 OA
ATOM     25  H   UNL     1      -2.400  -6.565  -1.117  0.00  0.00    +0.209 HD
ENDBRANCH  23  24
ENDBRANCH  16  23
ENDBRANCH   3  16
TORSDOF 5
