REMARK  Name = ZINC64733463
REMARK  5 active torsions:
REMARK  status: ('A' for Active; 'I' for Inactive)
REMARK    1  A    between atoms: C_4  and  C_7
REMARK    2  A    between atoms: C_13  and  C_15
REMARK    3  A    between atoms: C_15  and  N_16
REMARK    4  A    between atoms: C_19  and  C_24
REMARK    5  A    between atoms: C_24  and  C_25
REMARK                            x       y       z     vdW  Elec       q    Type
REMARK                         _______ _______ _______ _____ _____    ______ ____
ROOT
ATOM      1  N   UNL     1       7.474  -5.177   1.597  0.00  0.00    -0.216 N 
ATOM      2  C   UNL     1       6.728  -6.283   1.792  0.00  0.00    +0.244 C 
ATOM      3  O   UNL     1       5.538  -6.333   2.015  0.00  0.00    -0.273 OA
ATOM      4  C   UNL     1       7.688  -7.450   1.673  0.00  0.00    +0.165 C 
ATOM      5  N   UNL     1       8.984  -6.807   1.400  0.00  0.00    -0.287 N 
ATOM      6  C   UNL     1       8.757  -5.481   1.369  0.00  0.00    +0.310 C 
ATOM      7  O   UNL     1       9.621  -4.652   1.161  0.00  0.00    -0.252 OA
ATOM      8  H   UNL     1       9.835  -7.252   1.265  0.00  0.00    +0.151 HD
ENDROOT
BRANCH   1   9
ATOM      9  C   UNL     1       6.944  -3.812   1.625  0.00  0.00    +0.213 C 
BRANCH   9  16
ATOM     10  C   UNL     1       3.695  -0.685  -0.038  0.00  0.00    -0.041 C 
ATOM     11  C   UNL     1       4.476  -0.564   1.008  0.00  0.00    -0.004 C 
ATOM     12  C   UNL     1       5.823  -1.224   1.117  0.00  0.00    +0.135 C 
ATOM     13  N   UNL     1       5.973  -2.195   0.024  0.00  0.00    -0.296 N 
ATOM     14  C   UNL     1       5.529  -1.779  -1.317  0.00  0.00    +0.113 C 
ATOM     15  C   UNL     1       4.021  -1.508  -1.249  0.00  0.00    +0.054 C 
ATOM     16  C   UNL     1       6.498  -3.417   0.240  0.00  0.00    +0.234 C 
ATOM     17  O   UNL     1       6.612  -4.200  -0.679  0.00  0.00    -0.274 OA
BRANCH  10  21
ATOM     18  C   UNL     1      -0.017   1.379   0.010  0.00  0.00    +0.000 A 
ATOM     19  C   UNL     1       1.168   2.093   0.002  0.00  0.00    +0.001 A 
ATOM     20  C   UNL     1       2.377   1.429  -0.013  0.00  0.00    +0.008 A 
ATOM     21  C   UNL     1       2.403   0.034  -0.021  0.00  0.00    -0.022 A 
ATOM     22  C   UNL     1       1.204  -0.681  -0.013  0.00  0.00    +0.008 A 
ATOM     23  C   UNL     1       0.002  -0.004   0.002  0.00  0.00    +0.001 A 
ENDBRANCH  10  21
ENDBRANCH   9  16
ENDBRANCH   1   9
BRANCH   4  24
ATOM     24  C   UNL     1       7.740  -8.239   2.983  0.00  0.00    +0.065 C 
BRANCH  24  25
ATOM     25  C   UNL     1       8.603  -9.461   2.800  0.00  0.00    -0.039 C 
ATOM     26  C   UNL     1       9.916  -9.581   3.101  0.00  0.00    -0.001 A 
ATOM     27  C   UNL     1      10.896  -8.646   3.667  0.00  0.00    +0.010 A 
ATOM     28  C   UNL     1      12.168  -9.065   3.857  0.00  0.00    +0.001 A 
ATOM     29  C   UNL     1      12.573 -10.366   3.528  0.00  0.00    +0.002 A 
ATOM     30  C   UNL     1      11.730 -11.282   3.005  0.00  0.00    +0.026 A 
ATOM     31  C   UNL     1      10.368 -10.950   2.763  0.00  0.00    +0.043 A 
ATOM     32  N   UNL     1       9.374 -11.648   2.271  0.00  0.00    -0.380 N 
ATOM     33  C   UNL     1       8.175 -10.802   2.248  0.00  0.00    +0.144 C 
ATOM     34  H   UNL     1       9.421 -12.570   1.976  0.00  0.00    +0.160 HD
ENDBRANCH  24  25
ENDBRANCH   4  24
TORSDOF 5
