REMARK  Name = ZINC08318596
REMARK  5 active torsions:
REMARK  status: ('A' for Active; 'I' for Inactive)
REMARK    1  A    between atoms: C_1  and  C_2
REMARK    2  A    between atoms: C_2  and  C_31
REMARK    3  A    between atoms: C_13  and  C_15
REMARK    4  A    between atoms: C_15  and  N_58
REMARK    5  A    between atoms: C_19  and  C_21
REMARK                            x       y       z     vdW  Elec       q    Type
REMARK                         _______ _______ _______ _____ _____    ______ ____
ROOT
ATOM      1  C   UNL     1       0.810   4.676   2.224  0.00  0.00    +0.020 C 
ENDROOT
BRANCH   1  14
ATOM      2  C   UNL     1      -2.295   6.626   4.319  0.00  0.00    +0.042 C 
ATOM      3  C   UNL     1      -1.219   5.996   5.206  0.00  0.00    +0.113 C 
ATOM      4  C   UNL     1      -0.677   7.032   6.152  0.00  0.00    +0.241 C 
ATOM      5  O   UNL     1      -1.399   7.925   6.539  0.00  0.00    -0.273 OA
ATOM      6  N   UNL     1       0.602   6.982   6.569  0.00  0.00    -0.282 N 
ATOM      7  C   UNL     1       1.471   5.992   6.098  0.00  0.00    +0.055 A 
ATOM      8  C   UNL     1       2.685   5.757   6.723  0.00  0.00    +0.025 A 
ATOM      9  C   UNL     1       3.534   4.781   6.235  0.00  0.00    +0.002 A 
ATOM     10  C   UNL     1       3.177   4.037   5.125  0.00  0.00    +0.002 A 
ATOM     11  C   UNL     1       1.966   4.262   4.495  0.00  0.00    +0.025 A 
ATOM     12  C   UNL     1       1.112   5.236   4.980  0.00  0.00    +0.058 A 
ATOM     13  N   UNL     1      -0.125   5.487   4.366  0.00  0.00    -0.257 N 
ATOM     14  C   UNL     1      -0.302   5.273   3.047  0.00  0.00    +0.204 C 
ATOM     15  O   UNL     1      -1.358   5.561   2.523  0.00  0.00    -0.277 OA
ATOM     16  C   UNL     1      -1.826   4.844   6.009  0.00  0.00    +0.042 C 
ATOM     17  H   UNL     1       0.925   7.641   7.204  0.00  0.00    +0.155 HD
ENDBRANCH   1  14
BRANCH   1  22
ATOM     18  C   UNL     1       0.218   6.335   0.556  0.00  0.00    -0.077 C 
ATOM     19  C   UNL     1       1.226   6.869  -0.484  0.00  0.00    -0.020 C 
ATOM     20  C   UNL     1       1.711   5.577  -1.194  0.00  0.00    -0.013 C 
ATOM     21  C   UNL     1       1.725   4.563  -0.023  0.00  0.00    -0.037 C 
ATOM     22  N   UNL     1       0.540   4.917   0.783  0.00  0.00    +0.390 N 
ATOM     23  H   UNL     1      -0.256   4.337   0.489  0.00  0.00    -0.080 HD
BRANCH  21  24
ATOM     24  C   UNL     1       1.593   3.156  -0.546  0.00  0.00    -0.057 A 
ATOM     25  C   UNL     1       0.366   2.696  -0.988  0.00  0.00    +0.006 A 
ATOM     26  C   UNL     1       0.241   1.406  -1.468  0.00  0.00    +0.049 A 
ATOM     27  C   UNL     1       1.347   0.570  -1.509  0.00  0.00    +0.162 A 
ATOM     28  C   UNL     1       2.580   1.032  -1.067  0.00  0.00    +0.162 A 
ATOM     29  C   UNL     1       2.699   2.328  -0.585  0.00  0.00    +0.051 A 
ATOM     30  O   UNL     1       3.679   0.230  -1.102  0.00  0.00    -0.485 OA
ATOM     31  C   UNL     1       3.444  -1.176  -1.239  0.00  0.00    +0.270 C 
ATOM     32  C   UNL     1       2.408  -1.384  -2.352  0.00  0.00    +0.270 C 
ATOM     33  O   UNL     1       1.207  -0.699  -1.980  0.00  0.00    -0.485 OA
ENDBRANCH  21  24
ENDBRANCH   1  22
TORSDOF 3
