REMARK  Name = ZINC63303079
REMARK  4 active torsions:
REMARK  status: ('A' for Active; 'I' for Inactive)
REMARK    1  A    between atoms: N_17  and  C_18
REMARK    2  A    between atoms: C_18  and  C_19
REMARK    3  A    between atoms: N_24  and  C_27
REMARK    4  A    between atoms: C_27  and  C_28
REMARK                            x       y       z     vdW  Elec       q    Type
REMARK                         _______ _______ _______ _____ _____    ______ ____
ROOT
ATOM      1  C   UNL     1       3.473  -7.751   1.094  0.00  0.00    +0.201 C 
ENDROOT
BRANCH   1  17
ATOM      2  C   UNL     1      -0.010   1.351   0.010  0.00  0.00    +0.001 A 
ATOM      3  C   UNL     1       1.172   2.104   0.008  0.00  0.00    +0.002 A 
ATOM      4  C   UNL     1       2.396   1.536  -0.007  0.00  0.00    +0.026 A 
ATOM      5  C   UNL     1       2.535   0.122  -0.021  0.00  0.00    +0.043 A 
ATOM      6  N   UNL     1       3.597  -0.651  -0.017  0.00  0.00    -0.376 N 
ATOM      7  C   UNL     1       3.160  -2.042  -0.115  0.00  0.00    +0.124 C 
ATOM      8  C   UNL     1       3.674  -2.887   1.056  0.00  0.00    +0.138 C 
ATOM      9  N   UNL     1       2.879  -4.124   1.104  0.00  0.00    -0.283 N 
ATOM     10  C   UNL     1       1.425  -4.071   1.288  0.00  0.00    +0.114 C 
ATOM     11  C   UNL     1       0.798  -3.236   0.155  0.00  0.00    +0.052 C 
ATOM     12  C   UNL     1       1.644  -1.995  -0.018  0.00  0.00    -0.036 C 
ATOM     13  C   UNL     1       1.299  -0.699  -0.013  0.00  0.00    -0.001 A 
ATOM     14  C   UNL     1       0.008  -0.001  -0.000  0.00  0.00    +0.010 A 
ATOM     15  C   UNL     1       3.492  -5.317   0.976  0.00  0.00    +0.303 C 
ATOM     16  O   UNL     1       4.682  -5.366   0.728  0.00  0.00    -0.253 OA
ATOM     17  N   UNL     1       2.788  -6.456   1.124  0.00  0.00    -0.291 N 
ATOM     18  H   UNL     1       1.827  -6.419   1.249  0.00  0.00    +0.151 HD
ATOM     19  H   UNL     1       4.517  -0.350   0.042  0.00  0.00    +0.160 HD
ENDBRANCH   1  17
BRANCH   1  20
ATOM     20  C   UNL     1       2.467  -8.857   1.280  0.00  0.00    +0.233 C 
ATOM     21  O   UNL     1       1.292  -8.590   1.423  0.00  0.00    -0.274 OA
ATOM     22  N   UNL     1       2.872 -10.142   1.288  0.00  0.00    -0.298 N 
ATOM     23  C   UNL     1       4.292 -10.487   1.122  0.00  0.00    +0.123 C 
ATOM     24  C   UNL     1       4.411 -11.538   0.013  0.00  0.00    +0.103 C 
ATOM     25  N   UNL     1       3.528 -12.671   0.319  0.00  0.00    -0.295 NA
ATOM     26  C   UNL     1       2.119 -12.258   0.339  0.00  0.00    +0.103 C 
ATOM     27  C   UNL     1       1.906 -11.237   1.468  0.00  0.00    +0.123 C 
BRANCH  25  28
ATOM     28  C   UNL     1       3.740 -13.774  -0.629  0.00  0.00    +0.119 C 
BRANCH  28  29
ATOM     29  C   UNL     1       3.007 -14.998  -0.146  0.00  0.00    -0.030 A 
ATOM     30  C   UNL     1       3.641 -15.896   0.693  0.00  0.00    +0.009 A 
ATOM     31  C   UNL     1       2.972 -17.021   1.139  0.00  0.00    +0.050 A 
ATOM     32  C   UNL     1       1.664 -17.251   0.746  0.00  0.00    +0.166 A 
ATOM     33  C   UNL     1       1.025 -16.347  -0.099  0.00  0.00    +0.167 A 
ATOM     34  C   UNL     1       1.700 -15.219  -0.538  0.00  0.00    +0.054 A 
ATOM     35  O   UNL     1      -0.243 -16.793  -0.337  0.00  0.00    -0.453 OA
ATOM     36  C   UNL     1      -0.238 -18.183   0.038  0.00  0.00    +0.466 C 
ATOM     37  O   UNL     1       0.796 -18.264   1.037  0.00  0.00    -0.453 OA
ENDBRANCH  28  29
ENDBRANCH  25  28
ENDBRANCH   1  20
TORSDOF 4
