REMARK  Name = ZINC56085189
REMARK  3 active torsions:
REMARK  status: ('A' for Active; 'I' for Inactive)
REMARK    1  A    between atoms: C_8  and  C_13
REMARK    2  A    between atoms: N_15  and  C_16
REMARK    3  A    between atoms: C_19  and  N_23
REMARK                            x       y       z     vdW  Elec       q    Type
REMARK                         _______ _______ _______ _____ _____    ______ ____
ROOT
ATOM      1  C   UNL     1       2.585  -4.212  -0.045  0.00  0.00    +0.265 C 
ATOM      2  O   UNL     1       1.561  -4.867  -0.029  0.00  0.00    -0.268 OA
ATOM      3  N   UNL     1       3.782  -4.832  -0.062  0.00  0.00    -0.280 N 
ATOM      4  H   UNL     1       4.596  -4.312  -0.143  0.00  0.00    +0.155 HD
ENDROOT
BRANCH   1  12
ATOM      5  C   UNL     1      -0.016   1.374  -0.008  0.00  0.00    +0.001 A 
ATOM      6  C   UNL     1       1.168   2.099  -0.026  0.00  0.00    +0.001 A 
ATOM      7  C   UNL     1       2.388   1.456  -0.044  0.00  0.00    +0.014 A 
ATOM      8  C   UNL     1       2.432   0.064  -0.043  0.00  0.00    +0.046 A 
ATOM      9  C   UNL     1       1.226  -0.675  -0.025  0.00  0.00    -0.011 A 
ATOM     10  C   UNL     1       0.003  -0.004  -0.008  0.00  0.00    +0.009 A 
ATOM     11  C   UNL     1       1.303  -2.136  -0.026  0.00  0.00    +0.039 A 
ATOM     12  C   UNL     1       2.519  -2.739  -0.044  0.00  0.00    +0.105 A 
ATOM     13  N   UNL     1       3.693  -2.017  -0.061  0.00  0.00    -0.318 N 
ATOM     14  H   UNL     1       4.537  -2.495  -0.074  0.00  0.00    +0.169 HD
ATOM     15  C   UNL     1       3.705  -0.670  -0.062  0.00  0.00    +0.257 A 
ATOM     16  O   UNL     1       4.762  -0.066  -0.079  0.00  0.00    -0.267 OA
ENDBRANCH   1  12
BRANCH   3  17
ATOM     17  C   UNL     1       3.848  -6.226   0.035  0.00  0.00    +0.037 A 
ATOM     18  C   UNL     1       4.896  -6.825   0.723  0.00  0.00    +0.025 A 
ATOM     19  C   UNL     1       4.963  -8.200   0.819  0.00  0.00    +0.032 A 
ATOM     20  C   UNL     1       3.983  -8.986   0.228  0.00  0.00    +0.102 A 
ATOM     21  C   UNL     1       2.933  -8.388  -0.460  0.00  0.00    +0.150 A 
ATOM     22  C   UNL     1       2.864  -7.010  -0.552  0.00  0.00    +0.063 A 
ATOM     23  F   UNL     1       1.979  -9.152  -1.036  0.00  0.00    -0.203 F 
BRANCH  20  24
ATOM     24  N   UNL     1       4.051 -10.384   0.326  0.00  0.00    -0.218 N 
ATOM     25  C   UNL     1       3.185 -11.274  -0.196  0.00  0.00    +0.225 A 
ATOM     26  N   UNL     1       3.600 -12.475   0.116  0.00  0.00    -0.222 NA
ATOM     27  C   UNL     1       4.722 -12.394   0.830  0.00  0.00    +0.245 A 
ATOM     28  N   UNL     1       5.041 -11.135   0.981  0.00  0.00    -0.153 NA
ENDBRANCH  20  24
ENDBRANCH   3  17
TORSDOF 3
