REMARK  Name = ZINC59478061
REMARK  12 active torsions:
REMARK  status: ('A' for Active; 'I' for Inactive)
REMARK    1  A    between atoms: C_1  and  C_2
REMARK    2  A    between atoms: C_6  and  N_9
REMARK    3  A    between atoms: C_7  and  C_8
REMARK    4  A    between atoms: N_12  and  C_13
REMARK    5  A    between atoms: C_13  and  C_14
REMARK    6  A    between atoms: C_14  and  C_35
REMARK    7  A    between atoms: C_16  and  N_23
REMARK    8  A    between atoms: C_19  and  C_21
REMARK    9  A    between atoms: C_19  and  C_22
REMARK   10  A    between atoms: N_26  and  C_27
REMARK   11  A    between atoms: C_31  and  C_34
REMARK   12  A    between atoms: C_32  and  C_33
REMARK                            x       y       z     vdW  Elec       q    Type
REMARK                         _______ _______ _______ _____ _____    ______ ____
ROOT
ATOM      1  C   UNL     1      -0.256  -6.786   4.911  0.00  0.00    -0.014 C 
ATOM      2  C   UNL     1      -1.462  -6.147   5.582  0.00  0.00    +0.030 C 
ATOM      3  C   UNL     1      -1.819  -6.779   6.915  0.00  0.00    +0.076 C 
ATOM      4  C   UNL     1      -1.973  -8.285   6.805  0.00  0.00    +0.028 C 
ATOM      5  C   UNL     1      -0.789  -8.975   6.148  0.00  0.00    -0.033 C 
ATOM      6  C   UNL     1      -0.336  -8.300   4.869  0.00  0.00    +0.014 C 
ATOM      7  C   UNL     1      -1.242 -10.410   5.778  0.00  0.00    +0.011 C 
ATOM      8  C   UNL     1       0.371  -9.122   7.136  0.00  0.00    +0.011 C 
ATOM      9  C   UNL     1       1.046  -6.317   5.564  0.00  0.00    +0.013 C 
ENDROOT
BRANCH   3  10
ATOM     10  N   UNL     1      -0.888  -6.398   7.973  0.00  0.00    -0.296 N 
ATOM     11  C   UNL     1      -1.312  -6.331   9.251  0.00  0.00    +0.304 C 
ATOM     12  O   UNL     1      -2.469  -6.587   9.522  0.00  0.00    -0.253 OA
ATOM     13  N   UNL     1      -0.452  -5.979  10.227  0.00  0.00    -0.269 N 
ATOM     14  H   UNL     1       0.035  -6.194   7.756  0.00  0.00    +0.151 HD
ATOM     15  H   UNL     1       0.454  -5.715  10.004  0.00  0.00    +0.156 HD
BRANCH  13  16
ATOM     16  C   UNL     1      -0.868  -5.994  11.564  0.00  0.00    +0.038 A 
ATOM     17  C   UNL     1      -2.212  -5.844  11.876  0.00  0.00    +0.023 A 
ATOM     18  C   UNL     1      -2.619  -5.860  13.196  0.00  0.00    +0.002 A 
ATOM     19  C   UNL     1      -1.689  -6.024  14.206  0.00  0.00    +0.004 A 
ATOM     20  C   UNL     1      -0.349  -6.173  13.898  0.00  0.00    -0.046 A 
ATOM     21  C   UNL     1       0.063  -6.164  12.580  0.00  0.00    -0.026 A 
ATOM     22  C   UNL     1       1.523  -6.333  12.245  0.00  0.00    +0.046 C 
ATOM     23  C   UNL     1       0.661  -6.351  15.002  0.00  0.00    +0.044 C 
ENDBRANCH  13  16
ENDBRANCH   3  10
BRANCH   1  24
ATOM     24  C   UNL     1      -0.227  -6.283   3.446  0.00  0.00    +0.112 C 
BRANCH  24  28
ATOM     25  N   UNL     1      -0.042  -2.811   2.249  0.00  0.00    -0.269 N 
ATOM     26  C   UNL     1      -0.113  -4.157   2.261  0.00  0.00    +0.304 C 
ATOM     27  O   UNL     1      -0.143  -4.774   1.213  0.00  0.00    -0.253 OA
ATOM     28  N   UNL     1      -0.150  -4.820   3.434  0.00  0.00    -0.299 N 
ATOM     29  H   UNL     1       0.068  -2.324   3.081  0.00  0.00    +0.156 HD
ATOM     30  H   UNL     1      -0.125  -4.328   4.270  0.00  0.00    +0.150 HD
BRANCH  25  36
ATOM     31  C   UNL     1       0.962   1.203  -0.407  0.00  0.00    +0.044 C 
ATOM     32  C   UNL     1       0.351  -0.169  -0.278  0.00  0.00    -0.046 A 
ATOM     33  C   UNL     1      -0.293  -0.743  -1.359  0.00  0.00    +0.004 A 
ATOM     34  C   UNL     1      -0.854  -2.002  -1.244  0.00  0.00    +0.002 A 
ATOM     35  C   UNL     1      -0.772  -2.690  -0.050  0.00  0.00    +0.023 A 
ATOM     36  C   UNL     1      -0.126  -2.117   1.037  0.00  0.00    +0.038 A 
ATOM     37  C   UNL     1       0.441  -0.855   0.918  0.00  0.00    -0.026 A 
ATOM     38  C   UNL     1       1.150  -0.232   2.093  0.00  0.00    +0.046 C 
ENDBRANCH  25  36
ENDBRANCH  24  28
ENDBRANCH   1  24
TORSDOF 5
