REMARK  Name = ZINC20524722
REMARK  10 active torsions:
REMARK  status: ('A' for Active; 'I' for Inactive)
REMARK    1  A    between atoms: C_1  and  C_2
REMARK    2  A    between atoms: C_2  and  C_4
REMARK    3  A    between atoms: C_2  and  N_10
REMARK    4  A    between atoms: C_4  and  C_5
REMARK    5  A    between atoms: C_5  and  C_6
REMARK    6  A    between atoms: C_5  and  C_7
REMARK    7  A    between atoms: C_5  and  O_8
REMARK    8  A    between atoms: O_8  and  C_9
REMARK    9  A    between atoms: N_10  and  C_11
REMARK   10  A    between atoms: C_14  and  C_17
REMARK                            x       y       z     vdW  Elec       q    Type
REMARK                         _______ _______ _______ _____ _____    ______ ____
ROOT
ATOM      1  C   UNL     1       2.228   1.593   0.060  0.00  0.00    +0.027 A 
ATOM      2  C   UNL     1       1.045   2.314  -0.069  0.00  0.00    +0.023 A 
ATOM      3  C   UNL     1      -0.166   1.657  -0.077  0.00  0.00    +0.015 A 
ATOM      4  C   UNL     1      -0.205   0.266   0.045  0.00  0.00    +0.039 A 
ATOM      5  C   UNL     1       0.984  -0.454   0.175  0.00  0.00    +0.015 A 
ATOM      6  C   UNL     1       2.192   0.208   0.182  0.00  0.00    +0.023 A 
ENDROOT
BRANCH   4   7
ATOM      7  C   UNL     1      -1.502  -0.441   0.038  0.00  0.00    +0.248 A 
ATOM      8  N   UNL     1      -2.689   0.109  -0.070  0.00  0.00    -0.108 NA
ATOM      9  N   UNL     1      -3.588  -0.811  -0.042  0.00  0.00    -0.116 NA
ATOM     10  C   UNL     1      -3.016  -1.974   0.093  0.00  0.00    +0.332 A 
ATOM     11  O   UNL     1      -1.688  -1.772   0.147  0.00  0.00    -0.423 OA
ENDBRANCH   4   7
BRANCH   1  12
ATOM     12  N   UNL     1       3.452   2.261   0.068  0.00  0.00    -0.341 N 
ATOM     13  H   UNL     1       4.388   1.693   0.170  0.00  0.00    +0.146 HD
BRANCH  12  15
ATOM     14  C   UNL     1       3.301   4.358   1.318  0.00  0.00    +0.028 C 
ATOM     15  C   UNL     1       3.491   3.720  -0.060  0.00  0.00    +0.070 C 
BRANCH  15  16
ATOM     16  C   UNL     1       4.843   4.146  -0.636  0.00  0.00    +0.056 C 
BRANCH  16  17
ATOM     17  C   UNL     1       4.971   3.630  -2.071  0.00  0.00    +0.065 C 
ATOM     18  C   UNL     1       3.843   4.213  -2.925  0.00  0.00    +0.041 C 
ATOM     19  C   UNL     1       6.321   4.058  -2.649  0.00  0.00    +0.041 C 
BRANCH  17  20
ATOM     20  O   UNL     1       4.882   2.203  -2.074  0.00  0.00    -0.377 OA
ATOM     21  C   UNL     1       4.990   1.617  -3.373  0.00  0.00    +0.194 C 
ENDBRANCH  17  20
ENDBRANCH  16  17
ENDBRANCH  15  16
ENDBRANCH  12  15
ENDBRANCH   1  12
TORSDOF 6
