REMARK  Name = ZINC39000127
REMARK  8 active torsions:
REMARK  status: ('A' for Active; 'I' for Inactive)
REMARK    1  A    between atoms: C_1  and  C_2
REMARK    2  A    between atoms: C_4  and  C_36
REMARK    3  A    between atoms: C_5  and  N_9
REMARK    4  A    between atoms: C_6  and  C_8
REMARK    5  A    between atoms: C_10  and  O_35
REMARK    6  A    between atoms: C_13  and  O_34
REMARK    7  A    between atoms: C_14  and  C_18
REMARK    8  A    between atoms: N_32  and  C_33
REMARK                            x       y       z     vdW  Elec       q    Type
REMARK                         _______ _______ _______ _____ _____    ______ ____
ROOT
ATOM      1  N   UNL     1       0.973  -5.350   0.731  0.00  0.00    -0.225 N 
ATOM      2  C   UNL     1      -0.394  -5.851   0.753  0.00  0.00    +0.338 C 
ATOM      3  N   UNL     1      -0.452  -7.291   0.560  0.00  0.00    -0.204 NA
ATOM      4  C   UNL     1       0.483  -7.983   0.035  0.00  0.00    +0.200 C 
ATOM      5  C   UNL     1       1.770  -7.381  -0.449  0.00  0.00    +0.183 C 
ATOM      6  C   UNL     1       1.982  -6.029   0.172  0.00  0.00    +0.237 C 
ATOM      7  O   UNL     1       3.094  -5.544   0.170  0.00  0.00    -0.274 OA
ENDROOT
BRANCH   5   8
ATOM      8  C   UNL     1       1.717  -7.227  -1.970  0.00  0.00    +0.124 C 
ATOM      9  C   UNL     1       2.980  -6.558  -2.457  0.00  0.00    +0.039 A 
ATOM     10  H   UNL     1       4.518  -7.489  -1.405  0.00  0.00    +0.166 HD
ATOM     11  C   UNL     1       2.982  -5.573  -3.384  0.00  0.00    -0.016 A 
ATOM     12  C   UNL     1       4.358  -5.184  -3.592  0.00  0.00    +0.003 A 
ATOM     13  C   UNL     1       4.963  -4.232  -4.418  0.00  0.00    +0.010 A 
ATOM     14  C   UNL     1       6.331  -4.132  -4.354  0.00  0.00    +0.001 A 
ATOM     15  C   UNL     1       7.088  -4.931  -3.514  0.00  0.00    +0.002 A 
ATOM     16  C   UNL     1       6.517  -5.882  -2.686  0.00  0.00    +0.026 A 
ATOM     17  C   UNL     1       5.130  -6.006  -2.729  0.00  0.00    +0.047 A 
ATOM     18  N   UNL     1       4.263  -6.822  -2.061  0.00  0.00    -0.356 N 
ATOM     19  C   UNL     1       1.730  -5.040  -4.034  0.00  0.00    +0.053 C 
ATOM     20  C   UNL     1       0.596  -6.042  -3.771  0.00  0.00    +0.089 C 
ATOM     21  N   UNL     1       0.566  -6.389  -2.342  0.00  0.00    -0.296 NA
ATOM     22  C   UNL     1      -0.700  -7.041  -1.981  0.00  0.00    +0.105 C 
ENDBRANCH   5   8
BRANCH   1  27
ATOM     23  C   UNL     1       2.058  -0.307   3.092  0.00  0.00    +0.044 C 
ATOM     24  C   UNL     1       1.770  -1.647   2.465  0.00  0.00    -0.050 A 
ATOM     25  C   UNL     1       1.420  -1.722   1.130  0.00  0.00    +0.008 A 
ATOM     26  C   UNL     1       1.155  -2.948   0.552  0.00  0.00    -0.028 A 
ATOM     27  C   UNL     1       1.241  -4.106   1.313  0.00  0.00    +0.046 A 
ATOM     28  C   UNL     1       1.593  -4.027   2.654  0.00  0.00    -0.028 A 
ATOM     29  C   UNL     1       1.862  -2.798   3.225  0.00  0.00    +0.008 A 
ATOM     30  C   UNL     1       1.688  -5.281   3.485  0.00  0.00    +0.046 C 
ATOM     31  C   UNL     1       0.772  -3.030  -0.903  0.00  0.00    +0.046 C 
ENDBRANCH   1  27
BRANCH   4  32
ATOM     32  O   UNL     1       0.307  -9.315  -0.091  0.00  0.00    -0.495 OA
ATOM     33  H   UNL     1      -0.543  -9.632   0.241  0.00  0.00    +0.293 HD
ENDBRANCH   4  32
BRANCH   2  34
ATOM     34  O   UNL     1      -0.987  -5.529   2.012  0.00  0.00    -0.356 OA
ATOM     35  H   UNL     1      -1.901  -5.830   2.105  0.00  0.00    +0.214 HD
ENDBRANCH   2  34
TORSDOF 4
