REMARK  Name = ZINC63069589
REMARK  7 active torsions:
REMARK  status: ('A' for Active; 'I' for Inactive)
REMARK    1  A    between atoms: C_1  and  N_2
REMARK    2  A    between atoms: N_2  and  C_3
REMARK    3  A    between atoms: C_3  and  C_4
REMARK    4  A    between atoms: C_8  and  C_10
REMARK    5  A    between atoms: N_15  and  C_16
REMARK    6  A    between atoms: C_16  and  C_17
REMARK    7  A    between atoms: C_21  and  N_23
REMARK                            x       y       z     vdW  Elec       q    Type
REMARK                         _______ _______ _______ _____ _____    ______ ____
ROOT
ATOM      1  C   UNL     1      -0.018   1.461   0.010  0.00  0.00    +0.134 C 
ATOM      2  N   UNL     1       0.002  -0.004   0.002  0.00  0.00    -0.284 N 
ATOM      3  C   UNL     1       0.000  -0.672  -1.169  0.00  0.00    +0.303 C 
ATOM      4  O   UNL     1       0.017  -1.887  -1.175  0.00  0.00    -0.253 OA
ATOM      5  N   UNL     1      -0.020   0.009  -2.332  0.00  0.00    -0.295 N 
ATOM      6  H   UNL     1      -0.033   0.978  -2.327  0.00  0.00    +0.151 HD
ENDROOT
BRANCH   2   7
ATOM      7  C   UNL     1       0.024  -0.743   1.267  0.00  0.00    +0.144 C 
BRANCH   7   8
ATOM      8  C   UNL     1      -1.389  -1.016   1.714  0.00  0.00    -0.029 A 
ATOM      9  C   UNL     1      -2.047  -0.103   2.519  0.00  0.00    +0.005 A 
ATOM     10  C   UNL     1      -3.344  -0.346   2.934  0.00  0.00    +0.001 A 
ATOM     11  C   UNL     1      -3.991  -1.501   2.546  0.00  0.00    +0.013 A 
ATOM     12  C   UNL     1      -3.333  -2.426   1.734  0.00  0.00    +0.037 A 
ATOM     13  C   UNL     1      -2.026  -2.173   1.315  0.00  0.00    +0.018 A 
BRANCH  12  14
ATOM     14  C   UNL     1      -4.019  -3.667   1.315  0.00  0.00    +0.242 C 
ATOM     15  O   UNL     1      -3.444  -4.471   0.608  0.00  0.00    -0.270 OA
ATOM     16  N   UNL     1      -5.283  -3.907   1.718  0.00  0.00    -0.325 N 
ATOM     17  H   UNL     1      -5.742  -3.265   2.283  0.00  0.00    +0.145 HD
ATOM     18  H   UNL     1      -5.734  -4.721   1.443  0.00  0.00    +0.145 HD
ENDBRANCH  12  14
ENDBRANCH   7   8
ENDBRANCH   2   7
BRANCH   5  19
ATOM     19  C   UNL     1      -0.022  -0.717  -3.605  0.00  0.00    +0.141 C 
BRANCH  19  20
ATOM     20  C   UNL     1      -0.047   0.268  -4.745  0.00  0.00    -0.028 A 
ATOM     21  C   UNL     1      -1.255   0.708  -5.253  0.00  0.00    +0.005 A 
ATOM     22  C   UNL     1      -1.277   1.612  -6.298  0.00  0.00    +0.003 A 
ATOM     23  C   UNL     1      -0.091   2.076  -6.836  0.00  0.00    +0.033 A 
ATOM     24  C   UNL     1       1.117   1.637  -6.328  0.00  0.00    +0.127 A 
ATOM     25  C   UNL     1       1.139   0.736  -5.279  0.00  0.00    +0.038 A 
BRANCH  24  26
ATOM     26  N   UNL     1       2.387   2.134  -6.904  0.00  0.00    +0.056 N 
ATOM     27  O   UNL     1       2.367   2.924  -7.819  0.00  0.00    -0.126 OA
ATOM     28  O   UNL     1       3.443   1.750  -6.459  0.00  0.00    -0.126 OA
ENDBRANCH  24  26
ENDBRANCH  19  20
ENDBRANCH   5  19
TORSDOF 6
