REMARK  Name = ZINC39237986
REMARK  5 active torsions:
REMARK  status: ('A' for Active; 'I' for Inactive)
REMARK    1  A    between atoms: C_1  and  C_2
REMARK    2  A    between atoms: C_3  and  C_25
REMARK    3  A    between atoms: C_4  and  C_20
REMARK    4  A    between atoms: C_10  and  C_11
REMARK    5  A    between atoms: N_27  and  C_28
REMARK                            x       y       z     vdW  Elec       q    Type
REMARK                         _______ _______ _______ _____ _____    ______ ____
ROOT
ATOM      1  C   UNL     1       0.098   1.031   1.860  0.00  0.00    +0.066 C 
ATOM      2  C   UNL     1       0.086  -0.347   1.251  0.00  0.00    +0.052 C 
ATOM      3  C   UNL     1      -0.913  -0.697   0.390  0.00  0.00    +0.063 C 
ATOM      4  C   UNL     1      -0.889  -2.089  -0.200  0.00  0.00    +0.166 C 
ATOM      5  N   UNL     1       0.233  -2.981   0.207  0.00  0.00    -0.274 N 
ATOM      6  C   UNL     1       0.426  -4.240  -0.207  0.00  0.00    +0.268 A 
ATOM      7  O   UNL     1      -0.344  -4.770  -0.984  0.00  0.00    -0.266 OA
ATOM      8  C   UNL     1       1.604  -4.963   0.313  0.00  0.00    +0.078 A 
ATOM      9  C   UNL     1       2.016  -6.212   0.060  0.00  0.00    +0.024 C 
ATOM     10  S   UNL     1       2.330  -3.721   1.370  0.00  0.00    -0.046 S 
ATOM     11  C   UNL     1       1.136  -2.428   1.088  0.00  0.00    +0.178 A 
ATOM     12  N   UNL     1       1.051  -1.209   1.553  0.00  0.00    -0.228 NA
ENDROOT
BRANCH   9  13
ATOM     13  C   UNL     1       1.301  -7.047  -0.971  0.00  0.00    +0.152 C 
ATOM     14  C   UNL     1       0.938  -8.396  -0.391  0.00  0.00    +0.005 C 
ATOM     15  C   UNL     1       1.574  -9.298  -1.138  0.00  0.00    +0.017 C 
ATOM     16  C   UNL     1       2.338  -8.615  -2.182  0.00  0.00    +0.105 C 
ATOM     17  N   UNL     1       2.193  -7.332  -2.102  0.00  0.00    -0.280 NA
ENDBRANCH   9  13
BRANCH   4  18
ATOM     18  C   UNL     1      -0.853  -1.955  -1.701  0.00  0.00    +0.017 A 
ATOM     19  C   UNL     1      -1.832  -2.208  -2.603  0.00  0.00    +0.013 A 
ATOM     20  C   UNL     1      -1.572  -2.011  -3.947  0.00  0.00    +0.008 A 
ATOM     21  C   UNL     1      -0.345  -1.573  -4.322  0.00  0.00    +0.045 A 
ATOM     22  S   UNL     1       0.487  -1.417  -2.750  0.00  0.00    -0.099 S 
ENDBRANCH   4  18
BRANCH   3  23
ATOM     23  C   UNL     1      -1.936   0.211   0.061  0.00  0.00    +0.248 C 
ATOM     24  O   UNL     1      -1.878   1.363   0.454  0.00  0.00    -0.270 OA
ATOM     25  N   UNL     1      -2.980  -0.193  -0.689  0.00  0.00    -0.282 N 
ATOM     26  H   UNL     1      -3.049  -1.121  -0.966  0.00  0.00    +0.155 HD
BRANCH  25  27
ATOM     27  C   UNL     1      -3.965   0.724  -1.069  0.00  0.00    +0.034 A 
ATOM     28  C   UNL     1      -3.621   2.043  -1.338  0.00  0.00    +0.023 A 
ATOM     29  C   UNL     1      -4.596   2.946  -1.713  0.00  0.00    +0.002 A 
ATOM     30  C   UNL     1      -5.913   2.539  -1.821  0.00  0.00    +0.000 A 
ATOM     31  C   UNL     1      -6.259   1.227  -1.555  0.00  0.00    +0.002 A 
ATOM     32  C   UNL     1      -5.288   0.317  -1.185  0.00  0.00    +0.023 A 
ENDBRANCH  25  27
ENDBRANCH   3  23
TORSDOF 4
