REMARK  Name = ZINC50846688
REMARK  5 active torsions:
REMARK  status: ('A' for Active; 'I' for Inactive)
REMARK    1  A    between atoms: C_1  and  C_2
REMARK    2  A    between atoms: C_4  and  N_19
REMARK    3  A    between atoms: C_6  and  C_7
REMARK    4  A    between atoms: C_13  and  C_16
REMARK    5  A    between atoms: C_20  and  C_22
REMARK                            x       y       z     vdW  Elec       q    Type
REMARK                         _______ _______ _______ _____ _____    ______ ____
ROOT
ATOM      1  C   UNL     1       1.505   1.024   0.151  0.00  0.00    +0.045 C 
ATOM      2  C   UNL     1       0.643  -0.209   0.062  0.00  0.00    -0.029 A 
ATOM      3  C   UNL     1       0.443  -0.873  -1.120  0.00  0.00    +0.035 A 
ATOM      4  C   UNL     1      -0.358  -1.992  -1.121  0.00  0.00    +0.073 A 
ATOM      5  S   UNL     1      -0.842  -2.149   0.480  0.00  0.00    -0.069 S 
ATOM      6  C   UNL     1       0.008  -0.745   1.175  0.00  0.00    +0.079 A 
ENDROOT
BRANCH   6   7
ATOM      7  C   UNL     1       0.030  -0.277   2.559  0.00  0.00    +0.254 C 
ATOM      8  O   UNL     1       0.120   0.913   2.798  0.00  0.00    -0.269 OA
ATOM      9  N   UNL     1      -0.050  -1.164   3.571  0.00  0.00    -0.292 N 
ATOM     10  C   UNL     1      -0.029  -2.612   3.313  0.00  0.00    +0.136 C 
ATOM     11  C   UNL     1       1.026  -3.250   4.224  0.00  0.00    +0.180 C 
ATOM     12  O   UNL     1       0.785  -2.849   5.575  0.00  0.00    -0.364 OA
ATOM     13  C   UNL     1       0.901  -1.442   5.798  0.00  0.00    +0.221 C 
ATOM     14  C   UNL     1      -0.155  -0.711   4.968  0.00  0.00    +0.149 C 
BRANCH  13  15
ATOM     15  C   UNL     1       0.690  -1.144   7.260  0.00  0.00    +0.241 C 
ATOM     16  O   UNL     1       0.374  -2.034   8.021  0.00  0.00    -0.273 OA
ATOM     17  N   UNL     1       0.852   0.111   7.722  0.00  0.00    -0.327 N 
ATOM     18  H   UNL     1       1.105   0.823   7.114  0.00  0.00    +0.145 HD
ATOM     19  H   UNL     1       0.717   0.303   8.663  0.00  0.00    +0.145 HD
ENDBRANCH  13  15
ENDBRANCH   6   7
BRANCH   4  20
ATOM     20  N   UNL     1      -0.689  -2.804  -2.197  0.00  0.00    -0.276 N 
ATOM     21  C   UNL     1      -1.494  -3.870  -2.014  0.00  0.00    +0.249 C 
ATOM     22  O   UNL     1      -1.930  -4.120  -0.908  0.00  0.00    -0.270 OA
ATOM     23  H   UNL     1      -0.341  -2.605  -3.080  0.00  0.00    +0.156 HD
BRANCH  21  24
ATOM     24  C   UNL     1      -1.846  -4.735  -3.160  0.00  0.00    +0.040 A 
ATOM     25  C   UNL     1      -1.342  -4.454  -4.432  0.00  0.00    +0.013 A 
ATOM     26  C   UNL     1      -1.674  -5.264  -5.497  0.00  0.00    +0.004 A 
ATOM     27  C   UNL     1      -2.505  -6.354  -5.310  0.00  0.00    +0.038 A 
ATOM     28  C   UNL     1      -3.009  -6.639  -4.051  0.00  0.00    +0.124 A 
ATOM     29  C   UNL     1      -2.679  -5.839  -2.974  0.00  0.00    +0.051 A 
ATOM     30  F   UNL     1      -3.820  -7.706  -3.876  0.00  0.00    -0.205 F 
ENDBRANCH  21  24
ENDBRANCH   4  20
TORSDOF 4
