REMARK  Name = ZINC37770274
REMARK  3 active torsions:
REMARK  status: ('A' for Active; 'I' for Inactive)
REMARK    1  A    between atoms: C_1  and  N_2
REMARK    2  A    between atoms: C_4  and  N_9
REMARK    3  A    between atoms: C_10  and  C_12
REMARK                            x       y       z     vdW  Elec       q    Type
REMARK                         _______ _______ _______ _____ _____    ______ ____
ROOT
ATOM      1  N   UNL     1      -2.393  -2.750  -0.001  0.00  0.00    -0.281 N 
ATOM      2  C   UNL     1      -2.399  -4.093  -0.110  0.00  0.00    +0.260 C 
ATOM      3  O   UNL     1      -1.351  -4.705  -0.119  0.00  0.00    -0.271 OA
ATOM      4  H   UNL     1      -3.230  -2.266   0.081  0.00  0.00    +0.155 HD
ENDROOT
BRANCH   2   5
ATOM      5  C   UNL     1      -3.706  -4.835  -0.220  0.00  0.00    +0.276 C 
ATOM      6  C   UNL     1      -4.503  -4.669   1.082  0.00  0.00    +0.155 C 
ATOM      7  N   UNL     1      -5.745  -5.449   0.946  0.00  0.00    -0.337 N 
ATOM      8  C   UNL     1      -5.657  -6.720   0.355  0.00  0.00    +0.070 A 
ATOM      9  C   UNL     1      -6.716  -7.608   0.456  0.00  0.00    +0.026 A 
ATOM     10  C   UNL     1      -6.625  -8.857  -0.130  0.00  0.00    +0.002 A 
ATOM     11  C   UNL     1      -5.481  -9.219  -0.816  0.00  0.00    +0.004 A 
ATOM     12  C   UNL     1      -4.421  -8.337  -0.918  0.00  0.00    +0.047 A 
ATOM     13  C   UNL     1      -4.502  -7.083  -0.332  0.00  0.00    +0.142 A 
ATOM     14  O   UNL     1      -3.452  -6.225  -0.434  0.00  0.00    -0.476 OA
ATOM     15  H   UNL     1      -6.595  -5.097   1.254  0.00  0.00    +0.146 HD
ENDBRANCH   2   5
BRANCH   1  19
ATOM     16  C   UNL     1       0.648   0.314   2.176  0.00  0.00    +0.152 C 
ATOM     17  N   UNL     1       0.323  -0.556   1.043  0.00  0.00    -0.316 N 
ATOM     18  C   UNL     1      -0.854  -1.238   1.036  0.00  0.00    +0.112 A 
ATOM     19  C   UNL     1      -1.176  -2.050  -0.004  0.00  0.00    +0.050 A 
ATOM     20  C   UNL     1      -0.286  -2.189  -1.085  0.00  0.00    +0.030 A 
ATOM     21  C   UNL     1       0.891  -1.502  -1.071  0.00  0.00    +0.072 A 
ATOM     22  C   UNL     1       1.190  -0.667   0.019  0.00  0.00    +0.251 A 
ATOM     23  O   UNL     1       2.240  -0.045   0.040  0.00  0.00    -0.268 OA
ENDBRANCH   1  19
TORSDOF 2
