REMARK  Name = ZINC64789378
REMARK  8 active torsions:
REMARK  status: ('A' for Active; 'I' for Inactive)
REMARK    1  A    between atoms: C_1  and  C_2
REMARK    2  A    between atoms: C_2  and  C_3
REMARK    3  A    between atoms: C_6  and  C_27
REMARK    4  A    between atoms: N_16  and  C_19
REMARK    5  A    between atoms: C_24  and  C_25
REMARK    6  A    between atoms: C_32  and  O_33
REMARK    7  A    between atoms: O_33  and  C_34
REMARK    8  A    between atoms: C_34  and  C_35
REMARK                            x       y       z     vdW  Elec       q    Type
REMARK                         _______ _______ _______ _____ _____    ______ ____
ROOT
ATOM      1  C   UNL     1       0.707  -0.490  -1.238  0.00  0.00    +0.232 C 
ATOM      2  O   UNL     1       1.150   0.308  -2.036  0.00  0.00    -0.274 OA
ATOM      3  N   UNL     1       0.847  -1.812  -1.460  0.00  0.00    -0.215 N 
ATOM      4  C   UNL     1       1.516  -2.413  -2.621  0.00  0.00    +0.136 C 
ATOM      5  C   UNL     1       1.398  -3.931  -2.390  0.00  0.00    +0.082 C 
ATOM      6  C   UNL     1       0.651  -4.053  -1.081  0.00  0.00    +0.041 C 
ATOM      7  N   UNL     1       0.383  -2.823  -0.620  0.00  0.00    -0.264 N 
ATOM      8  C   UNL     1       0.307  -5.239  -0.459  0.00  0.00    +0.118 C 
ATOM      9  C   UNL     1       0.660  -6.545  -1.044  0.00  0.00    +0.258 C 
ATOM     10  N   UNL     1       0.291  -7.661  -0.381  0.00  0.00    -0.235 N 
ATOM     11  C   UNL     1      -0.379  -7.598   0.778  0.00  0.00    +0.320 C 
ATOM     12  O   UNL     1      -0.683  -8.640   1.325  0.00  0.00    -0.251 OA
ATOM     13  N   UNL     1      -0.732  -6.446   1.367  0.00  0.00    -0.189 N 
ATOM     14  C   UNL     1      -0.424  -5.252   0.820  0.00  0.00    +0.265 C 
ATOM     15  O   UNL     1      -0.745  -4.213   1.367  0.00  0.00    -0.269 OA
ATOM     16  O   UNL     1       1.267  -6.615  -2.096  0.00  0.00    -0.270 OA
ATOM     17  H   UNL     1       0.515  -8.528  -0.752  0.00  0.00    +0.159 HD
ATOM     18  H   UNL     1      -0.087  -2.655   0.211  0.00  0.00    +0.170 HD
ENDROOT
BRANCH  13  19
ATOM     19  C   UNL     1      -1.432  -6.484   2.580  0.00  0.00    +0.049 A 
ATOM     20  C   UNL     1      -0.739  -6.485   3.783  0.00  0.00    +0.024 A 
ATOM     21  C   UNL     1      -1.431  -6.522   4.978  0.00  0.00    +0.002 A 
ATOM     22  C   UNL     1      -2.814  -6.558   4.976  0.00  0.00    +0.000 A 
ATOM     23  C   UNL     1      -3.507  -6.558   3.779  0.00  0.00    +0.005 A 
ATOM     24  C   UNL     1      -2.820  -6.514   2.582  0.00  0.00    -0.029 A 
ATOM     25  C   UNL     1      -3.576  -6.507   1.278  0.00  0.00    +0.045 C 
ENDBRANCH  13  19
BRANCH   4  26
ATOM     26  C   UNL     1       0.816  -2.016  -3.896  0.00  0.00    +0.017 A 
ATOM     27  C   UNL     1      -0.476  -1.528  -3.851  0.00  0.00    +0.009 A 
ATOM     28  C   UNL     1      -1.119  -1.165  -5.020  0.00  0.00    +0.001 A 
ATOM     29  C   UNL     1      -0.472  -1.288  -6.235  0.00  0.00    +0.004 A 
ATOM     30  C   UNL     1       0.820  -1.775  -6.285  0.00  0.00    +0.046 A 
ATOM     31  C   UNL     1       1.469  -2.136  -5.113  0.00  0.00    +0.125 A 
BRANCH  31  32
ATOM     32  O   UNL     1       2.742  -2.610  -5.159  0.00  0.00    -0.492 OA
BRANCH  32  33
ATOM     33  C   UNL     1       3.353  -2.706  -6.447  0.00  0.00    +0.225 C 
ATOM     34  C   UNL     1       4.773  -3.256  -6.298  0.00  0.00    +0.048 C 
ENDBRANCH  32  33
ENDBRANCH  31  32
ENDBRANCH   4  26
BRANCH   1  36
ATOM     35  C   UNL     1      -0.019   1.526   0.010  0.00  0.00    +0.013 C 
ATOM     36  C   UNL     1       0.002  -0.004   0.002  0.00  0.00    +0.094 C 
ENDBRANCH   1  36
TORSDOF 5
