REMARK  Name = ZINC12758424
REMARK  7 active torsions:
REMARK  status: ('A' for Active; 'I' for Inactive)
REMARK    1  A    between atoms: C_1  and  C_2
REMARK    2  A    between atoms: C_3  and  C_8
REMARK    3  A    between atoms: C_4  and  C_7
REMARK    4  A    between atoms: C_8  and  C_9
REMARK    5  A    between atoms: C_9  and  C_10
REMARK    6  A    between atoms: N_12  and  C_13
REMARK    7  A    between atoms: N_18  and  C_20
REMARK                            x       y       z     vdW  Elec       q    Type
REMARK                         _______ _______ _______ _____ _____    ______ ____
ROOT
ATOM      1  C   UNL     1       1.548   4.328  -0.280  0.00  0.00    +0.214 C 
ATOM      2  O   UNL     1       1.240   4.442   0.887  0.00  0.00    -0.276 OA
ATOM      3  N   UNL     1       1.692   3.102  -0.822  0.00  0.00    -0.310 N 
ATOM      4  H   UNL     1       1.939   3.011  -1.756  0.00  0.00    +0.149 HD
ENDROOT
BRANCH   3   5
ATOM      5  C   UNL     1       1.475   1.908  -0.002  0.00  0.00    +0.099 C 
ATOM      6  C   UNL     1      -0.018   1.509   0.010  0.00  0.00    +0.119 C 
ATOM      7  C   UNL     1       0.002  -0.004   0.002  0.00  0.00    +0.218 C 
ATOM      8  O   UNL     1      -0.940  -0.713   0.285  0.00  0.00    -0.276 OA
ATOM      9  N   UNL     1       1.217  -0.448  -0.365  0.00  0.00    -0.297 N 
ATOM     10  C   UNL     1       2.128   0.667  -0.649  0.00  0.00    +0.130 C 
BRANCH   9  11
ATOM     11  C   UNL     1       1.583  -1.863  -0.469  0.00  0.00    +0.076 C 
ATOM     12  C   UNL     1       0.689  -2.533  -1.533  0.00  0.00    +0.022 C 
ATOM     13  C   UNL     1       1.371  -3.789  -2.006  0.00  0.00    +0.002 C 
ATOM     14  C   UNL     1       0.899  -5.039  -1.237  0.00  0.00    +0.000 C 
ATOM     15  C   UNL     1       0.749  -4.788   0.276  0.00  0.00    +0.000 C 
ATOM     16  C   UNL     1       1.875  -3.964   0.837  0.00  0.00    +0.002 C 
ATOM     17  C   UNL     1       1.445  -2.483   0.840  0.00  0.00    +0.022 C 
ENDBRANCH   9  11
ENDBRANCH   3   5
BRANCH   1  18
ATOM     18  C   UNL     1       1.771   5.556  -1.124  0.00  0.00    +0.100 C 
BRANCH  18  19
ATOM     19  C   UNL     1       1.546   6.808  -0.273  0.00  0.00    +0.049 C 
BRANCH  19  22
ATOM     20  C   UNL     1      -0.644   8.423  -2.040  0.00  0.00    +0.069 C 
ATOM     21  C   UNL     1       0.821   8.745  -1.889  0.00  0.00    +0.084 A 
ATOM     22  C   UNL     1       1.769   8.036  -1.117  0.00  0.00    +0.018 A 
ATOM     23  C   UNL     1       2.923   8.719  -1.307  0.00  0.00    +0.138 A 
ATOM     24  O   UNL     1       2.632   9.733  -2.135  0.00  0.00    -0.359 OA
ATOM     25  N   UNL     1       1.463   9.732  -2.444  0.00  0.00    -0.083 NA
ATOM     26  C   UNL     1       4.269   8.402  -0.707  0.00  0.00    +0.089 C 
ENDBRANCH  19  22
ENDBRANCH  18  19
ENDBRANCH   1  18
TORSDOF 5
