REMARK  Name = ZINC20276250
REMARK  6 active torsions:
REMARK  status: ('A' for Active; 'I' for Inactive)
REMARK    1  A    between atoms: C_1  and  C_2
REMARK    2  A    between atoms: C_2  and  C_3
REMARK    3  A    between atoms: C_2  and  C_4
REMARK    4  A    between atoms: N_8  and  C_17
REMARK    5  A    between atoms: C_12  and  N_16
REMARK    6  A    between atoms: C_17  and  C_18
REMARK                            x       y       z     vdW  Elec       q    Type
REMARK                         _______ _______ _______ _____ _____    ______ ____
ROOT
ATOM      1  C   UNL     1       0.687   3.328   0.637  0.00  0.00    +0.262 C 
ATOM      2  C   UNL     1      -0.702   3.009   0.144  0.00  0.00    +0.261 C 
ATOM      3  O   UNL     1      -1.430   3.899  -0.242  0.00  0.00    -0.271 OA
ATOM      4  N   UNL     1      -1.131   1.727   0.130  0.00  0.00    -0.261 N 
ATOM      5  C   UNL     1      -0.256   0.714   0.555  0.00  0.00    +0.079 A 
ATOM      6  C   UNL     1      -0.734  -0.548   0.867  0.00  0.00    +0.029 A 
ATOM      7  C   UNL     1       0.142  -1.535   1.278  0.00  0.00    +0.025 A 
ATOM      8  C   UNL     1       1.501  -1.263   1.379  0.00  0.00    +0.028 A 
ATOM      9  C   UNL     1       1.983   0.002   1.068  0.00  0.00    +0.070 A 
ATOM     10  C   UNL     1       1.107   0.990   0.656  0.00  0.00    +0.145 A 
ATOM     11  O   UNL     1       1.562   2.234   0.350  0.00  0.00    -0.477 OA
ENDROOT
BRANCH   1  13
ATOM     12  C   UNL     1       2.057   3.894   2.649  0.00  0.00    +0.011 C 
ATOM     13  C   UNL     1       0.649   3.566   2.148  0.00  0.00    +0.033 C 
ATOM     14  C   UNL     1      -0.288   4.736   2.457  0.00  0.00    +0.011 C 
ENDBRANCH   1  13
BRANCH   8  15
ATOM     15  N   UNL     1       2.384  -2.265   1.795  0.00  0.00    -0.358 N 
ATOM     16  H   UNL     1       3.460  -2.050   1.875  0.00  0.00    +0.142 HD
ATOM     17  H   UNL     1       2.003  -3.267   2.042  0.00  0.00    +0.142 HD
ENDBRANCH   8  15
BRANCH   4  18
ATOM     18  C   UNL     1      -2.487   1.399  -0.317  0.00  0.00    +0.150 C 
BRANCH  18  19
ATOM     19  C   UNL     1      -2.449   0.959  -1.757  0.00  0.00    -0.011 A 
ATOM     20  C   UNL     1      -2.356  -0.385  -2.067  0.00  0.00    +0.006 A 
ATOM     21  C   UNL     1      -2.320  -0.789  -3.389  0.00  0.00    +0.000 A 
ATOM     22  C   UNL     1      -2.379   0.151  -4.401  0.00  0.00    +0.001 A 
ATOM     23  C   UNL     1      -2.473   1.495  -4.093  0.00  0.00    +0.020 A 
ATOM     24  C   UNL     1      -2.513   1.899  -2.770  0.00  0.00    +0.046 A 
ATOM     25 CL   UNL     1      -2.638   3.587  -2.381  0.00  0.00    -0.083 Cl
ENDBRANCH  18  19
ENDBRANCH   4  18
TORSDOF 4
