REMARK  Name = ZINC40740986
REMARK  4 active torsions:
REMARK  status: ('A' for Active; 'I' for Inactive)
REMARK    1  A    between atoms: C_1  and  C_2
REMARK    2  A    between atoms: C_7  and  S_8
REMARK    3  A    between atoms: S_8  and  N_11
REMARK    4  A    between atoms: N_11  and  C_12
REMARK                            x       y       z     vdW  Elec       q    Type
REMARK                         _______ _______ _______ _____ _____    ______ ____
ROOT
ATOM      1  N   UNL     1       1.162   0.954   2.827  0.00  0.00    -0.187 NA
ATOM      2  H   UNL     1       1.602   1.026   3.688  0.00  0.00    +0.148 HD
ENDROOT
BRANCH   1   3
ATOM      3  C   UNL     1       1.143   2.102   1.916  0.00  0.00    +0.073 C 
ATOM      4  C   UNL     1       0.478   3.293   2.611  0.00  0.00    +0.004 C 
ATOM      5  C   UNL     1       1.362   3.741   3.786  0.00  0.00    -0.070 C 
ATOM      6  C   UNL     1       1.740   2.482   4.600  0.00  0.00    -0.017 C 
ATOM      7  C   UNL     1       3.032   1.957   3.939  0.00  0.00    -0.017 C 
ATOM      8  C   UNL     1       3.317   2.947   2.786  0.00  0.00    -0.070 C 
ATOM      9  C   UNL     1       2.578   2.466   1.526  0.00  0.00    +0.004 C 
ATOM     10  N   UNL     1       2.647   4.222   3.212  0.00  0.00    +0.383 N 
ATOM     11  H   UNL     1       2.479   4.829   2.424  0.00  0.00    -0.085 HD
ATOM     12  H   UNL     1       3.196   4.693   3.915  0.00  0.00    -0.085 HD
ENDBRANCH   1   3
BRANCH   1  13
ATOM     13  S   UNL     1       0.431  -0.465   2.386  0.00  0.00    +0.059 S 
ATOM     14  O   UNL     1      -0.885  -0.131   1.967  0.00  0.00    -0.153 OA
ATOM     15  O   UNL     1       0.685  -1.394   3.430  0.00  0.00    -0.153 OA
BRANCH  13  22
ATOM     16  C   UNL     1       3.283  -1.471   2.400  0.00  0.00    +0.046 C 
ATOM     17  C   UNL     1       2.582  -1.505   1.066  0.00  0.00    -0.024 A 
ATOM     18  C   UNL     1       3.244  -1.982  -0.050  0.00  0.00    +0.006 A 
ATOM     19  C   UNL     1       2.601  -2.014  -1.273  0.00  0.00    +0.015 A 
ATOM     20  C   UNL     1       1.295  -1.569  -1.380  0.00  0.00    +0.020 A 
ATOM     21  C   UNL     1       0.634  -1.092  -0.263  0.00  0.00    +0.044 A 
ATOM     22  C   UNL     1       1.276  -1.065   0.961  0.00  0.00    +0.109 A 
ATOM     23 BR   UNL     1       0.416  -1.612  -3.054  0.00  0.00    -0.050 Br
ENDBRANCH  13  22
ENDBRANCH   1  13
TORSDOF 3
