REMARK  Name = ZINC39899588
REMARK  5 active torsions:
REMARK  status: ('A' for Active; 'I' for Inactive)
REMARK    1  A    between atoms: C_5  and  C_7
REMARK    2  A    between atoms: C_15  and  C_17
REMARK    3  A    between atoms: N_18  and  N_19
REMARK    4  A    between atoms: C_20  and  C_22
REMARK    5  A    between atoms: C_23  and  C_24
REMARK                            x       y       z     vdW  Elec       q    Type
REMARK                         _______ _______ _______ _____ _____    ______ ____
ROOT
ATOM      1  C   UNL     1       1.389  -2.874   2.880  0.00  0.00    +0.084 A 
ATOM      2  C   UNL     1       0.497  -3.794   3.583  0.00  0.00    +0.027 A 
ATOM      3  C   UNL     1      -0.594  -3.348   4.333  0.00  0.00    +0.027 A 
ATOM      4  C   UNL     1      -1.391  -4.258   4.967  0.00  0.00    +0.019 A 
ATOM      5  C   UNL     1      -1.130  -5.623   4.876  0.00  0.00    +0.017 A 
ATOM      6  C   UNL     1      -0.074  -6.091   4.153  0.00  0.00    +0.029 A 
ATOM      7  C   UNL     1       0.765  -5.184   3.488  0.00  0.00    +0.076 A 
ATOM      8  N   UNL     1       1.815  -5.588   2.764  0.00  0.00    -0.226 NA
ATOM      9  C   UNL     1       2.591  -4.715   2.147  0.00  0.00    +0.174 A 
ATOM     10  N   UNL     1       2.394  -3.397   2.189  0.00  0.00    -0.226 NA
ATOM     11 BR   UNL     1      -2.868  -3.656   5.983  0.00  0.00    -0.050 Br
ENDROOT
BRANCH   1  16
ATOM     12  C   UNL     1       0.768   0.589   4.197  0.00  0.00    +0.001 A 
ATOM     13  C   UNL     1       0.774   1.329   3.027  0.00  0.00    +0.001 A 
ATOM     14  C   UNL     1       0.979   0.706   1.810  0.00  0.00    +0.020 A 
ATOM     15  C   UNL     1       1.180  -0.659   1.754  0.00  0.00    +0.050 A 
ATOM     16  C   UNL     1       1.175  -1.410   2.931  0.00  0.00    +0.019 A 
ATOM     17  C   UNL     1       0.967  -0.775   4.156  0.00  0.00    +0.011 A 
ATOM     18 CL   UNL     1       1.437  -1.440   0.225  0.00  0.00    -0.083 Cl
ENDBRANCH   1  16
BRANCH   9  19
ATOM     19  C   UNL     1       3.732  -5.225   1.366  0.00  0.00    +0.178 C 
ATOM     20  N   UNL     1       3.952  -6.503   1.297  0.00  0.00    -0.184 NA
BRANCH  20  21
ATOM     21  N   UNL     1       5.037  -6.988   0.554  0.00  0.00    -0.203 N 
ATOM     22  C   UNL     1       5.265  -8.314   0.483  0.00  0.00    +0.256 C 
ATOM     23  O   UNL     1       4.531  -9.090   1.064  0.00  0.00    -0.269 OA
ATOM     24  H   UNL     1       5.623  -6.369   0.091  0.00  0.00    +0.178 HD
BRANCH  22  25
ATOM     25  C   UNL     1       6.409  -8.826  -0.300  0.00  0.00    +0.076 C 
ATOM     26  C   UNL     1       6.464 -10.125  -0.638  0.00  0.00    +0.101 C 
BRANCH  26  27
ATOM     27  C   UNL     1       5.223 -10.911  -0.749  0.00  0.00    +0.380 C 
ATOM     28  O   UNL     1       4.137 -10.357  -0.647  0.00  0.00    -0.241 OA
ATOM     29  O   UNL     1       5.278 -12.117  -0.943  0.00  0.00    -0.241 OA
ENDBRANCH  26  27
ENDBRANCH  22  25
ENDBRANCH  20  21
ENDBRANCH   9  19
TORSDOF 5
