REMARK  Name = ZINC03599363
REMARK  5 active torsions:
REMARK  status: ('A' for Active; 'I' for Inactive)
REMARK    1  A    between atoms: C_4  and  C_7
REMARK    2  A    between atoms: C_7  and  C_8
REMARK    3  A    between atoms: C_8  and  C_22
REMARK    4  A    between atoms: N_11  and  C_15
REMARK    5  A    between atoms: C_15  and  C_16
REMARK                            x       y       z     vdW  Elec       q    Type
REMARK                         _______ _______ _______ _____ _____    ______ ____
ROOT
ATOM      1  C   UNL     1       4.659  -3.339  -0.695  0.00  0.00    +0.142 C 
ATOM      2  C   UNL     1       3.291  -2.880  -1.160  0.00  0.00    +0.252 C 
ATOM      3  O   UNL     1       2.911  -2.755  -2.304  0.00  0.00    -0.272 OA
ATOM      4  N   UNL     1       2.586  -2.638  -0.037  0.00  0.00    -0.215 N 
ATOM      5  C   UNL     1       3.309  -2.886   1.062  0.00  0.00    +0.310 C 
ATOM      6  O   UNL     1       2.887  -2.745   2.193  0.00  0.00    -0.252 OA
ATOM      7  N   UNL     1       4.553  -3.307   0.774  0.00  0.00    -0.281 N 
ATOM      8  H   UNL     1       5.247  -3.543   1.411  0.00  0.00    +0.152 HD
ENDROOT
BRANCH   1   9
ATOM      9  C   UNL     1       5.733  -2.396  -1.170  0.00  0.00    -0.015 A 
ATOM     10  C   UNL     1       6.425  -2.667  -2.336  0.00  0.00    +0.006 A 
ATOM     11  C   UNL     1       7.407  -1.799  -2.774  0.00  0.00    +0.000 A 
ATOM     12  C   UNL     1       7.705  -0.665  -2.042  0.00  0.00    +0.000 A 
ATOM     13  C   UNL     1       7.016  -0.396  -0.874  0.00  0.00    +0.000 A 
ATOM     14  C   UNL     1       6.031  -1.262  -0.438  0.00  0.00    +0.006 A 
ENDBRANCH   1   9
BRANCH   1  15
ATOM     15  C   UNL     1       4.939  -4.762  -1.183  0.00  0.00    +0.075 C 
BRANCH  15  19
ATOM     16  C   UNL     1       1.781  -7.348   0.076  0.00  0.00    +0.000 A 
ATOM     17  C   UNL     1       1.699  -6.699  -1.142  0.00  0.00    +0.000 A 
ATOM     18  C   UNL     1       2.721  -5.862  -1.549  0.00  0.00    +0.004 A 
ATOM     19  C   UNL     1       3.825  -5.674  -0.739  0.00  0.00    -0.045 A 
ATOM     20  C   UNL     1       3.910  -6.328   0.476  0.00  0.00    +0.004 A 
ATOM     21  C   UNL     1       2.885  -7.161   0.886  0.00  0.00    +0.000 A 
ENDBRANCH  15  19
ENDBRANCH   1  15
BRANCH   4  22
ATOM     22  C   UNL     1       1.199  -2.169  -0.021  0.00  0.00    +0.214 C 
BRANCH  22  23
ATOM     23  C   UNL     1       1.178  -0.662  -0.013  0.00  0.00    +0.238 C 
ATOM     24  O   UNL     1       2.220  -0.042  -0.019  0.00  0.00    -0.274 OA
ATOM     25  N   UNL     1       0.002  -0.004   0.002  0.00  0.00    -0.239 N 
ATOM     26  C   UNL     1      -0.016   1.344   0.009  0.00  0.00    +0.303 C 
ATOM     27  O   UNL     1       1.028   1.966   0.003  0.00  0.00    -0.253 OA
ATOM     28  N   UNL     1      -1.192   2.002   0.019  0.00  0.00    -0.313 N 
ATOM     29  H   UNL     1      -0.831  -0.500   0.007  0.00  0.00    +0.159 HD
ATOM     30  H   UNL     1      -2.026   1.505   0.020  0.00  0.00    +0.146 HD
ATOM     31  H   UNL     1      -1.206   2.971   0.024  0.00  0.00    +0.146 HD
ENDBRANCH  22  23
ENDBRANCH   4  22
TORSDOF 5
