REMARK  Name = ZINC00931343
REMARK  9 active torsions:
REMARK  status: ('A' for Active; 'I' for Inactive)
REMARK    1  A    between atoms: C_1  and  C_2
REMARK    2  A    between atoms: C_6  and  N_8
REMARK    3  A    between atoms: N_8  and  C_9
REMARK    4  A    between atoms: C_9  and  C_11
REMARK    5  A    between atoms: C_9  and  C_18
REMARK    6  A    between atoms: N_13  and  C_17
REMARK    7  A    between atoms: C_15  and  C_16
REMARK    8  A    between atoms: N_20  and  C_21
REMARK    9  A    between atoms: C_27  and  C_29
REMARK                            x       y       z     vdW  Elec       q    Type
REMARK                         _______ _______ _______ _____ _____    ______ ____
ROOT
ATOM      1  N   UNL     1      -4.387   2.493   2.344  0.00  0.00    -0.252 N 
ATOM      2  C   UNL     1      -5.035   2.393   1.166  0.00  0.00    +0.265 C 
ATOM      3  O   UNL     1      -4.408   2.224   0.141  0.00  0.00    -0.271 OA
ENDROOT
BRANCH   2   4
ATOM      4  C   UNL     1      -6.538   2.492   1.122  0.00  0.00    +0.296 C 
ATOM      5  C   UNL     1      -6.975   3.915   1.493  0.00  0.00    +0.283 C 
ATOM      6  O   UNL     1      -8.404   3.977   1.428  0.00  0.00    -0.484 OA
ATOM      7  C   UNL     1      -8.990   3.429   0.329  0.00  0.00    +0.162 A 
ATOM      8  C   UNL     1     -10.303   3.757   0.022  0.00  0.00    +0.049 A 
ATOM      9  C   UNL     1     -10.914   3.204  -1.087  0.00  0.00    +0.004 A 
ATOM     10  C   UNL     1     -10.219   2.323  -1.894  0.00  0.00    +0.004 A 
ATOM     11  C   UNL     1      -8.911   1.992  -1.595  0.00  0.00    +0.049 A 
ATOM     12  C   UNL     1      -8.291   2.544  -0.484  0.00  0.00    +0.163 A 
ATOM     13  O   UNL     1      -7.002   2.212  -0.203  0.00  0.00    -0.472 OA
ENDBRANCH   2   4
BRANCH   1  19
ATOM     14  C   UNL     1      -0.212   2.984   4.892  0.00  0.00    +0.044 C 
ATOM     15  C   UNL     1      -0.939   2.731   3.596  0.00  0.00    -0.049 A 
ATOM     16  C   UNL     1      -0.222   2.501   2.436  0.00  0.00    +0.003 A 
ATOM     17  C   UNL     1      -0.885   2.268   1.245  0.00  0.00    +0.002 A 
ATOM     18  C   UNL     1      -2.266   2.264   1.211  0.00  0.00    +0.023 A 
ATOM     19  C   UNL     1      -2.988   2.495   2.375  0.00  0.00    +0.038 A 
ATOM     20  C   UNL     1      -2.319   2.724   3.570  0.00  0.00    +0.027 A 
ENDBRANCH   1  19
BRANCH   1  21
ATOM     21  C   UNL     1      -5.148   2.599   3.591  0.00  0.00    +0.200 C 
BRANCH  21  22
ATOM     22  C   UNL     1      -4.945   3.968   4.189  0.00  0.00    +0.022 A 
ATOM     23  C   UNL     1      -3.942   4.825   3.891  0.00  0.00    +0.114 A 
ATOM     24  N   UNL     1      -4.116   5.937   4.636  0.00  0.00    -0.274 N 
ATOM     25  N   UNL     1      -5.264   5.756   5.418  0.00  0.00    -0.176 NA
ATOM     26  C   UNL     1      -5.763   4.578   5.145  0.00  0.00    +0.065 A 
ATOM     27  C   UNL     1      -7.004   3.980   5.757  0.00  0.00    +0.068 C 
ATOM     28  C   UNL     1      -3.256   7.123   4.629  0.00  0.00    +0.172 C 
ENDBRANCH  21  22
BRANCH  21  29
ATOM     29  C   UNL     1      -4.669   1.551   4.562  0.00  0.00    +0.239 C 
ATOM     30  O   UNL     1      -3.780   0.790   4.243  0.00  0.00    -0.273 OA
ATOM     31  N   UNL     1      -5.229   1.459   5.785  0.00  0.00    -0.311 N 
ATOM     32  H   UNL     1      -5.940   2.067   6.040  0.00  0.00    +0.149 HD
BRANCH  31  33
ATOM     33  C   UNL     1      -4.763   0.440   6.729  0.00  0.00    +0.073 C 
ATOM     34  C   UNL     1      -5.491  -0.878   6.457  0.00  0.00    +0.022 C 
ATOM     35  C   UNL     1      -5.005  -1.942   7.443  0.00  0.00    +0.002 C 
ATOM     36  C   UNL     1      -5.296  -1.484   8.873  0.00  0.00    +0.000 C 
ATOM     37  C   UNL     1      -4.568  -0.166   9.145  0.00  0.00    +0.002 C 
ATOM     38  C   UNL     1      -5.054   0.898   8.159  0.00  0.00    +0.022 C 
ENDBRANCH  31  33
ENDBRANCH  21  29
ENDBRANCH   1  21
TORSDOF 6
