REMARK  Name = ZINC19220530
REMARK  7 active torsions:
REMARK  status: ('A' for Active; 'I' for Inactive)
REMARK    1  A    between atoms: C_1  and  C_2
REMARK    2  A    between atoms: C_8  and  C_12
REMARK    3  A    between atoms: C_12  and  C_14
REMARK    4  A    between atoms: C_12  and  O_33
REMARK    5  A    between atoms: C_14  and  N_15
REMARK    6  A    between atoms: C_26  and  C_32
REMARK    7  A    between atoms: C_27  and  C_31
REMARK                            x       y       z     vdW  Elec       q    Type
REMARK                         _______ _______ _______ _____ _____    ______ ____
ROOT
ATOM      1  N   UNL     1      -4.492   0.937  -1.283  0.00  0.00    +0.382 N 
ATOM      2  C   UNL     1      -4.647  -0.394  -0.683  0.00  0.00    -0.075 C 
ATOM      3  C   UNL     1      -6.130  -0.670  -0.425  0.00  0.00    +0.030 C 
ATOM      4  C   UNL     1      -6.896  -0.591  -1.748  0.00  0.00    +0.114 C 
ATOM      5  C   UNL     1      -6.678   0.786  -2.379  0.00  0.00    +0.030 C 
ATOM      6  C   UNL     1      -5.178   1.018  -2.579  0.00  0.00    -0.075 C 
ATOM      7  C   UNL     1      -8.394  -0.793  -1.479  0.00  0.00    +0.127 C 
ATOM      8  C   UNL     1      -9.101  -0.734  -2.822  0.00  0.00    +0.170 C 
ATOM      9  O   UNL     1     -10.169  -0.173  -2.957  0.00  0.00    -0.292 OA
ATOM     10  C   UNL     1      -8.423  -1.392  -3.952  0.00  0.00    +0.059 A 
ATOM     11  C   UNL     1      -9.093  -1.608  -5.158  0.00  0.00    +0.018 A 
ATOM     12  C   UNL     1      -8.435  -2.222  -6.202  0.00  0.00    -0.047 A 
ATOM     13  C   UNL     1      -7.116  -2.622  -6.056  0.00  0.00    -0.044 A 
ATOM     14  C   UNL     1      -6.444  -2.415  -4.868  0.00  0.00    +0.050 A 
ATOM     15  C   UNL     1      -7.088  -1.801  -3.802  0.00  0.00    +0.132 A 
ATOM     16  O   UNL     1      -6.431  -1.607  -2.635  0.00  0.00    -0.485 OA
ATOM     17  C   UNL     1      -6.408  -3.291  -7.206  0.00  0.00    +0.044 C 
ATOM     18  C   UNL     1      -9.152  -2.459  -7.506  0.00  0.00    +0.044 C 
ATOM     19  H   UNL     1      -4.964   1.666  -0.608  0.00  0.00    -0.082 HD
ENDROOT
BRANCH   1  20
ATOM     20  C   UNL     1      -3.073   1.293  -1.416  0.00  0.00    -0.042 C 
BRANCH  20  21
ATOM     21  C   UNL     1      -2.939   2.811  -1.558  0.00  0.00    +0.130 C 
BRANCH  21  29
ATOM     22  C   UNL     1      -0.367   2.699  -6.675  0.00  0.00    +0.044 C 
ATOM     23  C   UNL     1      -0.041   3.008  -5.236  0.00  0.00    -0.050 A 
ATOM     24  C   UNL     1       1.246   3.397  -4.890  0.00  0.00    +0.005 A 
ATOM     25  C   UNL     1       1.566   3.684  -3.581  0.00  0.00    +0.026 A 
ATOM     26  C   UNL     1       0.591   3.583  -2.594  0.00  0.00    +0.047 A 
ATOM     27  C   UNL     1      -0.712   3.189  -2.950  0.00  0.00    +0.005 A 
ATOM     28  C   UNL     1      -1.014   2.903  -4.283  0.00  0.00    +0.013 A 
ATOM     29  C   UNL     1      -1.485   3.175  -1.705  0.00  0.00    +0.004 A 
ATOM     30  C   UNL     1      -0.652   3.551  -0.722  0.00  0.00    +0.089 A 
ATOM     31  N   UNL     1       0.594   3.796  -1.234  0.00  0.00    -0.360 N 
ATOM     32  H   UNL     1       1.517   4.115  -0.729  0.00  0.00    +0.165 HD
ENDBRANCH  21  29
BRANCH  21  33
ATOM     33  O   UNL     1      -3.474   3.447  -0.395  0.00  0.00    -0.389 OA
ATOM     34  H   UNL     1      -4.529   3.297  -0.122  0.00  0.00    +0.210 HD
ENDBRANCH  21  33
ENDBRANCH  20  21
ENDBRANCH   1  20
TORSDOF 4
