REMARK  Name = ZINC45209175
REMARK  6 active torsions:
REMARK  status: ('A' for Active; 'I' for Inactive)
REMARK    1  A    between atoms: C_1  and  C_2
REMARK    2  A    between atoms: C_9  and  C_11
REMARK    3  A    between atoms: N_13  and  N_14
REMARK    4  A    between atoms: N_17  and  C_18
REMARK    5  A    between atoms: C_18  and  C_19
REMARK    6  A    between atoms: C_19  and  N_20
REMARK                            x       y       z     vdW  Elec       q    Type
REMARK                         _______ _______ _______ _____ _____    ______ ____
ROOT
ATOM      1  N   UNL     1       2.228  -7.558   3.269  0.00  0.00    -0.218 N 
ATOM      2  C   UNL     1       1.839  -8.839   3.117  0.00  0.00    +0.316 C 
ATOM      3  O   UNL     1       2.434  -9.728   3.695  0.00  0.00    -0.251 OA
ATOM      4  N   UNL     1       0.789  -9.136   2.324  0.00  0.00    -0.300 N 
ATOM      5  H   UNL     1       2.983  -7.345   3.839  0.00  0.00    +0.174 HD
ATOM      6  H   UNL     1       0.315  -8.426   1.863  0.00  0.00    +0.150 HD
ENDROOT
BRANCH   1   9
ATOM      7  C   UNL     1       1.932  -5.253   2.754  0.00  0.00    +0.267 C 
ATOM      8  O   UNL     1       2.879  -4.985   3.470  0.00  0.00    -0.268 OA
ATOM      9  N   UNL     1       1.542  -6.534   2.603  0.00  0.00    -0.229 N 
ATOM     10  H   UNL     1       0.787  -6.747   2.032  0.00  0.00    +0.173 HD
BRANCH   7  18
ATOM     11  C   UNL     1      -0.019   1.526   0.010  0.00  0.00    +0.008 C 
ATOM     12  C   UNL     1       0.002  -0.004   0.002  0.00  0.00    -0.009 C 
ATOM     13  C   UNL     1      -1.435  -0.533   0.009  0.00  0.00    +0.009 C 
ATOM     14  C   UNL     1      -1.408  -2.041  -0.272  0.00  0.00    +0.043 C 
ATOM     15  C   UNL     1      -0.377  -2.671   0.618  0.00  0.00    -0.006 A 
ATOM     16  C   UNL     1       0.604  -2.027   1.313  0.00  0.00    -0.036 A 
ATOM     17  C   UNL     1       1.449  -2.818   2.077  0.00  0.00    +0.024 A 
ATOM     18  C   UNL     1       1.214  -4.181   2.057  0.00  0.00    +0.076 A 
ATOM     19  S   UNL     1      -0.189  -4.294   0.963  0.00  0.00    -0.088 S 
ATOM     20  C   UNL     1       0.745  -0.509   1.239  0.00  0.00    +0.039 C 
ENDBRANCH   7  18
ENDBRANCH   1   9
BRANCH   4  21
ATOM     21  C   UNL     1       0.366 -10.528   2.159  0.00  0.00    +0.087 C 
BRANCH  21  22
ATOM     22  C   UNL     1      -0.837 -10.587   1.216  0.00  0.00    -0.060 C 
BRANCH  22  23
ATOM     23  N   UNL     1      -1.262 -11.984   1.051  0.00  0.00    +0.381 N 
ATOM     24  C   UNL     1      -0.197 -12.742   0.383  0.00  0.00    -0.079 C 
ATOM     25  C   UNL     1      -0.600 -14.214   0.281  0.00  0.00    -0.019 C 
ATOM     26  C   UNL     1      -1.895 -14.328  -0.529  0.00  0.00    -0.004 C 
ATOM     27  C   UNL     1      -2.978 -13.474   0.136  0.00  0.00    -0.019 C 
ATOM     28  C   UNL     1      -2.487 -12.029   0.243  0.00  0.00    -0.079 C 
ATOM     29  H   UNL     1      -1.442 -12.389   1.957  0.00  0.00    -0.082 HD
ENDBRANCH  22  23
ENDBRANCH  21  22
ENDBRANCH   4  21
TORSDOF 5
