REMARK  Name = ZINC28567848
REMARK  6 active torsions:
REMARK  status: ('A' for Active; 'I' for Inactive)
REMARK    1  A    between atoms: C_1  and  C_2
REMARK    2  A    between atoms: C_3  and  C_28
REMARK    3  A    between atoms: C_10  and  C_14
REMARK    4  A    between atoms: C_18  and  O_20
REMARK    5  A    between atoms: O_20  and  C_21
REMARK    6  A    between atoms: C_28  and  N_29
REMARK                            x       y       z     vdW  Elec       q    Type
REMARK                         _______ _______ _______ _____ _____    ______ ____
ROOT
ATOM      1  C   UNL     1      -4.551  -1.357   3.088  0.00  0.00    +0.040 C 
ATOM      2  C   UNL     1      -4.952  -1.313   1.636  0.00  0.00    -0.052 C 
ATOM      3  C   UNL     1      -5.964  -2.059   1.164  0.00  0.00    -0.030 C 
ATOM      4  S   UNL     1      -6.036  -1.708  -0.594  0.00  0.00    -0.108 S 
ATOM      5  C   UNL     1      -4.336  -1.023  -0.767  0.00  0.00    +0.150 C 
ATOM      6  C   UNL     1      -4.261  -0.457   0.677  0.00  0.00    +0.113 C 
ATOM      7  C   UNL     1      -2.988   0.241   0.905  0.00  0.00    +0.159 C 
ATOM      8  C   UNL     1      -2.568   1.041  -0.139  0.00  0.00    +0.172 C 
ATOM      9  C   UNL     1      -3.441   1.145  -1.322  0.00  0.00    +0.229 C 
ATOM     10  O   UNL     1      -3.391   2.144  -2.016  0.00  0.00    -0.275 OA
ATOM     11  N   UNL     1      -4.297   0.141  -1.650  0.00  0.00    -0.301 N 
ATOM     12  O   UNL     1      -2.284   0.110   2.046  0.00  0.00    -0.296 OA
ATOM     13  H   UNL     1      -4.945   0.179  -2.538  0.00  0.00    +0.150 HD
ENDROOT
BRANCH   8  14
ATOM     14  C   UNL     1      -1.282   1.776  -0.069  0.00  0.00    -0.025 A 
ATOM     15  C   UNL     1      -0.078   1.076  -0.021  0.00  0.00    +0.005 A 
ATOM     16  C   UNL     1       1.118   1.763   0.038  0.00  0.00    +0.004 A 
ATOM     17  C   UNL     1       1.125   3.145   0.055  0.00  0.00    +0.046 A 
ATOM     18  C   UNL     1      -0.070   3.850   0.012  0.00  0.00    +0.129 A 
ATOM     19  C   UNL     1      -1.275   3.169  -0.047  0.00  0.00    +0.051 A 
BRANCH  18  20
ATOM     20  O   UNL     1      -0.058   5.209   0.029  0.00  0.00    -0.456 OA
BRANCH  20  21
ATOM     21  C   UNL     1      -0.559   5.838   1.124  0.00  0.00    +0.128 A 
ATOM     22  C   UNL     1      -0.951   5.099   2.232  0.00  0.00    +0.046 A 
ATOM     23  C   UNL     1      -1.456   5.741   3.346  0.00  0.00    +0.004 A 
ATOM     24  C   UNL     1      -1.580   7.119   3.354  0.00  0.00    +0.000 A 
ATOM     25  C   UNL     1      -1.196   7.857   2.250  0.00  0.00    +0.004 A 
ATOM     26  C   UNL     1      -0.685   7.220   1.135  0.00  0.00    +0.046 A 
ENDBRANCH  20  21
ENDBRANCH  18  20
ENDBRANCH   8  14
BRANCH   3  27
ATOM     27  C   UNL     1      -6.851  -2.993   1.946  0.00  0.00    -0.044 C 
BRANCH  27  28
ATOM     28  N   UNL     1      -8.229  -2.487   1.931  0.00  0.00    +0.381 N 
ATOM     29  H   UNL     1      -8.877  -3.169   2.502  0.00  0.00    -0.090 HD
ATOM     30  H   UNL     1      -8.586  -2.426   0.892  0.00  0.00    -0.090 HD
ATOM     31  H   UNL     1      -8.258  -1.487   2.388  0.00  0.00    -0.090 HD
ENDBRANCH  27  28
ENDBRANCH   3  27
TORSDOF 5
