REMARK  Name = ZINC05469936
REMARK  15 active torsions:
REMARK  status: ('A' for Active; 'I' for Inactive)
REMARK    1  A    between atoms: C_1  and  C_2
REMARK    2  A    between atoms: C_2  and  C_3
REMARK    3  A    between atoms: C_3  and  C_4
REMARK    4  A    between atoms: C_7  and  C_11
REMARK    5  A    between atoms: C_10  and  N_61
REMARK    6  A    between atoms: N_13  and  C_14
REMARK    7  A    between atoms: C_14  and  C_16
REMARK    8  A    between atoms: C_14  and  C_32
REMARK    9  A    between atoms: C_18  and  O_31
REMARK   10  A    between atoms: C_20  and  O_30
REMARK   11  A    between atoms: C_22  and  O_29
REMARK   12  A    between atoms: C_24  and  S_27
REMARK   13  A    between atoms: S_27  and  C_28
REMARK   14  A    between atoms: C_32  and  C_34
REMARK   15  A    between atoms: C_32  and  O_35
REMARK                            x       y       z     vdW  Elec       q    Type
REMARK                         _______ _______ _______ _____ _____    ______ ____
ROOT
ATOM      1  C   UNL     1       0.114   1.064   2.435  0.00  0.00    +0.132 C 
ENDROOT
BRANCH   1   2
ATOM      2  C   UNL     1       0.129  -0.466   2.417  0.00  0.00    +0.173 C 
ATOM      3  C   UNL     1       0.868  -0.984   3.654  0.00  0.00    +0.176 C 
ATOM      4  C   UNL     1       2.322  -0.504   3.608  0.00  0.00    +0.177 C 
ATOM      5  C   UNL     1       2.965  -0.984   2.303  0.00  0.00    +0.184 C 
ATOM      6  C   UNL     1       2.145  -0.466   1.118  0.00  0.00    +0.207 C 
ATOM      7  O   UNL     1       0.796  -0.923   1.239  0.00  0.00    -0.356 OA
BRANCH   6   8
ATOM      8  S   UNL     1       2.858  -1.089  -0.429  0.00  0.00    -0.131 S 
ATOM      9  C   UNL     1       1.982  -0.161  -1.720  0.00  0.00    +0.087 C 
ENDBRANCH   6   8
BRANCH   5  10
ATOM     10  O   UNL     1       2.990  -2.413   2.278  0.00  0.00    -0.386 OA
ATOM     11  H   UNL     1       3.381  -2.785   1.476  0.00  0.00    +0.210 HD
ENDBRANCH   5  10
BRANCH   4  12
ATOM     12  O   UNL     1       2.357   0.923   3.661  0.00  0.00    -0.386 OA
ATOM     13  H   UNL     1       3.249   1.296   3.629  0.00  0.00    +0.210 HD
ENDBRANCH   4  12
BRANCH   3  14
ATOM     14  O   UNL     1       0.237  -0.481   4.833  0.00  0.00    -0.387 OA
ATOM     15  H   UNL     1       0.654  -0.769   5.656  0.00  0.00    +0.210 HD
ENDBRANCH   3  14
ENDBRANCH   1   2
BRANCH   1  18
ATOM     16  C   UNL     1      -0.121   2.752   4.176  0.00  0.00    +0.200 C 
ATOM     17  O   UNL     1       0.637   3.462   3.549  0.00  0.00    -0.278 OA
ATOM     18  N   UNL     1      -0.447   1.532   3.704  0.00  0.00    -0.309 N 
ATOM     19  H   UNL     1      -1.053   0.965   4.206  0.00  0.00    +0.149 HD
BRANCH  16  22
ATOM     20  C   UNL     1       0.147   3.797   7.711  0.00  0.00    -0.029 C 
ATOM     21  C   UNL     1       0.102   2.658   6.670  0.00  0.00    -0.005 C 
ATOM     22  C   UNL     1      -0.699   3.234   5.482  0.00  0.00    +0.019 C 
ATOM     23  C   UNL     1      -0.632   4.963   7.065  0.00  0.00    -0.075 C 
ATOM     24  C   UNL     1      -1.616   5.409   4.882  0.00  0.00    -0.095 C 
ATOM     25  N   UNL     1      -0.542   4.679   5.628  0.00  0.00    +0.386 N 
ATOM     26  H   UNL     1       0.375   4.971   5.269  0.00  0.00    -0.081 HD
BRANCH  20  27
ATOM     27  C   UNL     1      -0.535   3.357   9.008  0.00  0.00    +0.001 C 
BRANCH  27  29
ATOM     28  C   UNL     1      -1.116   4.038  11.340  0.00  0.00    +0.004 C 
ATOM     29  C   UNL     1      -0.435   4.479  10.043  0.00  0.00    -0.003 C 
ENDBRANCH  27  29
ENDBRANCH  20  27
ENDBRANCH  16  22
ENDBRANCH   1  18
BRANCH   1  30
ATOM     30  C   UNL     1      -0.743   1.579   1.277  0.00  0.00    +0.134 C 
ATOM     31  C   UNL     1      -0.661   3.106   1.222  0.00  0.00    +0.039 C 
BRANCH  30  32
ATOM     32  O   UNL     1      -0.262   1.031   0.048  0.00  0.00    -0.390 OA
ATOM     33  H   UNL     1      -0.760   1.316  -0.731  0.00  0.00    +0.210 HD
ENDBRANCH  30  32
ENDBRANCH   1  30
TORSDOF 11
