REMARK  Name = ZINC10785101
REMARK  13 active torsions:
REMARK  status: ('A' for Active; 'I' for Inactive)
REMARK    1  A    between atoms: C_1  and  C_2
REMARK    2  A    between atoms: C_2  and  O_3
REMARK    3  A    between atoms: O_3  and  C_4
REMARK    4  A    between atoms: C_4  and  C_6
REMARK    5  A    between atoms: C_7  and  C_22
REMARK    6  A    between atoms: C_12  and  C_14
REMARK    7  A    between atoms: C_17  and  O_20
REMARK    8  A    between atoms: O_20  and  C_21
REMARK    9  A    between atoms: C_22  and  S_23
REMARK   10  A    between atoms: S_23  and  C_24
REMARK   11  A    between atoms: C_27  and  C_30
REMARK   12  A    between atoms: N_28  and  N_29
REMARK   13  A    between atoms: C_33  and  C_36
REMARK                            x       y       z     vdW  Elec       q    Type
REMARK                         _______ _______ _______ _____ _____    ______ ____
ROOT
ATOM      1  C   UNL     1       2.992   0.711   1.327  0.00  0.00    +0.079 C 
ATOM      2  C   UNL     1       3.955   1.518   1.822  0.00  0.00    +0.034 C 
ATOM      3  N   UNL     1       4.685   2.329   1.002  0.00  0.00    -0.272 N 
ATOM      4  C   UNL     1       4.513   2.393  -0.325  0.00  0.00    +0.304 C 
ATOM      5  O   UNL     1       5.213   3.147  -0.973  0.00  0.00    -0.252 OA
ATOM      6  N   UNL     1       3.590   1.648  -0.965  0.00  0.00    -0.288 N 
ATOM      7  C   UNL     1       2.749   0.738  -0.169  0.00  0.00    +0.144 C 
ATOM      8  H   UNL     1       5.367   2.891   1.403  0.00  0.00    +0.156 HD
ATOM      9  H   UNL     1       3.482   1.710  -1.927  0.00  0.00    +0.151 HD
ENDROOT
BRANCH   7  10
ATOM     10  C   UNL     1       1.309   1.116  -0.399  0.00  0.00    -0.022 A 
ATOM     11  C   UNL     1       0.349   0.130  -0.532  0.00  0.00    +0.009 A 
ATOM     12  C   UNL     1      -0.971   0.473  -0.749  0.00  0.00    +0.046 A 
ATOM     13  C   UNL     1      -1.336   1.810  -0.822  0.00  0.00    +0.120 A 
ATOM     14  C   UNL     1      -0.371   2.798  -0.688  0.00  0.00    +0.046 A 
ATOM     15  C   UNL     1       0.949   2.449  -0.477  0.00  0.00    +0.009 A 
BRANCH  13  16
ATOM     16  O   UNL     1      -2.635   2.151  -1.030  0.00  0.00    -0.495 OA
ATOM     17  C   UNL     1      -3.573   1.081  -1.159  0.00  0.00    +0.277 C 
ENDBRANCH  13  16
ENDBRANCH   7  10
BRANCH   1  18
ATOM     18  C   UNL     1       2.235  -0.131   2.175  0.00  0.00    +0.339 C 
ATOM     19  O   UNL     1       2.530  -0.234   3.351  0.00  0.00    -0.245 OA
BRANCH  18  20
ATOM     20  O   UNL     1       1.186  -0.820   1.680  0.00  0.00    -0.462 OA
BRANCH  20  22
ATOM     21  C   UNL     1      -0.679  -2.347   1.856  0.00  0.00    +0.048 C 
ATOM     22  C   UNL     1       0.466  -1.651   2.594  0.00  0.00    +0.229 C 
ENDBRANCH  20  22
ENDBRANCH  18  20
ENDBRANCH   1  18
BRANCH   2  23
ATOM     23  C   UNL     1       4.228   1.522   3.304  0.00  0.00    +0.128 C 
BRANCH  23  24
ATOM     24  S   UNL     1       5.530   0.323   3.681  0.00  0.00    -0.079 S 
BRANCH  24  25
ATOM     25  C   UNL     1       5.643   0.533   5.427  0.00  0.00    +0.209 A 
ATOM     26  N   UNL     1       4.931   1.359   6.161  0.00  0.00    -0.121 NA
ATOM     27  N   UNL     1       5.269   1.256   7.396  0.00  0.00    -0.127 NA
ATOM     28  C   UNL     1       6.217   0.357   7.527  0.00  0.00    +0.182 A 
ATOM     29  N   UNL     1       6.481  -0.138   6.271  0.00  0.00    -0.224 N 
BRANCH  28  30
ATOM     30  C   UNL     1       6.873  -0.051   8.788  0.00  0.00    +0.021 A 
ATOM     31  C   UNL     1       8.061  -0.782   8.756  0.00  0.00    +0.012 A 
ATOM     32  C   UNL     1       8.671  -1.154   9.936  0.00  0.00    +0.004 A 
ATOM     33  C   UNL     1       8.101  -0.814  11.150  0.00  0.00    -0.050 A 
ATOM     34  C   UNL     1       6.920  -0.094  11.189  0.00  0.00    +0.004 A 
ATOM     35  C   UNL     1       6.303   0.289  10.016  0.00  0.00    +0.012 A 
ATOM     36  C   UNL     1       8.770  -1.230  12.435  0.00  0.00    +0.044 C 
ENDBRANCH  28  30
BRANCH  29  37
ATOM     37  N   UNL     1       7.394  -1.097   5.937  0.00  0.00    -0.295 N 
ATOM     38  H   UNL     1       8.291  -0.685   5.727  0.00  0.00    +0.163 HD
ATOM     39  H   UNL     1       7.476  -1.788   6.668  0.00  0.00    +0.163 HD
ENDBRANCH  29  37
ENDBRANCH  24  25
ENDBRANCH  23  24
ENDBRANCH   2  23
TORSDOF 10
