REMARK  Name = ZINC57345653
REMARK  2 active torsions:
REMARK  status: ('A' for Active; 'I' for Inactive)
REMARK    1  A    between atoms: N_10  and  C_11
REMARK    2  A    between atoms: C_11  and  C_12
REMARK                            x       y       z     vdW  Elec       q    Type
REMARK                         _______ _______ _______ _____ _____    ______ ____
ROOT
ATOM      1  C   UNL     1      -0.019   1.524   0.010  0.00  0.00    +0.005 C 
ATOM      2  C   UNL     1       1.429   2.030  -0.001  0.00  0.00    +0.006 C 
ATOM      3  C   UNL     1       2.064   1.710   1.351  0.00  0.00    +0.056 C 
ATOM      4  C   UNL     1       1.861   0.260   1.698  0.00  0.00    +0.051 A 
ATOM      5  C   UNL     1       0.909  -0.523   1.083  0.00  0.00    +0.011 A 
ATOM      6  C   UNL     1       0.787  -1.854   1.474  0.00  0.00    +0.138 A 
ATOM      7  N   UNL     1       1.585  -2.329   2.416  0.00  0.00    -0.203 NA
ATOM      8  C   UNL     1       2.493  -1.550   2.985  0.00  0.00    +0.217 A 
ATOM      9  N   UNL     1       2.631  -0.281   2.636  0.00  0.00    -0.219 NA
ATOM     10  N   UNL     1       3.316  -2.075   3.966  0.00  0.00    -0.312 N 
ATOM     11 CL   UNL     1      -0.401  -2.880   0.733  0.00  0.00    -0.062 Cl
ATOM     12  C   UNL     1       0.002  -0.004   0.002  0.00  0.00    +0.040 C 
ATOM     13  H   UNL     1       3.985  -1.514   4.390  0.00  0.00    +0.149 HD
ENDROOT
BRANCH  10  14
ATOM     14  C   UNL     1       3.177  -3.478   4.365  0.00  0.00    +0.120 C 
BRANCH  14  15
ATOM     15  C   UNL     1       4.198  -3.800   5.458  0.00  0.00    +0.127 C 
ATOM     16 CL   UNL     1       4.027  -5.527   5.949  0.00  0.00    -0.124 Cl
ENDBRANCH  14  15
ENDBRANCH  10  14
TORSDOF 2
