REMARK  Name = ZINC37071633
REMARK  5 active torsions:
REMARK  status: ('A' for Active; 'I' for Inactive)
REMARK    1  A    between atoms: C_1  and  C_2
REMARK    2  A    between atoms: C_7  and  C_23
REMARK    3  A    between atoms: C_9  and  N_10
REMARK    4  A    between atoms: N_10  and  C_11
REMARK    5  A    between atoms: C_14  and  C_17
REMARK                            x       y       z     vdW  Elec       q    Type
REMARK                         _______ _______ _______ _____ _____    ______ ____
ROOT
ATOM      1  C   UNL     1       2.789   0.594   2.228  0.00  0.00    +0.027 A 
ATOM      2  C   UNL     1       2.037   0.813   3.377  0.00  0.00    +0.023 A 
ATOM      3  C   UNL     1       2.579   1.514   4.433  0.00  0.00    +0.012 A 
ATOM      4  C   UNL     1       3.882   2.002   4.349  0.00  0.00    +0.002 A 
ATOM      5  C   UNL     1       4.634   1.781   3.197  0.00  0.00    +0.012 A 
ATOM      6  C   UNL     1       4.090   1.075   2.144  0.00  0.00    +0.023 A 
ENDROOT
BRANCH   4   7
ATOM      7  C   UNL     1       4.467   2.757   5.485  0.00  0.00    +0.089 A 
ATOM      8  C   UNL     1       5.715   3.291   5.534  0.00  0.00    +0.112 A 
ATOM      9  N   UNL     1       5.836   3.895   6.755  0.00  0.00    -0.350 N 
ATOM     10  H   UNL     1       6.616   4.366   7.088  0.00  0.00    +0.166 HD
ATOM     11  C   UNL     1       4.670   3.715   7.412  0.00  0.00    +0.197 A 
ATOM     12  N   UNL     1       3.853   3.042   6.651  0.00  0.00    -0.236 NA
ENDBRANCH   4   7
BRANCH   1  13
ATOM     13  N   UNL     1       2.238  -0.117   1.159  0.00  0.00    -0.340 N 
ATOM     14  H   UNL     1       2.794  -0.365   0.404  0.00  0.00    +0.146 HD
BRANCH  13  21
ATOM     15  C   UNL     1       0.330   1.301  -0.496  0.00  0.00    +0.009 C 
ATOM     16  C   UNL     1       0.197  -0.192  -0.187  0.00  0.00    +0.006 C 
ATOM     17  C   UNL     1      -1.283  -0.579  -0.167  0.00  0.00    +0.005 C 
ATOM     18  C   UNL     1      -1.415  -2.072   0.142  0.00  0.00    +0.001 C 
ATOM     19  C   UNL     1      -0.792  -2.367   1.508  0.00  0.00    +0.005 C 
ATOM     20  C   UNL     1       0.688  -1.980   1.487  0.00  0.00    +0.006 C 
ATOM     21  C   UNL     1       0.821  -0.487   1.179  0.00  0.00    +0.076 C 
ATOM     22  C   UNL     1       1.311  -2.276   2.853  0.00  0.00    +0.009 C 
ENDBRANCH  13  21
ENDBRANCH   1  13
TORSDOF 3
