REMARK  Name = ZINC46747771
REMARK  11 active torsions:
REMARK  status: ('A' for Active; 'I' for Inactive)
REMARK    1  A    between atoms: C_1  and  C_2
REMARK    2  A    between atoms: C_2  and  C_4
REMARK    3  A    between atoms: C_2  and  O_25
REMARK    4  A    between atoms: N_6  and  C_7
REMARK    5  A    between atoms: C_7  and  C_8
REMARK    6  A    between atoms: C_8  and  C_9
REMARK    7  A    between atoms: C_9  and  C_10
REMARK    8  A    between atoms: C_11  and  C_23
REMARK    9  A    between atoms: C_12  and  N_22
REMARK   10  A    between atoms: N_13  and  C_15
REMARK   11  A    between atoms: O_25  and  C_26
REMARK                            x       y       z     vdW  Elec       q    Type
REMARK                         _______ _______ _______ _____ _____    ______ ____
ROOT
ATOM      1  C   UNL     1       0.997  -1.497  -6.084  0.00  0.00    +0.060 C 
ENDROOT
BRANCH   1   2
ATOM      2  C   UNL     1       0.180  -1.348  -7.342  0.00  0.00    +0.083 A 
ATOM      3  C   UNL     1      -0.696  -2.319  -7.881  0.00  0.00    +0.114 A 
ATOM      4  C   UNL     1      -1.243  -1.776  -9.040  0.00  0.00    +0.138 A 
ATOM      5  N   UNL     1      -0.717  -0.538  -9.185  0.00  0.00    -0.217 N 
ATOM      6  N   UNL     1       0.155  -0.300  -8.117  0.00  0.00    -0.168 NA
BRANCH   5   7
ATOM      7  C   UNL     1      -1.002   0.357 -10.226  0.00  0.00    +0.068 A 
ATOM      8  C   UNL     1      -1.245  -0.121 -11.506  0.00  0.00    +0.030 A 
ATOM      9  C   UNL     1      -1.526   0.762 -12.530  0.00  0.00    +0.040 A 
ATOM     10  C   UNL     1      -1.564   2.124 -12.280  0.00  0.00    +0.124 A 
ATOM     11  C   UNL     1      -1.321   2.602 -11.004  0.00  0.00    +0.040 A 
ATOM     12  C   UNL     1      -1.047   1.722  -9.976  0.00  0.00    +0.030 A 
ATOM     13  F   UNL     1      -1.838   2.986 -13.284  0.00  0.00    -0.205 F 
ENDBRANCH   5   7
BRANCH   4  14
ATOM     14  N   UNL     1      -2.151  -2.386  -9.884  0.00  0.00    -0.342 N 
ATOM     15  H   UNL     1      -2.468  -3.281  -9.689  0.00  0.00    +0.144 HD
ATOM     16  H   UNL     1      -2.472  -1.918 -10.671  0.00  0.00    +0.144 HD
ENDBRANCH   4  14
BRANCH   3  17
ATOM     17  C   UNL     1      -0.968  -3.616  -7.338  0.00  0.00    +0.104 C 
ATOM     18  N   UNL     1      -1.183  -4.645  -6.907  0.00  0.00    -0.191 NA
ENDBRANCH   3  17
ENDBRANCH   1   2
BRANCH   1  19
ATOM     19  C   UNL     1       0.184  -1.002  -4.886  0.00  0.00    +0.025 C 
BRANCH  19  20
ATOM     20  C   UNL     1       1.013  -1.153  -3.609  0.00  0.00    +0.104 C 
BRANCH  20  23
ATOM     21  C   UNL     1       0.767  -0.717  -1.225  0.00  0.00    +0.254 C 
ATOM     22  O   UNL     1       1.890  -1.143  -1.061  0.00  0.00    -0.272 OA
ATOM     23  N   UNL     1       0.234  -0.679  -2.462  0.00  0.00    -0.312 N 
ATOM     24  H   UNL     1      -0.664  -0.338  -2.594  0.00  0.00    +0.149 HD
BRANCH  21  26
ATOM     25  C   UNL     1      -0.289   1.273  -0.187  0.00  0.00    +0.062 C 
ATOM     26  C   UNL     1      -0.034  -0.229  -0.045  0.00  0.00    +0.256 C 
BRANCH  26  27
ATOM     27  O   UNL     1       0.693  -0.477   1.160  0.00  0.00    -0.478 OA
BRANCH  27  28
ATOM     28  C   UNL     1      -0.031  -0.600   2.304  0.00  0.00    +0.141 A 
ATOM     29  C   UNL     1      -1.399  -0.371   2.288  0.00  0.00    +0.047 A 
ATOM     30  C   UNL     1      -2.133  -0.495   3.451  0.00  0.00    +0.005 A 
ATOM     31  C   UNL     1      -1.506  -0.848   4.632  0.00  0.00    +0.022 A 
ATOM     32  C   UNL     1      -0.142  -1.077   4.652  0.00  0.00    +0.063 A 
ATOM     33  C   UNL     1       0.597  -0.959   3.488  0.00  0.00    +0.101 A 
ATOM     34 CL   UNL     1       2.307  -1.254   3.511  0.00  0.00    -0.078 Cl
ATOM     35 CL   UNL     1       0.642  -1.519   6.137  0.00  0.00    -0.082 Cl
ENDBRANCH  27  28
ENDBRANCH  26  27
ENDBRANCH  21  26
ENDBRANCH  20  23
ENDBRANCH  19  20
ENDBRANCH   1  19
TORSDOF 10
