REMARK  Name = ZINC61690184
REMARK  6 active torsions:
REMARK  status: ('A' for Active; 'I' for Inactive)
REMARK    1  A    between atoms: C_1  and  C_2
REMARK    2  A    between atoms: C_2  and  C_3
REMARK    3  A    between atoms: N_6  and  C_10
REMARK    4  A    between atoms: C_10  and  C_11
REMARK    5  A    between atoms: C_10  and  C_12
REMARK    6  A    between atoms: C_10  and  C_20
REMARK                            x       y       z     vdW  Elec       q    Type
REMARK                         _______ _______ _______ _____ _____    ______ ____
ROOT
ATOM      1  C   UNL     1       1.662  -3.953  -2.422  0.00  0.00    +0.147 C 
ATOM      2  C   UNL     1       0.331  -4.647  -2.123  0.00  0.00    +0.045 C 
ENDROOT
BRANCH   1   3
ATOM      3  C   UNL     1       2.182  -4.418  -3.757  0.00  0.00    -0.015 A 
ATOM      4  C   UNL     1       3.052  -3.619  -4.476  0.00  0.00    +0.009 A 
ATOM      5  C   UNL     1       3.531  -4.045  -5.701  0.00  0.00    +0.040 A 
ATOM      6  C   UNL     1       3.139  -5.272  -6.208  0.00  0.00    +0.137 A 
ATOM      7  C   UNL     1       2.268  -6.072  -5.487  0.00  0.00    +0.053 A 
ATOM      8  C   UNL     1       1.795  -5.646  -4.260  0.00  0.00    +0.024 A 
ATOM      9 BR   UNL     1       1.732  -7.749  -6.178  0.00  0.00    -0.047 Br
ATOM     10  F   UNL     1       3.606  -5.689  -7.405  0.00  0.00    -0.204 F 
ENDBRANCH   1   3
BRANCH   1  13
ATOM     11  C   UNL     1       0.710  -0.499  -1.259  0.00  0.00    +0.132 C 
ATOM     12  C   UNL     1       0.848  -2.023  -1.206  0.00  0.00    +0.117 C 
ATOM     13  N   UNL     1       1.459  -2.498  -2.455  0.00  0.00    -0.279 NA
ATOM     14  C   UNL     1       0.645  -2.107  -3.615  0.00  0.00    +0.114 C 
ATOM     15  C   UNL     1       0.508  -0.582  -3.644  0.00  0.00    +0.175 C 
ATOM     16  O   UNL     1      -0.057  -0.134  -2.409  0.00  0.00    -0.374 OA
BRANCH  11  18
ATOM     17  C   UNL     1      -0.026   1.524   0.008  0.00  0.00    +0.006 C 
ATOM     18  C   UNL     1       0.002  -0.005   0.004  0.00  0.00    +0.029 C 
ENDBRANCH  11  18
ENDBRANCH   1  13
BRANCH   1  19
ATOM     19  C   UNL     1       2.660  -4.296  -1.346  0.00  0.00    +0.380 C 
ATOM     20  O   UNL     1       3.156  -3.411  -0.670  0.00  0.00    -0.244 OA
ATOM     21  O   UNL     1       2.971  -5.459  -1.152  0.00  0.00    -0.244 OA
ENDBRANCH   1  19
TORSDOF 4
