REMARK  Name = ZINC08824754
REMARK  11 active torsions:
REMARK  status: ('A' for Active; 'I' for Inactive)
REMARK    1  A    between atoms: C_3  and  N_29
REMARK    2  A    between atoms: C_4  and  N_26
REMARK    3  A    between atoms: C_6  and  S_7
REMARK    4  A    between atoms: S_7  and  N_10
REMARK    5  A    between atoms: N_10  and  C_11
REMARK    6  A    between atoms: C_11  and  C_12
REMARK    7  A    between atoms: C_12  and  O_14
REMARK    8  A    between atoms: O_14  and  C_15
REMARK    9  A    between atoms: C_15  and  C_16
REMARK   10  A    between atoms: N_18  and  C_19
REMARK   11  A    between atoms: C_20  and  C_24
REMARK                            x       y       z     vdW  Elec       q    Type
REMARK                         _______ _______ _______ _____ _____    ______ ____
ROOT
ATOM      1  N   UNL     1       0.496  -4.660   2.181  0.00  0.00    -0.179 NA
ATOM      2  H   UNL     1       1.334  -5.063   2.457  0.00  0.00    +0.149 HD
ENDROOT
BRANCH   1   3
ATOM      3  S   UNL     1       0.157  -4.477   0.571  0.00  0.00    +0.059 S 
ATOM      4  O   UNL     1      -1.155  -4.985   0.371  0.00  0.00    -0.153 OA
ATOM      5  O   UNL     1       1.282  -4.973  -0.141  0.00  0.00    -0.153 OA
BRANCH   3  11
ATOM      6  C   UNL     1       1.224  -2.063  -0.125  0.00  0.00    +0.030 A 
ATOM      7  C   UNL     1       1.167  -0.707  -0.379  0.00  0.00    +0.027 A 
ATOM      8  C   UNL     1      -0.039  -0.029  -0.260  0.00  0.00    +0.055 A 
ATOM      9  C   UNL     1      -1.185  -0.717   0.120  0.00  0.00    +0.149 A 
ATOM     10  C   UNL     1      -1.122  -2.074   0.367  0.00  0.00    +0.063 A 
ATOM     11  C   UNL     1       0.081  -2.746   0.248  0.00  0.00    +0.108 A 
BRANCH   9  12
ATOM     12  N   UNL     1      -2.471   0.002   0.254  0.00  0.00    +0.058 N 
ATOM     13  O   UNL     1      -2.493   1.130   0.714  0.00  0.00    -0.126 OA
ATOM     14  O   UNL     1      -3.507  -0.533  -0.095  0.00  0.00    -0.126 OA
ENDBRANCH   9  12
BRANCH   8  15
ATOM     15  N   UNL     1      -0.100   1.343  -0.517  0.00  0.00    -0.356 N 
ATOM     16  H   UNL     1       0.718   1.847  -0.655  0.00  0.00    +0.142 HD
ATOM     17  H   UNL     1      -0.959   1.791  -0.560  0.00  0.00    +0.142 HD
ENDBRANCH   8  15
ENDBRANCH   3  11
ENDBRANCH   1   3
BRANCH   1  18
ATOM     18  C   UNL     1      -0.470  -4.213   3.188  0.00  0.00    +0.226 C 
BRANCH  18  19
ATOM     19  C   UNL     1      -0.112  -4.809   4.526  0.00  0.00    +0.323 C 
ATOM     20  O   UNL     1       0.851  -5.532   4.627  0.00  0.00    -0.249 OA
BRANCH  19  21
ATOM     21  O   UNL     1      -0.863  -4.536   5.604  0.00  0.00    -0.454 OA
BRANCH  21  22
ATOM     22  C   UNL     1      -0.459  -5.144   6.859  0.00  0.00    +0.328 C 
BRANCH  22  23
ATOM     23  C   UNL     1      -1.413  -4.727   7.949  0.00  0.00    +0.255 C 
ATOM     24  O   UNL     1      -2.341  -3.990   7.693  0.00  0.00    -0.272 OA
ATOM     25  N   UNL     1      -1.234  -5.173   9.208  0.00  0.00    -0.276 N 
ATOM     26  H   UNL     1      -0.491  -5.763   9.413  0.00  0.00    +0.155 HD
BRANCH  25  27
ATOM     27  C   UNL     1      -2.112  -4.789  10.212  0.00  0.00    +0.089 A 
ATOM     28  C   UNL     1      -2.097  -5.145  11.555  0.00  0.00    +0.080 A 
ATOM     29  C   UNL     1      -3.139  -4.592  12.385  0.00  0.00    +0.028 A 
ATOM     30  C   UNL     1      -4.040  -3.790  11.788  0.00  0.00    +0.048 A 
ATOM     31  S   UNL     1      -3.497  -3.756  10.093  0.00  0.00    -0.081 S 
BRANCH  28  32
ATOM     32  C   UNL     1      -1.093  -6.015  12.089  0.00  0.00    +0.102 C 
ATOM     33  N   UNL     1      -0.297  -6.706  12.513  0.00  0.00    -0.191 NA
ENDBRANCH  28  32
ENDBRANCH  25  27
ENDBRANCH  22  23
ENDBRANCH  21  22
ENDBRANCH  19  21
ENDBRANCH  18  19
ENDBRANCH   1  18
TORSDOF 11
