REMARK  Name = ZINC37509275
REMARK  5 active torsions:
REMARK  status: ('A' for Active; 'I' for Inactive)
REMARK    1  A    between atoms: C_1  and  C_2
REMARK    2  A    between atoms: C_3  and  N_11
REMARK    3  A    between atoms: C_5  and  C_9
REMARK    4  A    between atoms: N_11  and  C_12
REMARK    5  A    between atoms: C_12  and  C_13
REMARK                            x       y       z     vdW  Elec       q    Type
REMARK                         _______ _______ _______ _____ _____    ______ ____
ROOT
ATOM      1  C   UNL     1      -0.018   1.503   0.010  0.00  0.00    +0.048 C 
ATOM      2  C   UNL     1       0.002  -0.004   0.002  0.00  0.00    +0.006 A 
ATOM      3  C   UNL     1       0.006  -0.690  -1.207  0.00  0.00    +0.034 A 
ATOM      4  C   UNL     1       0.025  -2.076  -1.218  0.00  0.00    +0.042 A 
ATOM      5  C   UNL     1       0.040  -2.780  -0.012  0.00  0.00    +0.056 A 
ATOM      6  C   UNL     1       0.037  -2.083   1.198  0.00  0.00    +0.057 A 
ATOM      7  C   UNL     1       0.023  -0.700   1.198  0.00  0.00    +0.129 A 
ATOM      8  F   UNL     1       0.024  -0.027   2.369  0.00  0.00    -0.205 F 
ENDROOT
BRANCH   5   9
ATOM      9  C   UNL     1       0.059  -4.212  -0.016  0.00  0.00    +0.099 C 
ATOM     10  N   UNL     1       0.074  -5.347  -0.020  0.00  0.00    -0.191 NA
ENDBRANCH   5   9
BRANCH   3  11
ATOM     11  N   UNL     1      -0.010   0.017  -2.411  0.00  0.00    -0.336 N 
ATOM     12  H   UNL     1      -0.023   0.987  -2.404  0.00  0.00    +0.147 HD
BRANCH  11  13
ATOM     13  C   UNL     1      -0.006  -0.706  -3.685  0.00  0.00    +0.176 C 
BRANCH  13  14
ATOM     14  C   UNL     1      -0.025   0.282  -4.823  0.00  0.00    +0.124 A 
ATOM     15  C   UNL     1       1.056   0.809  -5.426  0.00  0.00    +0.048 A 
ATOM     16  C   UNL     1       0.580   1.681  -6.432  0.00  0.00    +0.062 A 
ATOM     17  C   UNL     1      -0.765   1.635  -6.384  0.00  0.00    +0.194 A 
ATOM     18  O   UNL     1      -1.125   0.782  -5.412  0.00  0.00    -0.447 OA
ATOM     19 CL   UNL     1      -1.849   2.522  -7.410  0.00  0.00    -0.043 Cl
ENDBRANCH  13  14
ENDBRANCH  11  13
ENDBRANCH   3  11
TORSDOF 4
