REMARK  Name = ZINC29811803
REMARK  10 active torsions:
REMARK  status: ('A' for Active; 'I' for Inactive)
REMARK    1  A    between atoms: C_1  and  C_2
REMARK    2  A    between atoms: C_5  and  N_28
REMARK    3  A    between atoms: C_7  and  N_8
REMARK    4  A    between atoms: C_9  and  C_11
REMARK    5  A    between atoms: C_11  and  C_13
REMARK    6  A    between atoms: C_11  and  N_14
REMARK    7  A    between atoms: N_14  and  C_15
REMARK    8  A    between atoms: C_18  and  N_21
REMARK    9  A    between atoms: N_24  and  C_25
REMARK   10  A    between atoms: C_25  and  C_26
REMARK                            x       y       z     vdW  Elec       q    Type
REMARK                         _______ _______ _______ _____ _____    ______ ____
ROOT
ATOM      1  N   UNL     1      -5.908  -2.359  -0.331  0.00  0.00    -0.333 N 
ATOM      2  H   UNL     1      -4.945  -2.705  -0.733  0.00  0.00    +0.147 HD
ENDROOT
BRANCH   1   3
ATOM      3  C   UNL     1      -6.871  -3.288   0.079  0.00  0.00    +0.028 A 
ATOM      4  C   UNL     1      -8.085  -2.850   0.592  0.00  0.00    +0.025 A 
ATOM      5  C   UNL     1      -9.037  -3.768   0.990  0.00  0.00    +0.025 A 
ATOM      6  C   UNL     1      -8.776  -5.128   0.888  0.00  0.00    +0.035 A 
ATOM      7  C   UNL     1      -7.560  -5.565   0.381  0.00  0.00    +0.025 A 
ATOM      8  C   UNL     1      -6.610  -4.648  -0.023  0.00  0.00    +0.025 A 
BRANCH   6   9
ATOM      9  N   UNL     1      -9.741  -6.059   1.297  0.00  0.00    -0.269 N 
ATOM     10  C   UNL     1      -9.358  -7.217   1.871  0.00  0.00    +0.304 C 
ATOM     11  O   UNL     1      -8.177  -7.492   1.958  0.00  0.00    -0.253 OA
ATOM     12  N   UNL     1     -10.286  -8.071   2.347  0.00  0.00    -0.296 N 
ATOM     13  H   UNL     1     -10.809  -5.844   1.150  0.00  0.00    +0.156 HD
ATOM     14  H   UNL     1     -11.355  -7.823   2.268  0.00  0.00    +0.151 HD
BRANCH  12  15
ATOM     15  C   UNL     1      -9.871  -9.330   2.971  0.00  0.00    +0.132 C 
BRANCH  15  16
ATOM     16  C   UNL     1     -11.090 -10.097   3.416  0.00  0.00    -0.016 C 
ATOM     17  C   UNL     1     -11.274 -11.328   3.007  0.00  0.00    +0.005 C 
ENDBRANCH  15  16
ENDBRANCH  12  15
ENDBRANCH   6   9
ENDBRANCH   1   3
BRANCH   1  18
ATOM     18  C   UNL     1      -6.183  -0.924  -0.223  0.00  0.00    +0.154 C 
ATOM     19  C   UNL     1      -6.949  -0.457  -1.463  0.00  0.00    +0.038 C 
BRANCH  18  21
ATOM     20  N   UNL     1      -4.890   1.174  -0.014  0.00  0.00    -0.284 N 
ATOM     21  C   UNL     1      -4.883  -0.169  -0.122  0.00  0.00    +0.237 C 
ATOM     22  O   UNL     1      -3.830  -0.771  -0.138  0.00  0.00    -0.273 OA
ATOM     23  H   UNL     1      -5.844   1.714   0.077  0.00  0.00    +0.155 HD
BRANCH  20  30
ATOM     24  C   UNL     1      -4.839   3.739  -1.246  0.00  0.00    +0.045 C 
ATOM     25  C   UNL     1      -3.614   3.137  -0.607  0.00  0.00    -0.029 A 
ATOM     26  C   UNL     1      -2.421   3.834  -0.608  0.00  0.00    +0.007 A 
ATOM     27  C   UNL     1      -1.298   3.285  -0.017  0.00  0.00    +0.033 A 
ATOM     28  C   UNL     1      -1.362   2.034   0.567  0.00  0.00    +0.128 A 
ATOM     29  C   UNL     1      -2.551   1.332   0.572  0.00  0.00    +0.056 A 
ATOM     30  C   UNL     1      -3.683   1.883  -0.016  0.00  0.00    +0.039 A 
BRANCH  28  31
ATOM     31  N   UNL     1      -0.156   1.448   1.194  0.00  0.00    +0.056 N 
ATOM     32  O   UNL     1      -0.213   0.347   1.713  0.00  0.00    -0.126 OA
ATOM     33  O   UNL     1       0.895   2.063   1.186  0.00  0.00    -0.126 OA
ENDBRANCH  28  31
ENDBRANCH  20  30
ENDBRANCH  18  21
ENDBRANCH   1  18
TORSDOF 8
