REMARK  Name = ZINC00717447
REMARK  8 active torsions:
REMARK  status: ('A' for Active; 'I' for Inactive)
REMARK    1  A    between atoms: C_1  and  O_2
REMARK    2  A    between atoms: O_2  and  C_3
REMARK    3  A    between atoms: C_6  and  C_18
REMARK    4  A    between atoms: C_8  and  O_9
REMARK    5  A    between atoms: O_9  and  C_10
REMARK    6  A    between atoms: C_20  and  C_37
REMARK    7  A    between atoms: C_21  and  N_36
REMARK    8  A    between atoms: C_28  and  C_31
REMARK                            x       y       z     vdW  Elec       q    Type
REMARK                         _______ _______ _______ _____ _____    ______ ____
ROOT
ATOM      1  C   UNL     1       0.015   8.046   4.593  0.00  0.00    +0.101 C 
ATOM      2  C   UNL     1       1.286   8.849   4.605  0.00  0.00    +0.098 C 
ATOM      3  C   UNL     1       1.609   9.605   5.682  0.00  0.00    +0.198 C 
ATOM      4  O   UNL     1       0.816   9.655   6.764  0.00  0.00    -0.445 OA
ATOM      5  C   UNL     1      -0.485   9.326   6.659  0.00  0.00    +0.115 C 
ATOM      6  C   UNL     1      -0.935   8.564   5.646  0.00  0.00    +0.046 C 
ATOM      7  C   UNL     1      -2.297   8.226   5.533  0.00  0.00    +0.164 C 
ATOM      8  O   UNL     1      -2.663   7.521   4.614  0.00  0.00    -0.292 OA
ATOM      9  C   UNL     1      -3.308   8.723   6.531  0.00  0.00    +0.091 C 
ATOM     10  C   UNL     1      -2.818  10.054   7.111  0.00  0.00    +0.070 C 
ATOM     11  C   UNL     1      -1.432   9.836   7.720  0.00  0.00    +0.086 C 
ENDROOT
BRANCH   1  15
ATOM     12  C   UNL     1       0.921   3.945   5.404  0.00  0.00    +0.162 A 
ATOM     13  C   UNL     1       1.241   4.925   6.331  0.00  0.00    +0.050 A 
ATOM     14  C   UNL     1       0.945   6.249   6.067  0.00  0.00    +0.008 A 
ATOM     15  C   UNL     1       0.335   6.600   4.876  0.00  0.00    -0.031 A 
ATOM     16  C   UNL     1       0.018   5.629   3.945  0.00  0.00    +0.054 A 
ATOM     17  C   UNL     1       0.312   4.300   4.204  0.00  0.00    +0.175 A 
BRANCH  12  19
ATOM     18  C   UNL     1       1.831   2.352   6.917  0.00  0.00    +0.277 C 
ATOM     19  O   UNL     1       1.206   2.642   5.665  0.00  0.00    -0.491 OA
ENDBRANCH  12  19
BRANCH  17  20
ATOM     20  O   UNL     1       0.001   3.342   3.289  0.00  0.00    -0.408 OA
BRANCH  20  21
ATOM     21  C   UNL     1      -1.179   2.712   3.440  0.00  0.00    +0.408 C 
ATOM     22  O   UNL     1      -1.869   2.941   4.414  0.00  0.00    -0.226 OA
ATOM     23  N   UNL     1      -1.595   1.827   2.512  0.00  0.00    -0.263 N 
ATOM     24  C   UNL     1      -0.775   1.535   1.325  0.00  0.00    +0.139 C 
ATOM     25  C   UNL     1      -1.662   1.668   0.082  0.00  0.00    +0.179 C 
ATOM     26  O   UNL     1      -2.838   0.873   0.254  0.00  0.00    -0.377 OA
ATOM     27  C   UNL     1      -3.664   1.280   1.348  0.00  0.00    +0.179 C 
ATOM     28  C   UNL     1      -2.880   1.126   2.656  0.00  0.00    +0.139 C 
ENDBRANCH  20  21
ENDBRANCH  17  20
ENDBRANCH   1  15
BRANCH  10  29
ATOM     29  C   UNL     1      -3.772  10.523   8.179  0.00  0.00    +0.109 A 
ATOM     30  C   UNL     1      -4.461  11.678   8.167  0.00  0.00    +0.045 A 
ATOM     31  C   UNL     1      -5.228  11.711   9.354  0.00  0.00    +0.041 A 
ATOM     32  C   UNL     1      -4.961  10.573  10.021  0.00  0.00    +0.195 A 
ATOM     33  O   UNL     1      -4.084   9.855   9.302  0.00  0.00    -0.468 OA
ENDBRANCH  10  29
BRANCH   3  34
ATOM     34  N   UNL     1       2.771  10.335   5.666  0.00  0.00    -0.328 N 
ATOM     35  H   UNL     1       3.351  10.307   4.889  0.00  0.00    +0.145 HD
ATOM     36  H   UNL     1       3.012  10.880   6.431  0.00  0.00    +0.145 HD
ENDBRANCH   3  34
BRANCH   2  37
ATOM     37  C   UNL     1       2.159   8.815   3.471  0.00  0.00    +0.101 C 
ATOM     38  N   UNL     1       2.853   8.789   2.571  0.00  0.00    -0.191 NA
ENDBRANCH   2  37
TORSDOF 7
