REMARK  Name = ZINC16213953
REMARK  9 active torsions:
REMARK  status: ('A' for Active; 'I' for Inactive)
REMARK    1  A    between atoms: C_1  and  C_2
REMARK    2  A    between atoms: C_6  and  N_9
REMARK    3  A    between atoms: C_7  and  C_8
REMARK    4  A    between atoms: C_13  and  C_15
REMARK    5  A    between atoms: C_15  and  O_16
REMARK    6  A    between atoms: O_16  and  C_17
REMARK    7  A    between atoms: C_17  and  C_19
REMARK    8  A    between atoms: C_22  and  N_28
REMARK    9  A    between atoms: C_23  and  N_25
REMARK                            x       y       z     vdW  Elec       q    Type
REMARK                         _______ _______ _______ _____ _____    ______ ____
ROOT
ATOM      1  N   UNL     1       3.813  -9.832  -0.584  0.00  0.00    -0.269 N 
ATOM      2  C   UNL     1       3.730  -8.488  -0.550  0.00  0.00    +0.310 C 
ATOM      3  O   UNL     1       4.741  -7.815  -0.600  0.00  0.00    -0.252 OA
ATOM      4  N   UNL     1       2.526  -7.889  -0.461  0.00  0.00    -0.237 N 
ATOM      5  C   UNL     1       2.443  -6.544  -0.427  0.00  0.00    +0.258 C 
ATOM      6  O   UNL     1       3.451  -5.873  -0.477  0.00  0.00    -0.272 OA
ATOM      7  H   UNL     1       3.004 -10.368  -0.602  0.00  0.00    +0.156 HD
ATOM      8  H   UNL     1       1.719  -8.425  -0.421  0.00  0.00    +0.159 HD
ENDROOT
BRANCH   1  14
ATOM      9  C   UNL     1       6.673 -13.602   0.751  0.00  0.00    +0.044 C 
ATOM     10  C   UNL     1       6.480 -12.284   0.046  0.00  0.00    -0.046 A 
ATOM     11  C   UNL     1       7.542 -11.689  -0.611  0.00  0.00    +0.004 A 
ATOM     12  C   UNL     1       7.369 -10.480  -1.258  0.00  0.00    +0.002 A 
ATOM     13  C   UNL     1       6.134  -9.862  -1.251  0.00  0.00    +0.023 A 
ATOM     14  C   UNL     1       5.065 -10.456  -0.593  0.00  0.00    +0.038 A 
ATOM     15  C   UNL     1       5.244 -11.668   0.061  0.00  0.00    -0.026 A 
ATOM     16  C   UNL     1       4.088 -12.313   0.783  0.00  0.00    +0.046 C 
ENDBRANCH   1  14
BRANCH   5  17
ATOM     17  C   UNL     1       1.096  -5.874  -0.328  0.00  0.00    +0.328 C 
BRANCH  17  18
ATOM     18  O   UNL     1       1.273  -4.433  -0.308  0.00  0.00    -0.452 OA
BRANCH  18  19
ATOM     19  C   UNL     1       0.158  -3.681  -0.222  0.00  0.00    +0.340 C 
ATOM     20  O   UNL     1      -0.932  -4.215  -0.164  0.00  0.00    -0.245 OA
BRANCH  19  21
ATOM     21  C   UNL     1       0.260  -2.211  -0.197  0.00  0.00    +0.061 A 
ATOM     22  C   UNL     1       1.514  -1.595  -0.264  0.00  0.00    +0.017 A 
ATOM     23  C   UNL     1       1.608  -0.233  -0.241  0.00  0.00    +0.026 A 
ATOM     24  C   UNL     1       0.458   0.548  -0.152  0.00  0.00    +0.055 A 
ATOM     25  C   UNL     1      -0.794  -0.057  -0.080  0.00  0.00    +0.147 A 
ATOM     26  C   UNL     1      -0.896  -1.429  -0.108  0.00  0.00    +0.049 A 
BRANCH  25  27
ATOM     27  N   UNL     1      -2.014   0.775   0.020  0.00  0.00    +0.058 N 
ATOM     28  O   UNL     1      -2.949   0.404   0.707  0.00  0.00    -0.126 OA
ATOM     29  O   UNL     1      -2.083   1.830  -0.585  0.00  0.00    -0.126 OA
ENDBRANCH  25  27
BRANCH  24  30
ATOM     30  N   UNL     1       0.561   1.934  -0.129  0.00  0.00    -0.356 N 
ATOM     31  H   UNL     1       1.435   2.355  -0.106  0.00  0.00    +0.142 HD
ATOM     32  H   UNL     1      -0.240   2.480  -0.141  0.00  0.00    +0.142 HD
ENDBRANCH  24  30
ENDBRANCH  19  21
ENDBRANCH  18  19
ENDBRANCH  17  18
ENDBRANCH   5  17
TORSDOF 7
