REMARK  Name = ZINC20202000
REMARK  5 active torsions:
REMARK  status: ('A' for Active; 'I' for Inactive)
REMARK    1  A    between atoms: C_3  and  N_19
REMARK    2  A    between atoms: C_6  and  C_7
REMARK    3  A    between atoms: C_8  and  C_9
REMARK    4  A    between atoms: N_11  and  C_12
REMARK    5  A    between atoms: C_12  and  C_13
REMARK                            x       y       z     vdW  Elec       q    Type
REMARK                         _______ _______ _______ _____ _____    ______ ____
ROOT
ATOM      1  C   UNL     1      -2.494  -2.862   0.011  0.00  0.00    +0.237 C 
ATOM      2  O   UNL     1      -3.558  -2.271   0.025  0.00  0.00    -0.271 OA
ATOM      3  N   UNL     1      -2.472  -4.210   0.004  0.00  0.00    -0.306 N 
ATOM      4  H   UNL     1      -1.624  -4.681  -0.007  0.00  0.00    +0.149 HD
ENDROOT
BRANCH   1   6
ATOM      5  C   UNL     1      -1.260  -0.761   0.011  0.00  0.00    +0.013 C 
ATOM      6  C   UNL     1      -1.238  -2.109   0.003  0.00  0.00    +0.068 C 
BRANCH   5  12
ATOM      7  C   UNL     1      -0.017   1.394   0.010  0.00  0.00    +0.010 A 
ATOM      8  C   UNL     1       1.170   2.096   0.002  0.00  0.00    +0.033 A 
ATOM      9  C   UNL     1       2.378   1.421  -0.013  0.00  0.00    +0.126 A 
ATOM     10  C   UNL     1       2.405   0.037  -0.022  0.00  0.00    +0.033 A 
ATOM     11  C   UNL     1       1.226  -0.679  -0.014  0.00  0.00    +0.010 A 
ATOM     12  C   UNL     1       0.002  -0.004   0.002  0.00  0.00    -0.025 A 
BRANCH   9  13
ATOM     13  N   UNL     1       3.647   2.182  -0.022  0.00  0.00    +0.056 N 
ATOM     14  O   UNL     1       3.627   3.390  -0.015  0.00  0.00    -0.126 OA
ATOM     15  O   UNL     1       4.704   1.595  -0.036  0.00  0.00    -0.126 OA
ENDBRANCH   9  13
ENDBRANCH   5  12
ENDBRANCH   1   6
BRANCH   3  16
ATOM     16  C   UNL     1      -3.728  -4.963   0.013  0.00  0.00    +0.169 C 
BRANCH  16  17
ATOM     17  C   UNL     1      -3.428  -6.440   0.002  0.00  0.00    +0.121 A 
ATOM     18  N   UNL     1      -3.256  -7.276   1.005  0.00  0.00    -0.143 NA
ATOM     19  N   UNL     1      -3.008  -8.500   0.825  0.00  0.00    -0.126 NA
ATOM     20  C   UNL     1      -2.906  -9.021  -0.390  0.00  0.00    +0.179 A 
ATOM     21  S   UNL     1      -3.213  -7.560  -1.379  0.00  0.00    -0.034 S 
ATOM     22  N   UNL     1      -2.643 -10.325  -0.783  0.00  0.00    -0.336 N 
ATOM     23  H   UNL     1      -2.501 -11.014  -0.114  0.00  0.00    +0.144 HD
ATOM     24  H   UNL     1      -2.600 -10.549  -1.726  0.00  0.00    +0.144 HD
ENDBRANCH  16  17
ENDBRANCH   3  16
TORSDOF 5
