REMARK  Name = ZINC33619077
REMARK  7 active torsions:
REMARK  status: ('A' for Active; 'I' for Inactive)
REMARK    1  A    between atoms: C_4  and  C_7
REMARK    2  A    between atoms: C_7  and  C_8
REMARK    3  A    between atoms: C_8  and  C_38
REMARK    4  A    between atoms: C_13  and  C_16
REMARK    5  A    between atoms: C_17  and  C_18
REMARK    6  A    between atoms: N_26  and  C_29
REMARK    7  A    between atoms: C_33  and  N_35
REMARK                            x       y       z     vdW  Elec       q    Type
REMARK                         _______ _______ _______ _____ _____    ______ ____
ROOT
ATOM      1  C   UNL     1       3.926  -1.142   1.633  0.00  0.00    +0.052 C 
ATOM      2  C   UNL     1       5.310  -1.786   1.411  0.00  0.00    +0.086 C 
ATOM      3  C   UNL     1       5.502  -2.744   2.617  0.00  0.00    +0.077 C 
ATOM      4  C   UNL     1       4.222  -2.576   3.463  0.00  0.00    -0.034 C 
ATOM      5  N   UNL     1       3.193  -2.108   2.489  0.00  0.00    +0.395 N 
ATOM      6  C   UNL     1       5.516  -4.114   1.977  0.00  0.00    +0.229 C 
ATOM      7  O   UNL     1       5.645  -5.163   2.571  0.00  0.00    -0.275 OA
ATOM      8  N   UNL     1       5.362  -3.987   0.654  0.00  0.00    -0.210 N 
ATOM      9  C   UNL     1       5.242  -2.712   0.217  0.00  0.00    +0.229 C 
ATOM     10  O   UNL     1       5.101  -2.362  -0.935  0.00  0.00    -0.275 OA
ATOM     11  H   UNL     1       2.438  -1.647   2.975  0.00  0.00    -0.083 HD
ATOM     12  H   UNL     1       2.843  -2.876   1.936  0.00  0.00    -0.083 HD
ENDROOT
BRANCH   8  13
ATOM     13  C   UNL     1       5.335  -5.088  -0.215  0.00  0.00    +0.046 A 
ATOM     14  C   UNL     1       4.277  -5.985  -0.168  0.00  0.00    +0.024 A 
ATOM     15  C   UNL     1       4.253  -7.068  -1.024  0.00  0.00    +0.004 A 
ATOM     16  C   UNL     1       5.282  -7.258  -1.929  0.00  0.00    +0.033 A 
ATOM     17  C   UNL     1       6.337  -6.367  -1.978  0.00  0.00    +0.128 A 
ATOM     18  C   UNL     1       6.364  -5.278  -1.127  0.00  0.00    +0.056 A 
BRANCH  17  19
ATOM     19  N   UNL     1       7.437  -6.575  -2.947  0.00  0.00    +0.056 N 
ATOM     20  O   UNL     1       7.412  -7.524  -3.695  0.00  0.00    -0.126 OA
ATOM     21  O   UNL     1       8.360  -5.795  -2.990  0.00  0.00    -0.126 OA
ENDBRANCH  17  19
ENDBRANCH   8  13
BRANCH   1  22
ATOM     22  C   UNL     1       4.068   0.183   2.337  0.00  0.00    +0.347 C 
ATOM     23  O   UNL     1       3.559   0.348   3.433  0.00  0.00    -0.248 OA
ATOM     24  O   UNL     1       4.691   1.089   1.812  0.00  0.00    -0.248 OA
ENDBRANCH   1  22
BRANCH   4  25
ATOM     25  C   UNL     1       3.805  -3.898   4.053  0.00  0.00    -0.041 C 
ATOM     26  C   UNL     1       3.632  -4.014   5.362  0.00  0.00    +0.002 C 
BRANCH  26  27
ATOM     27  C   UNL     1       3.224  -5.311   5.941  0.00  0.00    -0.025 A 
ATOM     28  C   UNL     1       3.024  -6.417   5.114  0.00  0.00    +0.008 A 
ATOM     29  C   UNL     1       2.643  -7.625   5.660  0.00  0.00    +0.001 A 
ATOM     30  C   UNL     1       2.457  -7.741   7.026  0.00  0.00    +0.000 A 
ATOM     31  C   UNL     1       2.653  -6.649   7.853  0.00  0.00    +0.001 A 
ATOM     32  C   UNL     1       3.041  -5.437   7.319  0.00  0.00    +0.008 A 
ENDBRANCH  26  27
ENDBRANCH   4  25
BRANCH   1  33
ATOM     33  C   UNL     1       3.203  -0.959   0.297  0.00  0.00    +0.035 C 
BRANCH  33  37
ATOM     34  C   UNL     1      -0.706   0.617   0.995  0.00  0.00    +0.000 A 
ATOM     35  C   UNL     1       0.361   1.475   0.800  0.00  0.00    +0.000 A 
ATOM     36  C   UNL     1       1.626   0.965   0.575  0.00  0.00    +0.003 A 
ATOM     37  C   UNL     1       1.824  -0.403   0.544  0.00  0.00    -0.048 A 
ATOM     38  C   UNL     1       0.758  -1.260   0.739  0.00  0.00    +0.003 A 
ATOM     39  C   UNL     1      -0.507  -0.750   0.963  0.00  0.00    +0.000 A 
ENDBRANCH  33  37
ENDBRANCH   1  33
TORSDOF 7
