REMARK  Name = ZINC14094704
REMARK  13 active torsions:
REMARK  status: ('A' for Active; 'I' for Inactive)
REMARK    1  A    between atoms: C_1  and  C_2
REMARK    2  A    between atoms: C_2  and  N_3
REMARK    3  A    between atoms: N_3  and  C_4
REMARK    4  A    between atoms: N_3  and  S_6
REMARK    5  A    between atoms: C_4  and  C_5
REMARK    6  A    between atoms: S_6  and  C_9
REMARK    7  A    between atoms: C_12  and  N_15
REMARK    8  A    between atoms: C_16  and  C_18
REMARK    9  A    between atoms: C_18  and  N_19
REMARK   10  A    between atoms: C_22  and  C_26
REMARK   11  A    between atoms: C_22  and  C_27
REMARK   12  A    between atoms: C_30  and  O_33
REMARK   13  A    between atoms: O_33  and  C_34
REMARK                            x       y       z     vdW  Elec       q    Type
REMARK                         _______ _______ _______ _____ _____    ______ ____
ROOT
ATOM      1  C   UNL     1       3.628   5.998  -0.217  0.00  0.00    +0.214 C 
ENDROOT
BRANCH   1   2
ATOM      2  N   UNL     1       3.340   7.432  -0.305  0.00  0.00    -0.215 N 
ATOM      3  C   UNL     1       3.249   8.252   0.761  0.00  0.00    +0.251 C 
ATOM      4  O   UNL     1       3.385   7.954   1.928  0.00  0.00    -0.272 OA
ATOM      5  C   UNL     1       2.943   9.625   0.197  0.00  0.00    +0.135 C 
ATOM      6  N   UNL     1       2.891   9.398  -1.258  0.00  0.00    -0.281 N 
ATOM      7  C   UNL     1       3.140   8.090  -1.452  0.00  0.00    +0.310 C 
ATOM      8  O   UNL     1       3.176   7.565  -2.547  0.00  0.00    -0.252 OA
ATOM      9  C   UNL     1       1.594  10.131   0.714  0.00  0.00    +0.047 C 
ATOM     10  H   UNL     1       2.716  10.063  -1.943  0.00  0.00    +0.152 HD
BRANCH   5  11
ATOM     11  C   UNL     1       4.040  10.598   0.543  0.00  0.00    -0.015 A 
ATOM     12  C   UNL     1       4.760  10.439   1.712  0.00  0.00    +0.010 A 
ATOM     13  C   UNL     1       5.771  11.326   2.029  0.00  0.00    +0.046 A 
ATOM     14  C   UNL     1       6.055  12.384   1.178  0.00  0.00    +0.127 A 
ATOM     15  C   UNL     1       5.327  12.546   0.008  0.00  0.00    +0.046 A 
ATOM     16  C   UNL     1       4.321  11.652  -0.307  0.00  0.00    +0.010 A 
BRANCH  14  17
ATOM     17  O   UNL     1       7.045  13.262   1.490  0.00  0.00    -0.434 OA
BRANCH  17  18
ATOM     18  C   UNL     1       7.752  13.034   2.711  0.00  0.00    +0.541 C 
ATOM     19  F   UNL     1       6.857  13.080   3.784  0.00  0.00    -0.166 F 
ATOM     20  F   UNL     1       8.364  11.777   2.667  0.00  0.00    -0.166 F 
ENDBRANCH  17  18
ENDBRANCH  14  17
ENDBRANCH   5  11
ENDBRANCH   1   2
BRANCH   1  22
ATOM     21  N   UNL     1       2.356   3.889  -0.001  0.00  0.00    -0.284 N 
ATOM     22  C   UNL     1       2.336   5.233  -0.095  0.00  0.00    +0.235 C 
ATOM     23  O   UNL     1       1.278   5.827  -0.082  0.00  0.00    -0.274 OA
ATOM     24  H   UNL     1       3.202   3.419   0.066  0.00  0.00    +0.155 HD
BRANCH  21  28
ATOM     25  C   UNL     1      -1.221   1.752   0.011  0.00  0.00    +0.106 A 
ATOM     26  C   UNL     1      -1.114   2.914  -0.730  0.00  0.00    +0.030 A 
ATOM     27  C   UNL     1       0.070   3.626  -0.735  0.00  0.00    +0.025 A 
ATOM     28  C   UNL     1       1.155   3.170   0.002  0.00  0.00    +0.034 A 
ATOM     29  C   UNL     1       1.046   2.000   0.741  0.00  0.00    +0.025 A 
ATOM     30  C   UNL     1      -0.141   1.293   0.742  0.00  0.00    +0.030 A 
BRANCH  25  31
ATOM     31  S   UNL     1      -2.735   0.851   0.020  0.00  0.00    +0.061 S 
ATOM     32  O   UNL     1      -2.751   0.095   1.223  0.00  0.00    -0.153 OA
ATOM     33  O   UNL     1      -3.761   1.778  -0.310  0.00  0.00    -0.153 OA
BRANCH  31  34
ATOM     34  N   UNL     1      -2.664  -0.239  -1.223  0.00  0.00    -0.177 NA
BRANCH  34  36
ATOM     35  C   UNL     1      -3.260  -2.551  -0.690  0.00  0.00    +0.022 C 
ATOM     36  C   UNL     1      -2.117  -1.579  -0.992  0.00  0.00    +0.106 C 
ENDBRANCH  34  36
BRANCH  34  37
ATOM     37  C   UNL     1      -3.146   0.135  -2.555  0.00  0.00    +0.106 C 
ATOM     38  C   UNL     1      -1.972   0.627  -3.403  0.00  0.00    +0.022 C 
ENDBRANCH  34  37
ENDBRANCH  31  34
ENDBRANCH  25  31
ENDBRANCH  21  28
ENDBRANCH   1  22
TORSDOF 10
