REMARK  Name = ZINC00718592
REMARK  4 active torsions:
REMARK  status: ('A' for Active; 'I' for Inactive)
REMARK    1  A    between atoms: C_1  and  C_2
REMARK    2  A    between atoms: C_11  and  C_22
REMARK    3  A    between atoms: C_17  and  N_21
REMARK    4  A    between atoms: C_18  and  C_19
REMARK                            x       y       z     vdW  Elec       q    Type
REMARK                         _______ _______ _______ _____ _____    ______ ____
ROOT
ATOM      1  C   UNL     1      -1.231   0.480  -0.127  0.00  0.00    +0.045 C 
ATOM      2  C   UNL     1      -0.860  -0.976  -0.013  0.00  0.00    -0.036 A 
ATOM      3  C   UNL     1      -0.781  -1.745  -1.156  0.00  0.00    +0.006 A 
ATOM      4  C   UNL     1      -0.444  -3.089  -1.114  0.00  0.00    +0.024 A 
ATOM      5  C   UNL     1      -0.183  -3.644   0.140  0.00  0.00    +0.039 A 
ATOM      6  C   UNL     1      -0.267  -2.853   1.293  0.00  0.00    +0.013 A 
ATOM      7  C   UNL     1      -0.598  -1.516   1.243  0.00  0.00    +0.027 A 
ATOM      8 BR   UNL     1      -0.697  -0.463   2.811  0.00  0.00    -0.050 Br
ATOM      9  C   UNL     1       0.065  -3.753   2.440  0.00  0.00    +0.146 C 
ATOM     10  C   UNL     1       1.281  -3.272   3.180  0.00  0.00    +0.066 A 
ATOM     11  C   UNL     1       2.617  -3.232   2.772  0.00  0.00    +0.101 A 
ATOM     12  N   UNL     1       3.330  -2.728   3.761  0.00  0.00    -0.171 NA
ATOM     13  N   UNL     1       2.464  -2.436   4.826  0.00  0.00    -0.246 N 
ATOM     14  H   UNL     1       2.720  -2.055   5.681  0.00  0.00    +0.192 HD
ATOM     15  C   UNL     1       1.214  -2.775   4.452  0.00  0.00    +0.224 A 
ATOM     16  O   UNL     1       0.047  -2.680   5.137  0.00  0.00    -0.423 OA
ATOM     17  C   UNL     1      -1.028  -3.332   4.649  0.00  0.00    +0.201 C 
ATOM     18  C   UNL     1      -1.086  -3.856   3.402  0.00  0.00    +0.110 C 
ATOM     19  C   UNL     1       0.336  -5.097   1.800  0.00  0.00    +0.238 C 
ATOM     20  O   UNL     1       0.643  -6.120   2.374  0.00  0.00    -0.274 OA
ATOM     21  N   UNL     1       0.170  -4.941   0.470  0.00  0.00    -0.284 N 
ATOM     22  H   UNL     1       0.286  -5.653  -0.178  0.00  0.00    +0.155 HD
ENDROOT
BRANCH  11  23
ATOM     23  C   UNL     1       3.142  -3.676   1.457  0.00  0.00    +0.005 A 
ATOM     24  C   UNL     1       2.558  -3.237   0.265  0.00  0.00    +0.030 A 
ATOM     25  C   UNL     1       3.077  -3.674  -0.936  0.00  0.00    +0.111 A 
ATOM     26  N   UNL     1       4.109  -4.496  -0.968  0.00  0.00    -0.263 NA
ATOM     27  C   UNL     1       4.688  -4.934   0.133  0.00  0.00    +0.111 A 
ATOM     28  C   UNL     1       4.236  -4.541   1.376  0.00  0.00    +0.030 A 
ENDBRANCH  11  23
BRANCH  17  29
ATOM     29  N   UNL     1      -2.126  -3.470   5.462  0.00  0.00    -0.328 N 
ATOM     30  H   UNL     1      -2.113  -3.104   6.360  0.00  0.00    +0.145 HD
ATOM     31  H   UNL     1      -2.914  -3.934   5.138  0.00  0.00    +0.145 HD
ENDBRANCH  17  29
BRANCH  18  32
ATOM     32  C   UNL     1      -2.279  -4.531   2.988  0.00  0.00    +0.102 C 
ATOM     33  N   UNL     1      -3.225  -5.066   2.659  0.00  0.00    -0.191 NA
ENDBRANCH  18  32
TORSDOF 3
