REMARK  Name = ZINC41671550
REMARK  5 active torsions:
REMARK  status: ('A' for Active; 'I' for Inactive)
REMARK    1  A    between atoms: C_9  and  O_11
REMARK    2  A    between atoms: O_11  and  C_12
REMARK    3  A    between atoms: C_12  and  C_13
REMARK    4  A    between atoms: C_16  and  N_19
REMARK    5  A    between atoms: N_22  and  N_23
REMARK                            x       y       z     vdW  Elec       q    Type
REMARK                         _______ _______ _______ _____ _____    ______ ____
ROOT
ATOM      1  C   UNL     1      -0.017   1.388   0.010  0.00  0.00    +0.004 A 
ATOM      2  C   UNL     1       1.142   2.103   0.002  0.00  0.00    +0.010 A 
ATOM      3  C   UNL     1       2.377   1.436  -0.013  0.00  0.00    +0.004 A 
ATOM      4  C   UNL     1       3.593   2.149  -0.020  0.00  0.00    +0.013 A 
ATOM      5  C   UNL     1       4.757   1.442  -0.035  0.00  0.00    +0.045 A 
ATOM      6  C   UNL     1       4.722   0.040  -0.042  0.00  0.00    +0.133 A 
ATOM      7  N   UNL     1       3.583  -0.621  -0.036  0.00  0.00    -0.227 NA
ATOM      8  C   UNL     1       2.409   0.021  -0.021  0.00  0.00    +0.115 A 
ATOM      9  C   UNL     1       1.193  -0.693  -0.014  0.00  0.00    +0.147 A 
ATOM     10  C   UNL     1       0.002  -0.004   0.002  0.00  0.00    +0.048 A 
ATOM     11  N   UNL     1       5.916  -0.667  -0.057  0.00  0.00    -0.268 N 
ATOM     12  H   UNL     1       6.761  -0.192  -0.062  0.00  0.00    +0.167 HD
ENDROOT
BRANCH  11  13
ATOM     13  N   UNL     1       5.900  -2.033  -0.064  0.00  0.00    -0.255 NA
ATOM     14  H   UNL     1       5.363  -2.385  -0.843  0.00  0.00    +0.140 HD
ATOM     15  H   UNL     1       6.838  -2.406  -0.075  0.00  0.00    +0.140 HD
ENDBRANCH  11  13
BRANCH   9  16
ATOM     16  O   UNL     1       1.198  -2.052  -0.021  0.00  0.00    -0.485 OA
BRANCH  16  17
ATOM     17  C   UNL     1      -0.074  -2.705  -0.013  0.00  0.00    +0.264 C 
BRANCH  17  18
ATOM     18  C   UNL     1       0.129  -4.198  -0.023  0.00  0.00    -0.010 A 
ATOM     19  C   UNL     1       0.216  -4.875  -1.225  0.00  0.00    +0.009 A 
ATOM     20  C   UNL     1       0.401  -6.245  -1.235  0.00  0.00    +0.033 A 
ATOM     21  C   UNL     1       0.500  -6.938  -0.043  0.00  0.00    +0.126 A 
ATOM     22  C   UNL     1       0.414  -6.260   1.159  0.00  0.00    +0.033 A 
ATOM     23  C   UNL     1       0.233  -4.890   1.169  0.00  0.00    +0.009 A 
BRANCH  21  24
ATOM     24  N   UNL     1       0.698  -8.404  -0.053  0.00  0.00    +0.056 N 
ATOM     25  O   UNL     1       0.773  -8.997  -1.104  0.00  0.00    -0.126 OA
ATOM     26  O   UNL     1       0.784  -9.010   0.990  0.00  0.00    -0.126 OA
ENDBRANCH  21  24
ENDBRANCH  17  18
ENDBRANCH  16  17
ENDBRANCH   9  16
TORSDOF 5
