REMARK  Name = ZINC20539382
REMARK  9 active torsions:
REMARK  status: ('A' for Active; 'I' for Inactive)
REMARK    1  A    between atoms: C_1  and  O_2
REMARK    2  A    between atoms: O_2  and  C_3
REMARK    3  A    between atoms: C_3  and  C_4
REMARK    4  A    between atoms: C_4  and  C_5
REMARK    5  A    between atoms: C_5  and  N_6
REMARK    6  A    between atoms: C_7  and  C_9
REMARK    7  A    between atoms: C_9  and  C_10
REMARK    8  A    between atoms: N_17  and  C_18
REMARK    9  A    between atoms: C_18  and  C_19
REMARK                            x       y       z     vdW  Elec       q    Type
REMARK                         _______ _______ _______ _____ _____    ______ ____
ROOT
ATOM      1  C   UNL     1      -0.716   1.540   1.276  0.00  0.00    +0.028 C 
ATOM      2  C   UNL     1       0.031   1.029   2.476  0.00  0.00    +0.200 C 
ATOM      3  O   UNL     1       0.429  -0.117   2.468  0.00  0.00    -0.278 OA
ATOM      4  N   UNL     1       0.274   1.784   3.553  0.00  0.00    -0.318 N 
ATOM      5  C   UNL     1      -0.131   3.184   3.648  0.00  0.00    +0.085 C 
ATOM      6  C   UNL     1      -1.209   3.490   2.607  0.00  0.00    -0.058 C 
ATOM      7  N   UNL     1      -0.749   3.008   1.294  0.00  0.00    +0.391 N 
ATOM      8  H   UNL     1       0.803   1.306   4.390  0.00  0.00    +0.149 HD
ATOM      9  H   UNL     1       0.271   3.381   1.122  0.00  0.00    -0.080 HD
ENDROOT
BRANCH   1  10
ATOM     10  C   UNL     1      -0.016   1.063   0.002  0.00  0.00    +0.089 C 
BRANCH  10  12
ATOM     11  N   UNL     1       2.240   1.212  -1.002  0.00  0.00    -0.315 N 
ATOM     12  C   UNL     1       1.393   1.599  -0.028  0.00  0.00    +0.212 C 
ATOM     13  O   UNL     1       1.763   2.379   0.824  0.00  0.00    -0.276 OA
ATOM     14  H   UNL     1       1.904   0.505  -1.775  0.00  0.00    +0.149 HD
BRANCH  11  15
ATOM     15  C   UNL     1       3.609   1.733  -1.031  0.00  0.00    +0.106 C 
BRANCH  15  16
ATOM     16  C   UNL     1       4.355   1.140  -2.228  0.00  0.00    +0.047 C 
BRANCH  16  17
ATOM     17  C   UNL     1       5.785   1.685  -2.259  0.00  0.00    +0.161 C 
BRANCH  17  19
ATOM     18  C   UNL     1       7.833   1.577  -3.498  0.00  0.00    +0.193 C 
ATOM     19  O   UNL     1       6.481   1.131  -3.377  0.00  0.00    -0.383 OA
ENDBRANCH  17  19
ENDBRANCH  16  17
ENDBRANCH  15  16
ENDBRANCH  11  15
ENDBRANCH  10  12
ENDBRANCH   1  10
BRANCH   7  20
ATOM     20  C   UNL     1      -1.599   3.529   0.215  0.00  0.00    -0.037 C 
BRANCH  20  21
ATOM     21  C   UNL     1      -1.333   5.000   0.031  0.00  0.00    -0.010 A 
ATOM     22  C   UNL     1      -2.071   5.932   0.740  0.00  0.00    +0.126 A 
ATOM     23  C   UNL     1      -1.821   7.284   0.575  0.00  0.00    +0.038 A 
ATOM     24  C   UNL     1      -0.843   7.703  -0.307  0.00  0.00    +0.004 A 
ATOM     25  C   UNL     1      -0.110   6.773  -1.020  0.00  0.00    +0.020 A 
ATOM     26  C   UNL     1      -0.354   5.421  -0.851  0.00  0.00    +0.045 A 
ATOM     27 CL   UNL     1       0.568   4.254  -1.746  0.00  0.00    -0.083 Cl
ATOM     28  F   UNL     1      -3.031   5.522   1.597  0.00  0.00    -0.205 F 
ENDBRANCH  20  21
ENDBRANCH   7  20
TORSDOF 8
