REMARK  Name = ZINC62936891
REMARK  6 active torsions:
REMARK  status: ('A' for Active; 'I' for Inactive)
REMARK    1  A    between atoms: C_1  and  C_2
REMARK    2  A    between atoms: C_2  and  C_3
REMARK    3  A    between atoms: C_3  and  C_17
REMARK    4  A    between atoms: N_6  and  C_8
REMARK    5  A    between atoms: C_8  and  C_10
REMARK    6  A    between atoms: C_8  and  C_11
REMARK                            x       y       z     vdW  Elec       q    Type
REMARK                         _______ _______ _______ _____ _____    ______ ____
ROOT
ATOM      1  C   UNL     1      -1.433  -0.534   0.013  0.00  0.00    +0.056 C 
ATOM      2  C   UNL     1      -2.140  -0.139   1.326  0.00  0.00    -0.002 C 
ATOM      3  C   UNL     1      -2.510  -1.477   2.001  0.00  0.00    -0.077 C 
ATOM      4  N   UNL     1      -2.572  -2.455   0.884  0.00  0.00    +0.388 N 
ATOM      5  C   UNL     1      -1.435  -2.077   0.005  0.00  0.00    -0.060 C 
ATOM      6  H   UNL     1      -3.446  -2.369   0.387  0.00  0.00    -0.081 HD
ENDROOT
BRANCH   1   7
ATOM      7  C   UNL     1      -2.195  -0.003  -1.174  0.00  0.00    +0.360 C 
ATOM      8  O   UNL     1      -1.641   0.729  -1.977  0.00  0.00    -0.246 OA
ATOM      9  O   UNL     1      -3.366  -0.305  -1.332  0.00  0.00    -0.246 OA
ENDBRANCH   1   7
BRANCH   1  11
ATOM     10  C   UNL     1      -0.019   1.526   0.010  0.00  0.00    +0.005 C 
ATOM     11  C   UNL     1       0.002  -0.004   0.002  0.00  0.00    +0.013 C 
ENDBRANCH   1  11
BRANCH   4  12
ATOM     12  C   UNL     1      -2.398  -3.824   1.389  0.00  0.00    +0.017 C 
ATOM     13  C   UNL     1      -3.530  -4.155   2.364  0.00  0.00    -0.004 C 
BRANCH  12  14
ATOM     14  C   UNL     1      -2.430  -4.792   0.235  0.00  0.00    +0.207 C 
ATOM     15  O   UNL     1      -2.582  -4.383  -0.896  0.00  0.00    -0.277 OA
ATOM     16  N   UNL     1      -2.289  -6.114   0.460  0.00  0.00    -0.242 N 
ATOM     17  C   UNL     1      -2.318  -6.980  -0.572  0.00  0.00    +0.303 C 
ATOM     18  O   UNL     1      -2.471  -6.570  -1.706  0.00  0.00    -0.253 OA
ATOM     19  N   UNL     1      -2.177  -8.302  -0.346  0.00  0.00    -0.313 N 
ATOM     20  H   UNL     1      -2.168  -6.441   1.365  0.00  0.00    +0.159 HD
ATOM     21  H   UNL     1      -2.055  -8.629   0.559  0.00  0.00    +0.146 HD
ATOM     22  H   UNL     1      -2.198  -8.925  -1.089  0.00  0.00    +0.146 HD
ENDBRANCH  12  14
ENDBRANCH   4  12
TORSDOF 4
