REMARK  Name = ZINC03600662
REMARK  4 active torsions:
REMARK  status: ('A' for Active; 'I' for Inactive)
REMARK    1  A    between atoms: C_1  and  C_2
REMARK    2  A    between atoms: C_5  and  N_8
REMARK    3  A    between atoms: C_9  and  C_11
REMARK    4  A    between atoms: C_11  and  N_12
REMARK                            x       y       z     vdW  Elec       q    Type
REMARK                         _______ _______ _______ _____ _____    ______ ____
ROOT
ATOM      1  N   UNL     1       0.420  -6.845   2.495  0.00  0.00    -0.215 N 
ATOM      2  C   UNL     1       1.587  -6.997   3.155  0.00  0.00    +0.251 C 
ATOM      3  O   UNL     1       2.700  -6.759   2.739  0.00  0.00    -0.272 OA
ATOM      4  C   UNL     1       1.214  -7.527   4.521  0.00  0.00    +0.138 C 
ATOM      5  C   UNL     1       1.830  -8.902   4.740  0.00  0.00    +0.040 C 
ATOM      6  C   UNL     1       1.591  -9.316   6.198  0.00  0.00    +0.008 C 
ATOM      7  C   UNL     1       2.437  -8.419   7.099  0.00  0.00    +0.035 C 
ATOM      8  C   UNL     1       2.201  -6.967   6.777  0.00  0.00    -0.042 A 
ATOM      9  C   UNL     1       1.640  -6.556   5.587  0.00  0.00    -0.012 A 
ATOM     10  C   UNL     1       1.454  -5.201   5.347  0.00  0.00    +0.006 A 
ATOM     11  C   UNL     1       1.824  -4.265   6.290  0.00  0.00    +0.000 A 
ATOM     12  C   UNL     1       2.383  -4.677   7.485  0.00  0.00    +0.000 A 
ATOM     13  C   UNL     1       2.570  -6.023   7.725  0.00  0.00    +0.004 A 
ATOM     14  N   UNL     1      -0.252  -7.623   4.476  0.00  0.00    -0.281 N 
ATOM     15  C   UNL     1      -0.625  -7.197   3.255  0.00  0.00    +0.310 C 
ATOM     16  O   UNL     1      -1.780  -7.143   2.882  0.00  0.00    -0.252 OA
ATOM     17  H   UNL     1      -0.836  -7.928   5.188  0.00  0.00    +0.152 HD
ENDROOT
BRANCH   1  18
ATOM     18  C   UNL     1       0.309  -6.349   1.121  0.00  0.00    +0.214 C 
BRANCH  18  20
ATOM     19  N   UNL     1       0.059  -4.170  -0.021  0.00  0.00    -0.284 N 
ATOM     20  C   UNL     1       0.175  -4.848   1.138  0.00  0.00    +0.235 C 
ATOM     21  O   UNL     1       0.173  -4.251   2.193  0.00  0.00    -0.274 OA
ATOM     22  H   UNL     1      -0.007  -4.651  -0.861  0.00  0.00    +0.155 HD
BRANCH  19  27
ATOM     23  C   UNL     1      -0.047   1.502   0.014  0.00  0.00    +0.044 C 
ATOM     24  C   UNL     1      -0.019  -0.004   0.005  0.00  0.00    -0.050 A 
ATOM     25  C   UNL     1      -0.605  -0.712   1.038  0.00  0.00    +0.005 A 
ATOM     26  C   UNL     1      -0.581  -2.093   1.033  0.00  0.00    +0.023 A 
ATOM     27  C   UNL     1       0.032  -2.771  -0.013  0.00  0.00    +0.033 A 
ATOM     28  C   UNL     1       0.620  -2.058  -1.049  0.00  0.00    +0.023 A 
ATOM     29  C   UNL     1       0.588  -0.677  -1.040  0.00  0.00    +0.005 A 
ENDBRANCH  19  27
ENDBRANCH  18  20
ENDBRANCH   1  18
TORSDOF 3
