REMARK  Name = ZINC36541335
REMARK  15 active torsions:
REMARK  status: ('A' for Active; 'I' for Inactive)
REMARK    1  A    between atoms: C_1  and  C_2
REMARK    2  A    between atoms: C_2  and  C_3
REMARK    3  A    between atoms: C_3  and  C_4
REMARK    4  A    between atoms: C_4  and  N_5
REMARK    5  A    between atoms: C_6  and  C_8
REMARK    6  A    between atoms: C_8  and  C_10
REMARK    7  A    between atoms: C_8  and  N_19
REMARK    8  A    between atoms: C_11  and  O_18
REMARK    9  A    between atoms: C_13  and  O_17
REMARK   10  A    between atoms: C_15  and  O_16
REMARK   11  A    between atoms: N_19  and  C_20
REMARK   12  A    between atoms: C_27  and  C_29
REMARK   13  A    between atoms: C_29  and  C_31
REMARK   14  A    between atoms: C_29  and  O_37
REMARK   15  A    between atoms: O_37  and  C_38
REMARK                            x       y       z     vdW  Elec       q    Type
REMARK                         _______ _______ _______ _____ _____    ______ ____
ROOT
ATOM      1  C   UNL     1      -4.760  -4.343   0.521  0.00  0.00    +0.204 C 
ENDROOT
BRANCH   1   2
ATOM      2  C   UNL     1      -6.104  -4.339   1.203  0.00  0.00    +0.065 A 
ATOM      3  C   UNL     1      -6.320  -5.138   2.316  0.00  0.00    +0.129 A 
ATOM      4  C   UNL     1      -7.557  -5.134   2.943  0.00  0.00    +0.091 A 
ATOM      5  C   UNL     1      -8.578  -4.331   2.458  0.00  0.00    +0.124 A 
ATOM      6  C   UNL     1      -8.362  -3.531   1.346  0.00  0.00    +0.091 A 
ATOM      7  C   UNL     1      -7.124  -3.532   0.721  0.00  0.00    +0.129 A 
BRANCH   7   8
ATOM      8  O   UNL     1      -6.911  -2.744  -0.366  0.00  0.00    -0.506 OA
ATOM      9  H   UNL     1      -7.119  -3.172  -1.208  0.00  0.00    +0.292 HD
ENDBRANCH   7   8
BRANCH   5  10
ATOM     10  O   UNL     1      -9.790  -4.328   3.072  0.00  0.00    -0.507 OA
ATOM     11  H   UNL     1      -9.873  -3.669   3.776  0.00  0.00    +0.292 HD
ENDBRANCH   5  10
BRANCH   3  12
ATOM     12  O   UNL     1      -5.319  -5.926   2.791  0.00  0.00    -0.506 OA
ATOM     13  H   UNL     1      -4.761  -5.495   3.453  0.00  0.00    +0.292 HD
ENDBRANCH   3  12
ENDBRANCH   1   2
BRANCH   1  15
ATOM     14  N   UNL     1      -3.484  -2.294   1.059  0.00  0.00    -0.313 N 
ATOM     15  C   UNL     1      -3.770  -3.577   1.359  0.00  0.00    +0.239 C 
ATOM     16  O   UNL     1      -3.229  -4.114   2.302  0.00  0.00    -0.273 OA
ATOM     17  H   UNL     1      -3.917  -1.864   0.305  0.00  0.00    +0.149 HD
BRANCH  14  18
ATOM     18  C   UNL     1      -2.521  -1.548   1.874  0.00  0.00    +0.104 C 
BRANCH  18  19
ATOM     19  C   UNL     1      -2.381  -0.127   1.324  0.00  0.00    +0.018 C 
BRANCH  19  21
ATOM     20  C   UNL     1      -1.235   2.072   1.625  0.00  0.00    +0.004 C 
ATOM     21  C   UNL     1      -1.375   0.651   2.175  0.00  0.00    -0.002 C 
ENDBRANCH  19  21
ENDBRANCH  18  19
ENDBRANCH  14  18
ENDBRANCH   1  15
BRANCH   1  22
ATOM     22  N   UNL     1      -4.299  -5.724   0.360  0.00  0.00    -0.251 N 
ATOM     23  C   UNL     1      -5.044  -6.608  -0.333  0.00  0.00    +0.254 C 
ATOM     24  O   UNL     1      -6.051  -6.239  -0.899  0.00  0.00    -0.272 OA
BRANCH  22  25
ATOM     25  C   UNL     1      -3.084  -6.127   0.927  0.00  0.00    +0.056 A 
ATOM     26  C   UNL     1      -3.075  -6.997   2.009  0.00  0.00    +0.025 A 
ATOM     27  C   UNL     1      -1.874  -7.392   2.567  0.00  0.00    +0.002 A 
ATOM     28  C   UNL     1      -0.681  -6.922   2.049  0.00  0.00    +0.002 A 
ATOM     29  C   UNL     1      -0.686  -6.054   0.972  0.00  0.00    +0.022 A 
ATOM     30  C   UNL     1      -1.883  -5.660   0.405  0.00  0.00    +0.062 A 
ATOM     31 CL   UNL     1      -1.888  -4.577  -0.952  0.00  0.00    -0.082 Cl
ENDBRANCH  22  25
BRANCH  23  32
ATOM     32  C   UNL     1      -4.625  -8.054  -0.405  0.00  0.00    +0.234 C 
BRANCH  32  33
ATOM     33  C   UNL     1      -3.488  -8.199  -1.383  0.00  0.00    -0.010 A 
ATOM     34  C   UNL     1      -3.736  -8.163  -2.742  0.00  0.00    +0.006 A 
ATOM     35  C   UNL     1      -2.692  -8.296  -3.639  0.00  0.00    +0.000 A 
ATOM     36  C   UNL     1      -1.401  -8.466  -3.176  0.00  0.00    +0.000 A 
ATOM     37  C   UNL     1      -1.153  -8.502  -1.817  0.00  0.00    +0.000 A 
ATOM     38  C   UNL     1      -2.196  -8.364  -0.920  0.00  0.00    +0.006 A 
ENDBRANCH  32  33
BRANCH  32  39
ATOM     39  O   UNL     1      -5.731  -8.848  -0.839  0.00  0.00    -0.366 OA
ATOM     40  C   UNL     1      -6.547  -9.339   0.226  0.00  0.00    +0.195 C 
ENDBRANCH  32  39
ENDBRANCH  23  32
ENDBRANCH   1  22
TORSDOF 13
