REMARK  Name = ZINC63069383
REMARK  8 active torsions:
REMARK  status: ('A' for Active; 'I' for Inactive)
REMARK    1  A    between atoms: C_7  and  C_10
REMARK    2  A    between atoms: C_10  and  C_11
REMARK    3  A    between atoms: C_11  and  C_13
REMARK    4  A    between atoms: C_11  and  N_28
REMARK    5  A    between atoms: N_15  and  C_16
REMARK    6  A    between atoms: C_16  and  C_17
REMARK    7  A    between atoms: N_19  and  C_20
REMARK    8  A    between atoms: C_29  and  C_31
REMARK                            x       y       z     vdW  Elec       q    Type
REMARK                         _______ _______ _______ _____ _____    ______ ____
ROOT
ATOM      1  C   UNL     1       0.455  -3.653  -1.457  0.00  0.00    +0.163 C 
ENDROOT
BRANCH   1   2
ATOM      2  C   UNL     1      -0.387  -4.902  -1.444  0.00  0.00    +0.234 C 
ATOM      3  O   UNL     1      -1.578  -4.834  -1.661  0.00  0.00    -0.274 OA
ATOM      4  N   UNL     1       0.184  -6.097  -1.190  0.00  0.00    -0.305 N 
ATOM      5  H   UNL     1       1.137  -6.152  -1.016  0.00  0.00    +0.149 HD
BRANCH   4   6
ATOM      6  C   UNL     1      -0.634  -7.312  -1.177  0.00  0.00    +0.200 C 
BRANCH   6   7
ATOM      7  C   UNL     1       0.238  -8.502  -0.871  0.00  0.00    +0.234 C 
ATOM      8  O   UNL     1       1.426  -8.350  -0.682  0.00  0.00    -0.274 OA
ATOM      9  N   UNL     1      -0.302  -9.735  -0.807  0.00  0.00    -0.284 N 
ATOM     10  H   UNL     1      -1.262  -9.849  -0.891  0.00  0.00    +0.155 HD
BRANCH   9  11
ATOM     11  C   UNL     1       0.521 -10.851  -0.619  0.00  0.00    +0.036 A 
ATOM     12  C   UNL     1       0.212 -12.056  -1.237  0.00  0.00    +0.026 A 
ATOM     13  C   UNL     1       1.025 -13.157  -1.051  0.00  0.00    +0.043 A 
ATOM     14  C   UNL     1       2.149 -13.061  -0.249  0.00  0.00    +0.159 A 
ATOM     15  C   UNL     1       2.461 -11.860   0.370  0.00  0.00    +0.160 A 
ATOM     16  C   UNL     1       1.652 -10.754   0.181  0.00  0.00    +0.064 A 
ATOM     17  F   UNL     1       3.558 -11.768   1.153  0.00  0.00    -0.202 F 
ATOM     18  F   UNL     1       2.942 -14.139  -0.068  0.00  0.00    -0.202 F 
ENDBRANCH   9  11
ENDBRANCH   6   7
ENDBRANCH   4   6
ENDBRANCH   1   2
BRANCH   1  19
ATOM     19  N   UNL     1      -0.245  -2.600  -2.198  0.00  0.00    -0.299 N 
ATOM     20  C   UNL     1      -1.454  -2.174  -1.784  0.00  0.00    +0.251 C 
ATOM     21  O   UNL     1      -1.965  -2.663  -0.793  0.00  0.00    -0.270 OA
ATOM     22  H   UNL     1       0.163  -2.211  -2.987  0.00  0.00    +0.150 HD
BRANCH  20  23
ATOM     23  C   UNL     1      -2.154  -1.121  -2.526  0.00  0.00    +0.074 A 
ATOM     24  C   UNL     1      -3.388  -0.543  -2.268  0.00  0.00    +0.021 A 
ATOM     25  C   UNL     1      -3.786   0.432  -3.151  0.00  0.00    +0.008 A 
ATOM     26  C   UNL     1      -2.972   0.756  -4.186  0.00  0.00    +0.046 A 
ATOM     27  S   UNL     1      -1.638  -0.246  -3.990  0.00  0.00    -0.092 S 
ENDBRANCH  20  23
ENDBRANCH   1  19
BRANCH   1  28
ATOM     28  C   UNL     1       0.700  -3.187  -0.020  0.00  0.00    +0.065 C 
BRANCH  28  35
ATOM     29  C   UNL     1      -0.005   1.347   0.027  0.00  0.00    +0.001 A 
ATOM     30  C   UNL     1       1.178   2.099   0.012  0.00  0.00    +0.002 A 
ATOM     31  C   UNL     1       2.403   1.532  -0.013  0.00  0.00    +0.026 A 
ATOM     32  C   UNL     1       2.540   0.117  -0.025  0.00  0.00    +0.043 A 
ATOM     33  N   UNL     1       3.597  -0.658  -0.049  0.00  0.00    -0.380 N 
ATOM     34  C   UNL     1       3.153  -2.056  -0.052  0.00  0.00    +0.144 C 
ATOM     35  C   UNL     1       1.641  -2.011  -0.026  0.00  0.00    -0.039 C 
ATOM     36  C   UNL     1       1.306  -0.701  -0.010  0.00  0.00    -0.001 A 
ATOM     37  C   UNL     1       0.013  -0.006   0.017  0.00  0.00    +0.010 A 
ATOM     38  H   UNL     1       4.519  -0.357  -0.063  0.00  0.00    +0.160 HD
ENDBRANCH  28  35
ENDBRANCH   1  28
TORSDOF 8
