REMARK  Name = ZINC43306602
REMARK  7 active torsions:
REMARK  status: ('A' for Active; 'I' for Inactive)
REMARK    1  A    between atoms: C_1  and  C_2
REMARK    2  A    between atoms: C_2  and  C_4
REMARK    3  A    between atoms: C_2  and  C_19
REMARK    4  A    between atoms: C_4  and  N_5
REMARK    5  A    between atoms: N_8  and  N_9
REMARK    6  A    between atoms: C_10  and  C_12
REMARK    7  A    between atoms: N_16  and  C_17
REMARK                            x       y       z     vdW  Elec       q    Type
REMARK                         _______ _______ _______ _____ _____    ______ ____
ROOT
ATOM      1  N   UNL     1       2.391  -0.914   0.650  0.00  0.00    -0.298 N 
ATOM      2  C   UNL     1       3.260  -1.315   1.599  0.00  0.00    +0.316 C 
ATOM      3  O   UNL     1       2.919  -2.138   2.427  0.00  0.00    -0.251 OA
ATOM      4  N   UNL     1       4.507  -0.804   1.630  0.00  0.00    -0.218 N 
ATOM      5  H   UNL     1       2.663  -0.258  -0.011  0.00  0.00    +0.150 HD
ATOM      6  H   UNL     1       5.132  -1.093   2.313  0.00  0.00    +0.174 HD
ENDROOT
BRANCH   4   7
ATOM      7  N   UNL     1       4.899   0.143   0.675  0.00  0.00    -0.228 N 
ATOM      8  C   UNL     1       6.146   0.654   0.707  0.00  0.00    +0.277 C 
ATOM      9  O   UNL     1       6.897   0.371   1.622  0.00  0.00    -0.267 OA
ATOM     10  H   UNL     1       4.274   0.432  -0.007  0.00  0.00    +0.173 HD
BRANCH   8  11
ATOM     11  C   UNL     1       6.598   1.551  -0.362  0.00  0.00    +0.107 A 
ATOM     12  C   UNL     1       5.834   2.021  -1.409  0.00  0.00    +0.047 A 
ATOM     13  C   UNL     1       6.659   2.842  -2.185  0.00  0.00    +0.036 A 
ATOM     14  C   UNL     1       7.886   2.858  -1.611  0.00  0.00    +0.101 A 
ATOM     15  N   UNL     1       7.861   2.082  -0.500  0.00  0.00    -0.345 N 
ATOM     16  C   UNL     1       8.990   1.845   0.403  0.00  0.00    +0.149 C 
ATOM     17 BR   UNL     1       6.152   3.764  -3.757  0.00  0.00    -0.049 Br
ENDBRANCH   8  11
ENDBRANCH   4   7
BRANCH   1  18
ATOM     18  C   UNL     1       1.036  -1.470   0.616  0.00  0.00    +0.113 C 
BRANCH  18  20
ATOM     19  C   UNL     1       0.077   0.647  -0.303  0.00  0.00    +0.014 C 
ATOM     20  C   UNL     1       0.260  -0.852  -0.550  0.00  0.00    +0.033 C 
BRANCH  20  21
ATOM     21  C   UNL     1      -1.090  -1.512  -0.660  0.00  0.00    -0.043 A 
ATOM     22  C   UNL     1      -1.979  -1.448   0.397  0.00  0.00    +0.004 A 
ATOM     23  C   UNL     1      -3.218  -2.053   0.296  0.00  0.00    +0.000 A 
ATOM     24  C   UNL     1      -3.568  -2.721  -0.863  0.00  0.00    +0.000 A 
ATOM     25  C   UNL     1      -2.680  -2.783  -1.920  0.00  0.00    +0.000 A 
ATOM     26  C   UNL     1      -1.443  -2.175  -1.820  0.00  0.00    +0.004 A 
ENDBRANCH  20  21
ENDBRANCH  18  20
ENDBRANCH   1  18
TORSDOF 5
