REMARK  Name = ZINC09330098
REMARK  3 active torsions:
REMARK  status: ('A' for Active; 'I' for Inactive)
REMARK    1  A    between atoms: C_1  and  C_2
REMARK    2  A    between atoms: C_4  and  C_34
REMARK    3  A    between atoms: N_20  and  C_23
REMARK                            x       y       z     vdW  Elec       q    Type
REMARK                         _______ _______ _______ _____ _____    ______ ____
ROOT
ATOM      1  C   UNL     1      -1.425  -1.236  -5.055  0.00  0.00    +0.044 C 
ATOM      2  C   UNL     1      -2.092   0.039  -4.606  0.00  0.00    -0.050 A 
ATOM      3  C   UNL     1      -2.549   0.949  -5.543  0.00  0.00    +0.008 A 
ATOM      4  C   UNL     1      -3.165   2.111  -5.128  0.00  0.00    -0.029 A 
ATOM      5  C   UNL     1      -3.329   2.378  -3.772  0.00  0.00    +0.039 A 
ATOM      6  C   UNL     1      -2.848   1.468  -2.832  0.00  0.00    -0.027 A 
ATOM      7  C   UNL     1      -2.248   0.302  -3.259  0.00  0.00    +0.008 A 
ATOM      8  C   UNL     1      -3.166   2.053  -1.488  0.00  0.00    +0.053 C 
ATOM      9  C   UNL     1      -4.022   1.134  -0.634  0.00  0.00    +0.089 C 
ATOM     10  C   UNL     1      -2.910   0.620   0.368  0.00  0.00    +0.074 C 
ATOM     11  C   UNL     1      -2.205   1.876   0.705  0.00  0.00    -0.054 C 
ATOM     12  C   UNL     1      -0.796   1.615  -1.202  0.00  0.00    -0.076 C 
ATOM     13  C   UNL     1      -0.013   1.086   0.008  0.00  0.00    -0.020 C 
ATOM     14  C   UNL     1      -0.776   1.603   1.243  0.00  0.00    -0.016 C 
ATOM     15  C   UNL     1      -3.601  -0.479   0.997  0.00  0.00    +0.228 C 
ATOM     16  O   UNL     1      -3.571  -0.814   2.162  0.00  0.00    -0.275 OA
ATOM     17  N   UNL     1      -4.303  -1.059  -0.037  0.00  0.00    -0.210 N 
ATOM     18  C   UNL     1      -4.404  -0.238  -1.127  0.00  0.00    +0.229 C 
ATOM     19  O   UNL     1      -4.732  -0.549  -2.252  0.00  0.00    -0.275 OA
ATOM     20  C   UNL     1      -3.906   3.338  -1.794  0.00  0.00    +0.212 C 
ATOM     21  O   UNL     1      -4.378   4.111  -0.986  0.00  0.00    -0.277 OA
ATOM     22  N   UNL     1      -3.941   3.457  -3.131  0.00  0.00    -0.286 N 
ATOM     23  C   UNL     1      -3.666   3.098  -6.151  0.00  0.00    +0.045 C 
ATOM     24  H   UNL     1      -4.344   4.206  -3.598  0.00  0.00    +0.155 HD
ATOM     25  N   UNL     1      -1.948   2.349  -0.670  0.00  0.00    +0.395 N 
ATOM     26  H   UNL     1      -1.756   3.358  -0.674  0.00  0.00    -0.079 HD
ENDROOT
BRANCH  17  27
ATOM     27  C   UNL     1      -4.853  -2.347   0.021  0.00  0.00    +0.047 A 
ATOM     28  C   UNL     1      -5.553  -2.854  -1.065  0.00  0.00    +0.044 A 
ATOM     29  C   UNL     1      -6.090  -4.127  -1.007  0.00  0.00    +0.044 A 
ATOM     30  C   UNL     1      -5.940  -4.891   0.137  0.00  0.00    +0.040 A 
ATOM     31  C   UNL     1      -5.248  -4.385   1.224  0.00  0.00    +0.044 A 
ATOM     32  C   UNL     1      -4.704  -3.115   1.168  0.00  0.00    +0.044 A 
ATOM     33 CL   UNL     1      -5.063  -5.346   2.657  0.00  0.00    -0.083 Cl
ATOM     34 CL   UNL     1      -6.960  -4.764  -2.367  0.00  0.00    -0.083 Cl
ENDBRANCH  17  27
TORSDOF 1
