REMARK  Name = ZINC40347133
REMARK  5 active torsions:
REMARK  status: ('A' for Active; 'I' for Inactive)
REMARK    1  A    between atoms: C_4  and  N_18
REMARK    2  A    between atoms: C_6  and  S_7
REMARK    3  A    between atoms: S_7  and  N_10
REMARK    4  A    between atoms: N_10  and  C_11
REMARK    5  A    between atoms: C_11  and  C_12
REMARK                            x       y       z     vdW  Elec       q    Type
REMARK                         _______ _______ _______ _____ _____    ______ ____
ROOT
ATOM      1  S   UNL     1      -1.512  -0.904   0.012  0.00  0.00    +0.059 S 
ATOM      2  O   UNL     1      -1.220  -2.185   0.553  0.00  0.00    -0.153 OA
ATOM      3  O   UNL     1      -2.492  -0.045   0.577  0.00  0.00    -0.153 OA
ENDROOT
BRANCH   1   9
ATOM      4  C   UNL     1      -0.017   1.378   0.010  0.00  0.00    +0.030 A 
ATOM      5  C   UNL     1       1.170   2.089   0.002  0.00  0.00    +0.024 A 
ATOM      6  C   UNL     1       2.378   1.419  -0.013  0.00  0.00    +0.062 A 
ATOM      7  C   UNL     1       2.400   0.029  -0.021  0.00  0.00    +0.045 A 
ATOM      8  C   UNL     1       1.207  -0.680  -0.013  0.00  0.00    +0.052 A 
ATOM      9  C   UNL     1       0.002  -0.004   0.002  0.00  0.00    +0.107 A 
ATOM     10 CL   UNL     1       3.867   2.312  -0.023  0.00  0.00    -0.082 Cl
BRANCH   7  11
ATOM     11  N   UNL     1       3.620  -0.652  -0.036  0.00  0.00    -0.357 N 
ATOM     12  H   UNL     1       4.453  -0.155  -0.042  0.00  0.00    +0.142 HD
ATOM     13  H   UNL     1       3.634  -1.622  -0.042  0.00  0.00    +0.142 HD
ENDBRANCH   7  11
ENDBRANCH   1   9
BRANCH   1  14
ATOM     14  N   UNL     1      -1.949  -1.146  -1.567  0.00  0.00    -0.186 NA
ATOM     15  H   UNL     1      -2.756  -0.737  -1.915  0.00  0.00    +0.148 HD
BRANCH  14  16
ATOM     16  C   UNL     1      -1.116  -1.979  -2.438  0.00  0.00    +0.144 C 
BRANCH  16  17
ATOM     17  C   UNL     1      -1.892  -2.342  -3.678  0.00  0.00    +0.005 A 
ATOM     18  C   UNL     1      -2.682  -3.430  -3.832  0.00  0.00    +0.109 A 
ATOM     19  N   UNL     1      -3.195  -3.392  -5.080  0.00  0.00    -0.284 N 
ATOM     20  H   UNL     1      -3.797  -4.045  -5.469  0.00  0.00    +0.188 HD
ATOM     21  N   UNL     1      -2.703  -2.243  -5.713  0.00  0.00    -0.182 NA
ATOM     22  C   UNL     1      -1.927  -1.612  -4.870  0.00  0.00    +0.139 A 
ENDBRANCH  16  17
ENDBRANCH  14  16
ENDBRANCH   1  14
TORSDOF 5
