REMARK  Name = ZINC00709517
REMARK  6 active torsions:
REMARK  status: ('A' for Active; 'I' for Inactive)
REMARK    1  A    between atoms: C_1  and  O_2
REMARK    2  A    between atoms: O_2  and  C_3
REMARK    3  A    between atoms: C_7  and  C_11
REMARK    4  A    between atoms: C_8  and  O_9
REMARK    5  A    between atoms: O_9  and  C_10
REMARK    6  A    between atoms: C_16  and  C_21
REMARK                            x       y       z     vdW  Elec       q    Type
REMARK                         _______ _______ _______ _____ _____    ______ ____
ROOT
ATOM      1  C   UNL     1       1.340  -4.110  -2.292  0.00  0.00    +0.140 C 
ATOM      2  C   UNL     1       2.541  -4.582  -1.508  0.00  0.00    +0.037 C 
ATOM      3  C   UNL     1       3.664  -5.107  -2.026  0.00  0.00    +0.017 C 
ATOM      4  C   UNL     1       4.799  -5.551  -1.119  0.00  0.00    +0.059 C 
ATOM      5  C   UNL     1       4.845  -4.672   0.130  0.00  0.00    +0.032 C 
ATOM      6  C   UNL     1       3.497  -4.812   0.848  0.00  0.00    +0.088 C 
ATOM      7  C   UNL     1       2.407  -4.428  -0.107  0.00  0.00    +0.163 C 
ATOM      8  O   UNL     1       1.373  -3.969   0.336  0.00  0.00    -0.292 OA
ATOM      9  N   UNL     1       3.886  -5.301  -3.351  0.00  0.00    -0.316 N 
ATOM     10  C   UNL     1       3.636  -4.363  -4.346  0.00  0.00    +0.052 A 
ATOM     11  C   UNL     1       4.647  -3.802  -5.107  0.00  0.00    +0.025 A 
ATOM     12  C   UNL     1       4.322  -2.910  -6.115  0.00  0.00    +0.002 A 
ATOM     13  C   UNL     1       3.001  -2.584  -6.359  0.00  0.00    +0.002 A 
ATOM     14  C   UNL     1       1.990  -3.130  -5.587  0.00  0.00    +0.025 A 
ATOM     15  C   UNL     1       2.314  -4.006  -4.563  0.00  0.00    +0.049 A 
ATOM     16  N   UNL     1       1.344  -4.493  -3.687  0.00  0.00    -0.331 N 
ATOM     17  H   UNL     1       4.247  -6.159  -3.624  0.00  0.00    +0.152 HD
ATOM     18  H   UNL     1       0.661  -5.098  -4.018  0.00  0.00    +0.147 HD
ENDROOT
BRANCH   1  23
ATOM     19  C   UNL     1       0.034  -0.558  -2.392  0.00  0.00    +0.162 A 
ATOM     20  C   UNL     1       1.171   0.159  -2.057  0.00  0.00    +0.049 A 
ATOM     21  C   UNL     1       2.356  -0.505  -1.800  0.00  0.00    +0.004 A 
ATOM     22  C   UNL     1       2.409  -1.885  -1.876  0.00  0.00    +0.009 A 
ATOM     23  C   UNL     1       1.278  -2.606  -2.210  0.00  0.00    +0.023 A 
ATOM     24  C   UNL     1       0.086  -1.947  -2.463  0.00  0.00    +0.167 A 
BRANCH  19  26
ATOM     25  C   UNL     1      -1.114   1.519  -2.548  0.00  0.00    +0.277 C 
ATOM     26  O   UNL     1      -1.133   0.093  -2.645  0.00  0.00    -0.491 OA
ENDBRANCH  19  26
BRANCH  24  27
ATOM     27  O   UNL     1      -1.029  -2.655  -2.786  0.00  0.00    -0.491 OA
ATOM     28  C   UNL     1      -1.252  -2.919  -4.173  0.00  0.00    +0.277 C 
ENDBRANCH  24  27
ENDBRANCH   1  23
BRANCH   5  29
ATOM     29  C   UNL     1       5.957  -5.132   1.038  0.00  0.00    -0.044 A 
ATOM     30  C   UNL     1       5.967  -6.428   1.517  0.00  0.00    +0.004 A 
ATOM     31  C   UNL     1       6.990  -6.851   2.345  0.00  0.00    +0.000 A 
ATOM     32  C   UNL     1       7.997  -5.974   2.702  0.00  0.00    +0.000 A 
ATOM     33  C   UNL     1       7.984  -4.676   2.228  0.00  0.00    +0.000 A 
ATOM     34  C   UNL     1       6.964  -4.255   1.395  0.00  0.00    +0.004 A 
ENDBRANCH   5  29
TORSDOF 4
