REMARK  Name = ZINC66161819
REMARK  9 active torsions:
REMARK  status: ('A' for Active; 'I' for Inactive)
REMARK    1  A    between atoms: C_1  and  C_2
REMARK    2  A    between atoms: C_2  and  C_3
REMARK    3  A    between atoms: C_3  and  C_4
REMARK    4  A    between atoms: C_3  and  C_5
REMARK    5  A    between atoms: C_3  and  O_22
REMARK    6  A    between atoms: C_5  and  N_6
REMARK    7  A    between atoms: N_9  and  C_10
REMARK    8  A    between atoms: C_15  and  S_16
REMARK    9  A    between atoms: S_16  and  C_17
REMARK                            x       y       z     vdW  Elec       q    Type
REMARK                         _______ _______ _______ _____ _____    ______ ____
ROOT
ATOM      1  N   UNL     1       1.301  -2.495  -2.542  0.00  0.00    -0.296 N 
ATOM      2  C   UNL     1       1.362  -3.815  -2.810  0.00  0.00    +0.304 C 
ATOM      3  O   UNL     1       0.842  -4.613  -2.054  0.00  0.00    -0.253 OA
ATOM      4  N   UNL     1       1.998  -4.249  -3.916  0.00  0.00    -0.268 N 
ATOM      5  H   UNL     1       1.716  -1.858  -3.145  0.00  0.00    +0.150 HD
ATOM      6  H   UNL     1       2.356  -3.611  -4.552  0.00  0.00    +0.156 HD
ENDROOT
BRANCH   4   7
ATOM      7  C   UNL     1       2.143  -5.626  -4.147  0.00  0.00    +0.052 A 
ATOM      8  C   UNL     1       1.143  -6.504  -3.759  0.00  0.00    +0.073 A 
ATOM      9  C   UNL     1       1.284  -7.865  -3.987  0.00  0.00    +0.164 A 
ATOM     10  C   UNL     1       2.429  -8.350  -4.608  0.00  0.00    +0.163 A 
ATOM     11  C   UNL     1       3.432  -7.474  -4.995  0.00  0.00    +0.066 A 
ATOM     12  C   UNL     1       3.290  -6.112  -4.771  0.00  0.00    +0.033 A 
ATOM     13  O   UNL     1       2.579  -9.683  -4.847  0.00  0.00    -0.485 OA
ATOM     14  C   UNL     1       1.728 -10.569  -4.114  0.00  0.00    +0.270 C 
ATOM     15  C   UNL     1       0.296 -10.021  -4.176  0.00  0.00    +0.270 C 
ATOM     16  O   UNL     1       0.291  -8.712  -3.596  0.00  0.00    -0.485 OA
BRANCH  12  17
ATOM     17  S   UNL     1       4.562  -5.000  -5.270  0.00  0.00    -0.127 S 
ATOM     18  C   UNL     1       5.817  -6.075  -6.018  0.00  0.00    +0.090 C 
ENDBRANCH  12  17
ENDBRANCH   4   7
BRANCH   1  19
ATOM     19  C   UNL     1       0.610  -2.023  -1.340  0.00  0.00    +0.140 C 
BRANCH  19  20
ATOM     20  C   UNL     1       0.687  -0.496  -1.274  0.00  0.00    +0.078 C 
ATOM     21  C   UNL     1       0.021   0.103  -2.514  0.00  0.00    +0.043 C 
BRANCH  20  23
ATOM     22  C   UNL     1      -0.066   1.527  -0.016  0.00  0.00    +0.007 C 
ATOM     23  C   UNL     1      -0.035  -0.003  -0.018  0.00  0.00    +0.032 C 
ENDBRANCH  20  23
BRANCH  20  24
ATOM     24  O   UNL     1       2.057  -0.091  -1.226  0.00  0.00    -0.387 OA
ATOM     25  H   UNL     1       2.542  -0.434  -0.463  0.00  0.00    +0.210 HD
ENDBRANCH  20  24
ENDBRANCH  19  20
ENDBRANCH   1  19
TORSDOF 6
