REMARK  Name = ZINC66179974
REMARK  5 active torsions:
REMARK  status: ('A' for Active; 'I' for Inactive)
REMARK    1  A    between atoms: C_1  and  N_2
REMARK    2  A    between atoms: N_2  and  C_3
REMARK    3  A    between atoms: N_17  and  C_18
REMARK    4  A    between atoms: C_18  and  C_19
REMARK    5  A    between atoms: C_22  and  N_25
REMARK                            x       y       z     vdW  Elec       q    Type
REMARK                         _______ _______ _______ _____ _____    ______ ____
ROOT
ATOM      1  C   UNL     1      -0.096   1.459   0.011  0.00  0.00    +0.134 C 
ATOM      2  N   UNL     1      -0.046  -0.005   0.003  0.00  0.00    -0.286 N 
ATOM      3  C   UNL     1      -0.042  -0.673  -1.168  0.00  0.00    +0.302 C 
ATOM      4  O   UNL     1       0.000  -1.888  -1.175  0.00  0.00    -0.253 OA
ATOM      5  N   UNL     1      -0.084   0.007  -2.331  0.00  0.00    -0.295 N 
ATOM      6  H   UNL     1      -0.118   0.976  -2.326  0.00  0.00    +0.151 HD
ENDROOT
BRANCH   2   7
ATOM      7  C   UNL     1       0.001  -0.744   1.267  0.00  0.00    +0.080 C 
ATOM      8  C   UNL     1      -1.249  -0.423   2.091  0.00  0.00    +0.041 C 
ATOM      9  C   UNL     1      -1.214  -1.223   3.397  0.00  0.00    +0.108 C 
ATOM     10  N   UNL     1       0.053  -0.946   4.088  0.00  0.00    -0.317 N 
ATOM     11  C   UNL     1       1.313  -1.135   3.356  0.00  0.00    +0.108 C 
ATOM     12  C   UNL     1       1.250  -0.335   2.051  0.00  0.00    +0.041 C 
ATOM     13  C   UNL     1       0.059  -0.513   5.409  0.00  0.00    +0.099 A 
ATOM     14  C   UNL     1       1.268  -0.376   6.084  0.00  0.00    +0.042 A 
ATOM     15  C   UNL     1       1.259   0.057   7.397  0.00  0.00    +0.005 A 
ATOM     16  C   UNL     1       0.037   0.338   7.995  0.00  0.00    +0.018 A 
ATOM     17  C   UNL     1      -1.124   0.180   7.265  0.00  0.00    +0.084 A 
ATOM     18  N   UNL     1      -1.085  -0.229   6.011  0.00  0.00    -0.350 N 
ATOM     19  H   UNL     1      -1.916  -0.328   5.520  0.00  0.00    +0.166 HD
ENDBRANCH   2   7
BRANCH   5  20
ATOM     20  C   UNL     1      -0.080  -0.719  -3.604  0.00  0.00    +0.141 C 
BRANCH  20  21
ATOM     21  C   UNL     1      -0.133   0.266  -4.744  0.00  0.00    -0.030 A 
ATOM     22  C   UNL     1      -1.354   0.680  -5.242  0.00  0.00    +0.007 A 
ATOM     23  C   UNL     1      -1.406   1.582  -6.287  0.00  0.00    +0.028 A 
ATOM     24  C   UNL     1      -0.230   2.073  -6.836  0.00  0.00    +0.065 A 
ATOM     25  C   UNL     1       0.996   1.657  -6.333  0.00  0.00    +0.028 A 
ATOM     26  C   UNL     1       1.041   0.758  -5.285  0.00  0.00    +0.007 A 
BRANCH  24  27
ATOM     27  N   UNL     1      -0.279   2.989  -7.897  0.00  0.00    -0.240 N 
ATOM     28  C   UNL     1       0.786   3.538  -8.524  0.00  0.00    +0.114 A 
ATOM     29  C   UNL     1       0.316   4.365  -9.486  0.00  0.00    +0.041 A 
ATOM     30  C   UNL     1      -1.082   4.320  -9.448  0.00  0.00    +0.135 A 
ATOM     31  N   UNL     1      -1.439   3.491  -8.499  0.00  0.00    -0.175 NA
ENDBRANCH  24  27
ENDBRANCH  20  21
ENDBRANCH   5  20
TORSDOF 4
