REMARK  Name = ZINC20877186
REMARK  17 active torsions:
REMARK  status: ('A' for Active; 'I' for Inactive)
REMARK    1  A    between atoms: C_1  and  C_2
REMARK    2  A    between atoms: C_2  and  C_3
REMARK    3  A    between atoms: C_2  and  C_4
REMARK    4  A    between atoms: C_2  and  C_5
REMARK    5  A    between atoms: C_5  and  C_6
REMARK    6  A    between atoms: C_6  and  C_7
REMARK    7  A    between atoms: C_6  and  C_8
REMARK    8  A    between atoms: C_6  and  N_9
REMARK    9  A    between atoms: N_9  and  C_10
REMARK   10  A    between atoms: C_10  and  C_11
REMARK   11  A    between atoms: C_13  and  O_33
REMARK   12  A    between atoms: C_14  and  O_18
REMARK   13  A    between atoms: O_18  and  C_19
REMARK   14  A    between atoms: C_19  and  C_20
REMARK   15  A    between atoms: C_20  and  C_22
REMARK   16  A    between atoms: C_20  and  O_32
REMARK   17  A    between atoms: O_33  and  C_34
REMARK                            x       y       z     vdW  Elec       q    Type
REMARK                         _______ _______ _______ _____ _____    ______ ____
ROOT
ATOM      1  C   UNL     1      -8.952  -2.118   4.883  0.00  0.00    -0.060 A 
ATOM      2  C   UNL     1      -8.225  -2.860   3.971  0.00  0.00    +0.051 A 
ATOM      3  C   UNL     1      -8.154  -2.455   2.648  0.00  0.00    +0.163 A 
ATOM      4  C   UNL     1      -8.808  -1.295   2.242  0.00  0.00    +0.176 A 
ATOM      5  C   UNL     1      -9.535  -0.556   3.162  0.00  0.00    +0.063 A 
ATOM      6  C   UNL     1      -9.605  -0.969   4.480  0.00  0.00    +0.021 A 
ATOM      7 BR   UNL     1     -10.431   1.017   2.614  0.00  0.00    -0.046 Br
ENDROOT
BRANCH   3   8
ATOM      8  O   UNL     1      -7.444  -3.186   1.748  0.00  0.00    -0.491 OA
ATOM      9  C   UNL     1      -6.798  -4.365   2.235  0.00  0.00    +0.277 C 
ENDBRANCH   3   8
BRANCH   1  10
ATOM     10  C   UNL     1      -9.031  -2.563   6.321  0.00  0.00    -0.046 C 
BRANCH  10  11
ATOM     11  N   UNL     1     -10.187  -3.453   6.495  0.00  0.00    +0.385 N 
ATOM     12  H   UNL     1     -10.064  -4.323   5.833  0.00  0.00    -0.085 HD
ATOM     13  H   UNL     1     -11.099  -2.906   6.215  0.00  0.00    -0.085 HD
BRANCH  11  14
ATOM     14  C   UNL     1     -10.296  -3.908   7.887  0.00  0.00    -0.073 C 
ATOM     15  C   UNL     1      -9.028  -4.670   8.276  0.00  0.00    -0.010 C 
ATOM     16  C   UNL     1     -10.467  -2.697   8.807  0.00  0.00    -0.010 C 
BRANCH  14  17
ATOM     17  C   UNL     1     -11.509  -4.831   8.028  0.00  0.00    -0.007 C 
BRANCH  17  19
ATOM     18  C   UNL     1     -12.452  -4.288   5.779  0.00  0.00    +0.010 C 
ATOM     19  C   UNL     1     -12.701  -4.223   7.288  0.00  0.00    -0.039 C 
ATOM     20  C   UNL     1     -13.969  -5.009   7.629  0.00  0.00    +0.010 C 
ATOM     21  C   UNL     1     -12.876  -2.764   7.713  0.00  0.00    +0.010 C 
ENDBRANCH  17  19
ENDBRANCH  14  17
ENDBRANCH  11  14
ENDBRANCH  10  11
ENDBRANCH   1  10
BRANCH   4  22
ATOM     22  O   UNL     1      -8.738  -0.891   0.945  0.00  0.00    -0.484 OA
BRANCH  22  23
ATOM     23  C   UNL     1      -7.667  -0.013   0.596  0.00  0.00    +0.265 C 
BRANCH  23  24
ATOM     24  C   UNL     1      -7.753   0.330  -0.893  0.00  0.00    +0.182 C 
BRANCH  24  25
ATOM     25  C   UNL     1      -6.556   1.155  -1.288  0.00  0.00    -0.012 A 
ATOM     26  C   UNL     1      -6.530   2.510  -1.012  0.00  0.00    +0.010 A 
ATOM     27  C   UNL     1      -5.437   3.272  -1.378  0.00  0.00    +0.050 A 
ATOM     28  C   UNL     1      -4.358   2.678  -2.015  0.00  0.00    +0.162 A 
ATOM     29  C   UNL     1      -4.382   1.315  -2.290  0.00  0.00    +0.162 A 
ATOM     30  C   UNL     1      -5.485   0.558  -1.925  0.00  0.00    +0.055 A 
ATOM     31  O   UNL     1      -3.334   0.712  -2.914  0.00  0.00    -0.485 OA
ATOM     32  C   UNL     1      -2.413   1.568  -3.598  0.00  0.00    +0.270 C 
ATOM     33  C   UNL     1      -2.074   2.745  -2.674  0.00  0.00    +0.270 C 
ATOM     34  O   UNL     1      -3.288   3.441  -2.369  0.00  0.00    -0.485 OA
ENDBRANCH  24  25
BRANCH  24  35
ATOM     35  O   UNL     1      -8.947   1.072  -1.143  0.00  0.00    -0.384 OA
ATOM     36  H   UNL     1      -9.182   1.409  -2.163  0.00  0.00    +0.210 HD
ENDBRANCH  24  35
ENDBRANCH  23  24
ENDBRANCH  22  23
ENDBRANCH   4  22
TORSDOF 11
