REMARK  Name = ZINC34377974
REMARK  12 active torsions:
REMARK  status: ('A' for Active; 'I' for Inactive)
REMARK    1  A    between atoms: C_1  and  C_2
REMARK    2  A    between atoms: C_2  and  C_3
REMARK    3  A    between atoms: C_7  and  C_38
REMARK    4  A    between atoms: C_8  and  N_9
REMARK    5  A    between atoms: C_14  and  C_29
REMARK    6  A    between atoms: C_17  and  C_22
REMARK    7  A    between atoms: C_17  and  C_26
REMARK    8  A    between atoms: C_22  and  C_23
REMARK    9  A    between atoms: C_32  and  O_37
REMARK   10  A    between atoms: C_33  and  O_35
REMARK   11  A    between atoms: O_35  and  C_36
REMARK   12  A    between atoms: C_38  and  C_39
REMARK                            x       y       z     vdW  Elec       q    Type
REMARK                         _______ _______ _______ _____ _____    ______ ____
ROOT
ATOM      1  N   UNL     1      -1.504  -0.314  -2.393  0.00  0.00    -0.209 N 
ATOM      2  C   UNL     1      -1.562   0.944  -2.940  0.00  0.00    +0.229 C 
ATOM      3  O   UNL     1      -1.924   1.969  -2.403  0.00  0.00    -0.275 OA
ATOM      4  C   UNL     1      -1.098   0.778  -4.295  0.00  0.00    +0.077 C 
ATOM      5  C   UNL     1      -0.534   1.562  -5.408  0.00  0.00    -0.027 C 
ATOM      6  N   UNL     1      -0.115   0.485  -6.370  0.00  0.00    +0.396 N 
ATOM      7  C   UNL     1       0.081  -0.774  -5.591  0.00  0.00    +0.058 C 
ATOM      8  C   UNL     1       0.003  -0.342  -4.119  0.00  0.00    +0.087 C 
ATOM      9  C   UNL     1      -0.785  -1.189  -3.158  0.00  0.00    +0.229 C 
ATOM     10  O   UNL     1      -0.783  -2.398  -3.080  0.00  0.00    -0.275 OA
ATOM     11  H   UNL     1      -0.834   0.348  -7.065  0.00  0.00    -0.083 HD
ATOM     12  H   UNL     1       0.750   0.747  -6.820  0.00  0.00    -0.083 HD
ENDROOT
BRANCH   1  18
ATOM     13  C   UNL     1      -1.412  -0.526   0.013  0.00  0.00    -0.026 A 
ATOM     14  C   UNL     1      -2.015  -0.864   1.208  0.00  0.00    +0.005 A 
ATOM     15  C   UNL     1      -3.312  -1.342   1.219  0.00  0.00    +0.001 A 
ATOM     16  C   UNL     1      -4.010  -1.484   0.034  0.00  0.00    +0.005 A 
ATOM     17  C   UNL     1      -3.412  -1.147  -1.165  0.00  0.00    -0.026 A 
ATOM     18  C   UNL     1      -2.111  -0.661  -1.179  0.00  0.00    +0.050 A 
BRANCH  13  20
ATOM     19  C   UNL     1      -0.019   1.526   0.010  0.00  0.00    +0.009 C 
ATOM     20  C   UNL     1       0.002  -0.004   0.002  0.00  0.00    +0.033 C 
ENDBRANCH  13  20
BRANCH  17  21
ATOM     21  C   UNL     1      -4.173  -1.301  -2.457  0.00  0.00    +0.033 C 
ATOM     22  C   UNL     1      -3.836  -2.653  -3.089  0.00  0.00    +0.009 C 
ENDBRANCH  17  21
ENDBRANCH   1  18
BRANCH   5  23
ATOM     23  C   UNL     1      -1.582   2.454  -6.022  0.00  0.00    -0.057 A 
ATOM     24  C   UNL     1      -2.497   1.930  -6.917  0.00  0.00    +0.006 A 
ATOM     25  C   UNL     1      -3.460   2.744  -7.483  0.00  0.00    +0.049 A 
ATOM     26  C   UNL     1      -3.510   4.090  -7.154  0.00  0.00    +0.158 A 
ATOM     27  C   UNL     1      -2.589   4.617  -6.254  0.00  0.00    +0.161 A 
ATOM     28  C   UNL     1      -1.629   3.794  -5.686  0.00  0.00    +0.051 A 
BRANCH  27  29
ATOM     29  O   UNL     1      -2.634   5.937  -5.928  0.00  0.00    -0.491 OA
ATOM     30  C   UNL     1      -1.657   6.409  -4.997  0.00  0.00    +0.277 C 
ENDBRANCH  27  29
BRANCH  26  31
ATOM     31  O   UNL     1      -4.456   4.892  -7.710  0.00  0.00    -0.503 OA
ATOM     32  H   UNL     1      -5.278   4.941  -7.203  0.00  0.00    +0.292 HD
ENDBRANCH  26  31
ENDBRANCH   5  23
BRANCH   7  33
ATOM     33  C   UNL     1       1.440  -1.360  -5.878  0.00  0.00    +0.347 C 
ATOM     34  O   UNL     1       2.182  -0.814  -6.677  0.00  0.00    -0.248 OA
ATOM     35  O   UNL     1       1.796  -2.379  -5.313  0.00  0.00    -0.248 OA
ENDBRANCH   7  33
BRANCH   7  36
ATOM     36  C   UNL     1      -1.016  -1.784  -5.931  0.00  0.00    +0.125 C 
BRANCH  36  37
ATOM     37  C   UNL     1      -0.942  -2.131  -7.396  0.00  0.00    +0.355 C 
ATOM     38  O   UNL     1      -0.091  -1.617  -8.102  0.00  0.00    -0.246 OA
ATOM     39  O   UNL     1      -1.734  -2.925  -7.875  0.00  0.00    -0.246 OA
ENDBRANCH  36  37
ENDBRANCH   7  36
TORSDOF 9
