REMARK  Name = ZINC36242501
REMARK  1 active torsions:
REMARK  status: ('A' for Active; 'I' for Inactive)
REMARK    1  A    between atoms: C_9  and  N_10
REMARK                            x       y       z     vdW  Elec       q    Type
REMARK                         _______ _______ _______ _____ _____    ______ ____
ROOT
ATOM      1  C   UNL     1      -0.017   1.362   0.009  0.00  0.00    +0.043 A 
ATOM      2  C   UNL     1       1.195   2.075   0.002  0.00  0.00    +0.036 A 
ATOM      3  C   UNL     1       2.374   1.417  -0.013  0.00  0.00    +0.109 A 
ATOM      4  N   UNL     1       2.410   0.051  -0.021  0.00  0.00    -0.286 N 
ATOM      5  C   UNL     1       3.419  -0.860  -0.036  0.00  0.00    +0.229 A 
ATOM      6  N   UNL     1       2.874  -2.050  -0.038  0.00  0.00    -0.137 NA
ATOM      7  N   UNL     1       1.591  -1.952  -0.024  0.00  0.00    -0.128 NA
ATOM      8  C   UNL     1       1.247  -0.675  -0.013  0.00  0.00    +0.182 A 
ATOM      9  C   UNL     1       0.002  -0.004   0.002  0.00  0.00    +0.071 A 
ATOM     10 BR   UNL     1       1.173   3.965   0.012  0.00  0.00    -0.049 Br
ENDROOT
BRANCH   9  11
ATOM     11  N   UNL     1      -1.192  -0.728   0.010  0.00  0.00    -0.355 N 
ATOM     12  H   UNL     1      -2.042  -0.260   0.021  0.00  0.00    +0.142 HD
ATOM     13  H   UNL     1      -1.171  -1.697   0.005  0.00  0.00    +0.142 HD
ENDBRANCH   9  11
TORSDOF 1
