REMARK  Name = ZINC58162059
REMARK  6 active torsions:
REMARK  status: ('A' for Active; 'I' for Inactive)
REMARK    1  A    between atoms: C_1  and  C_2
REMARK    2  A    between atoms: C_9  and  N_14
REMARK    3  A    between atoms: N_17  and  C_18
REMARK    4  A    between atoms: C_18  and  C_19
REMARK    5  A    between atoms: C_19  and  C_21
REMARK    6  A    between atoms: C_19  and  N_27
REMARK                            x       y       z     vdW  Elec       q    Type
REMARK                         _______ _______ _______ _____ _____    ______ ____
ROOT
ATOM      1  N   UNL     1       0.172  -6.591   0.814  0.00  0.00    -0.269 N 
ATOM      2  C   UNL     1       1.066  -6.973   1.748  0.00  0.00    +0.304 C 
ATOM      3  O   UNL     1       1.814  -6.152   2.244  0.00  0.00    -0.253 OA
ATOM      4  N   UNL     1       1.131  -8.263   2.130  0.00  0.00    -0.301 N 
ATOM      5  H   UNL     1      -0.458  -7.235   0.454  0.00  0.00    +0.156 HD
ATOM      6  H   UNL     1       0.535  -8.918   1.734  0.00  0.00    +0.150 HD
ENDROOT
BRANCH   1  14
ATOM      7  C   UNL     1       1.151   0.803  -1.251  0.00  0.00    +0.062 C 
ATOM      8  C   UNL     1       1.096  -0.484  -0.425  0.00  0.00    +0.256 C 
ATOM      9  C   UNL     1       2.436  -1.174  -0.480  0.00  0.00    +0.258 C 
ATOM     10  O   UNL     1       3.449  -0.525  -0.635  0.00  0.00    -0.271 OA
ATOM     11  N   UNL     1       2.503  -2.517  -0.356  0.00  0.00    -0.279 N 
ATOM     12  C   UNL     1       1.314  -3.247  -0.213  0.00  0.00    +0.077 A 
ATOM     13  C   UNL     1       1.339  -4.558   0.232  0.00  0.00    +0.050 A 
ATOM     14  C   UNL     1       0.151  -5.264   0.365  0.00  0.00    +0.037 A 
ATOM     15  C   UNL     1      -1.058  -4.655   0.053  0.00  0.00    +0.027 A 
ATOM     16  C   UNL     1      -1.083  -3.346  -0.390  0.00  0.00    +0.049 A 
ATOM     17  C   UNL     1       0.099  -2.639  -0.524  0.00  0.00    +0.143 A 
ATOM     18  O   UNL     1       0.089  -1.349  -0.957  0.00  0.00    -0.478 OA
ATOM     19  H   UNL     1       3.361  -2.970  -0.365  0.00  0.00    +0.155 HD
ENDBRANCH   1  14
BRANCH   4  20
ATOM     20  C   UNL     1       2.103  -8.678   3.144  0.00  0.00    +0.091 C 
BRANCH  20  21
ATOM     21  C   UNL     1       1.851 -10.138   3.526  0.00  0.00    -0.046 C 
BRANCH  21  22
ATOM     22  N   UNL     1       0.594 -10.237   4.280  0.00  0.00    +0.383 N 
ATOM     23  C   UNL     1      -0.509  -9.590   3.524  0.00  0.00    -0.078 C 
ATOM     24  C   UNL     1      -1.780 -10.245   4.120  0.00  0.00    -0.020 C 
ATOM     25  C   UNL     1      -1.337 -11.707   4.356  0.00  0.00    -0.020 C 
ATOM     26  C   UNL     1       0.200 -11.654   4.433  0.00  0.00    -0.078 C 
ATOM     27  H   UNL     1       0.696  -9.804   5.186  0.00  0.00    -0.081 HD
ENDBRANCH  21  22
BRANCH  21  28
ATOM     28  C   UNL     1       3.006 -10.646   4.391  0.00  0.00    +0.005 C 
ATOM     29  C   UNL     1       4.359 -10.419   3.676  0.00  0.00    +0.032 C 
ATOM     30  C   UNL     1       5.122 -11.728   4.000  0.00  0.00    +0.160 C 
ATOM     31  O   UNL     1       4.093 -12.739   3.948  0.00  0.00    -0.380 OA
ATOM     32  C   UNL     1       2.918 -12.175   4.563  0.00  0.00    +0.162 C 
ENDBRANCH  21  28
ENDBRANCH  20  21
ENDBRANCH   4  20
TORSDOF 5
