REMARK  Name = ZINC41630500
REMARK  7 active torsions:
REMARK  status: ('A' for Active; 'I' for Inactive)
REMARK    1  A    between atoms: C_1  and  C_2
REMARK    2  A    between atoms: C_2  and  C_4
REMARK    3  A    between atoms: C_2  and  S_18
REMARK    4  A    between atoms: N_6  and  C_7
REMARK    5  A    between atoms: C_12  and  C_13
REMARK    6  A    between atoms: S_18  and  C_19
REMARK    7  A    between atoms: C_25  and  N_27
REMARK                            x       y       z     vdW  Elec       q    Type
REMARK                         _______ _______ _______ _____ _____    ______ ____
ROOT
ATOM      1  C   UNL     1       0.731  -0.500   1.224  0.00  0.00    +0.230 C 
ATOM      2  O   UNL     1       0.105  -0.894   2.185  0.00  0.00    -0.274 OA
ATOM      3  N   UNL     1       2.079  -0.519   1.244  0.00  0.00    -0.284 N 
ATOM      4  H   UNL     1       2.579  -0.280   0.448  0.00  0.00    +0.155 HD
ENDROOT
BRANCH   3   5
ATOM      5  C   UNL     1       2.756  -0.883   2.413  0.00  0.00    +0.046 A 
ATOM      6  C   UNL     1       2.143  -0.727   3.649  0.00  0.00    +0.043 A 
ATOM      7  C   UNL     1       2.814  -1.088   4.802  0.00  0.00    +0.043 A 
ATOM      8  C   UNL     1       4.097  -1.603   4.724  0.00  0.00    +0.020 A 
ATOM      9  C   UNL     1       4.709  -1.758   3.495  0.00  0.00    +0.015 A 
ATOM     10  C   UNL     1       4.040  -1.405   2.339  0.00  0.00    +0.076 A 
ATOM     11 CL   UNL     1       2.049  -0.895   6.348  0.00  0.00    -0.083 Cl
BRANCH  10  12
ATOM     12  C   UNL     1       4.707  -1.581   0.999  0.00  0.00    +0.419 C 
ATOM     13  F   UNL     1       5.985  -2.119   1.180  0.00  0.00    -0.166 F 
ATOM     14  F   UNL     1       3.943  -2.447   0.208  0.00  0.00    -0.166 F 
ATOM     15  F   UNL     1       4.810  -0.339   0.363  0.00  0.00    -0.166 F 
ENDBRANCH  10  12
ENDBRANCH   3   5
BRANCH   1  17
ATOM     16  C   UNL     1      -0.015   1.540   0.028  0.00  0.00    +0.029 C 
ATOM     17  C   UNL     1       0.003   0.010   0.007  0.00  0.00    +0.137 C 
BRANCH  17  18
ATOM     18  S   UNL     1      -1.701  -0.614   0.017  0.00  0.00    -0.075 S 
BRANCH  18  19
ATOM     19  C   UNL     1      -2.365  -0.062  -1.519  0.00  0.00    +0.171 A 
ATOM     20  N   UNL     1      -3.656  -0.362  -1.834  0.00  0.00    -0.302 N 
ATOM     21  H   UNL     1      -4.199  -0.874  -1.215  0.00  0.00    +0.171 HD
ATOM     22  C   UNL     1      -4.181   0.053  -3.006  0.00  0.00    +0.254 A 
ATOM     23  O   UNL     1      -5.338  -0.211  -3.296  0.00  0.00    -0.268 OA
ATOM     24  C   UNL     1      -3.380   0.791  -3.882  0.00  0.00    +0.113 A 
ATOM     25  C   UNL     1      -2.071   1.070  -3.514  0.00  0.00    +0.124 A 
ATOM     26  N   UNL     1      -1.605   0.637  -2.337  0.00  0.00    -0.209 NA
BRANCH  25  27
ATOM     27  N   UNL     1      -1.254   1.796  -4.358  0.00  0.00    -0.343 N 
ATOM     28  H   UNL     1      -1.595   2.112  -5.209  0.00  0.00    +0.144 HD
ATOM     29  H   UNL     1      -0.340   1.990  -4.099  0.00  0.00    +0.144 HD
ENDBRANCH  25  27
ENDBRANCH  18  19
ENDBRANCH  17  18
ENDBRANCH   1  17
TORSDOF 6
