REMARK  Name = ZINC25671725
REMARK  9 active torsions:
REMARK  status: ('A' for Active; 'I' for Inactive)
REMARK    1  A    between atoms: C_1  and  C_2
REMARK    2  A    between atoms: C_2  and  O_3
REMARK    3  A    between atoms: O_3  and  C_4
REMARK    4  A    between atoms: C_4  and  C_6
REMARK    5  A    between atoms: C_7  and  C_20
REMARK    6  A    between atoms: C_12  and  C_14
REMARK    7  A    between atoms: C_17  and  C_19
REMARK    8  A    between atoms: C_20  and  N_21
REMARK    9  A    between atoms: C_25  and  C_26
REMARK                            x       y       z     vdW  Elec       q    Type
REMARK                         _______ _______ _______ _____ _____    ______ ____
ROOT
ATOM      1  C   UNL     1      -3.891   4.027   2.679  0.00  0.00    +0.083 C 
ATOM      2  C   UNL     1      -4.986   4.296   1.935  0.00  0.00    +0.042 C 
ATOM      3  N   UNL     1      -5.872   3.311   1.604  0.00  0.00    -0.271 N 
ATOM      4  C   UNL     1      -5.735   2.033   1.977  0.00  0.00    +0.304 C 
ATOM      5  O   UNL     1      -6.577   1.226   1.633  0.00  0.00    -0.252 OA
ATOM      6  N   UNL     1      -4.694   1.611   2.721  0.00  0.00    -0.285 N 
ATOM      7  C   UNL     1      -3.680   2.597   3.132  0.00  0.00    +0.179 C 
ATOM      8  H   UNL     1      -6.758   3.550   0.998  0.00  0.00    +0.156 HD
ATOM      9  H   UNL     1      -4.590   0.558   3.021  0.00  0.00    +0.151 HD
ENDROOT
BRANCH   7  10
ATOM     10  C   UNL     1      -2.344   2.136   2.608  0.00  0.00    +0.130 A 
ATOM     11  C   UNL     1      -1.186   2.145   3.292  0.00  0.00    +0.047 A 
ATOM     12  C   UNL     1      -0.195   1.632   2.424  0.00  0.00    +0.045 A 
ATOM     13  C   UNL     1      -0.806   1.341   1.262  0.00  0.00    +0.102 A 
ATOM     14  O   UNL     1      -2.107   1.653   1.377  0.00  0.00    -0.463 OA
ATOM     15  C   UNL     1      -0.143   0.766   0.037  0.00  0.00    +0.086 C 
ENDBRANCH   7  10
BRANCH   1  16
ATOM     16  C   UNL     1      -2.973   5.047   3.022  0.00  0.00    +0.339 C 
ATOM     17  O   UNL     1      -1.925   5.153   2.412  0.00  0.00    -0.245 OA
BRANCH  16  18
ATOM     18  O   UNL     1      -3.257   5.901   4.028  0.00  0.00    -0.462 OA
BRANCH  18  20
ATOM     19  C   UNL     1      -2.779   7.772   5.480  0.00  0.00    +0.048 C 
ATOM     20  C   UNL     1      -2.284   6.905   4.320  0.00  0.00    +0.229 C 
ENDBRANCH  18  20
ENDBRANCH  16  18
ENDBRANCH   1  16
BRANCH   2  21
ATOM     21  C   UNL     1      -5.235   5.706   1.464  0.00  0.00    +0.169 C 
BRANCH  21  22
ATOM     22  N   UNL     1      -5.181   5.748   0.001  0.00  0.00    -0.223 N 
ATOM     23  C   UNL     1      -4.029   5.987  -0.601  0.00  0.00    +0.261 C 
ATOM     24  O   UNL     1      -3.011   6.172   0.042  0.00  0.00    -0.269 OA
ATOM     25  C   UNL     1      -4.012   6.017  -2.029  0.00  0.00    +0.080 C 
ATOM     26  C   UNL     1      -2.970   6.235  -2.880  0.00  0.00    +0.035 C 
ATOM     27  S   UNL     1      -5.732   5.697  -2.396  0.00  0.00    -0.026 S 
ATOM     28  C   UNL     1      -6.311   5.549  -0.713  0.00  0.00    +0.286 C 
ATOM     29  O   UNL     1      -7.437   5.324  -0.311  0.00  0.00    -0.262 OA
BRANCH  26  30
ATOM     30  C   UNL     1      -3.184   6.226  -4.277  0.00  0.00    +0.013 A 
ATOM     31  C   UNL     1      -2.269   6.424  -5.306  0.00  0.00    +0.015 A 
ATOM     32  C   UNL     1      -2.751   6.360  -6.589  0.00  0.00    +0.008 A 
ATOM     33  C   UNL     1      -4.072   6.112  -6.791  0.00  0.00    +0.046 A 
ATOM     34  S   UNL     1      -4.697   5.950  -5.182  0.00  0.00    -0.097 S 
ENDBRANCH  26  30
ENDBRANCH  21  22
ENDBRANCH   2  21
TORSDOF 7
