REMARK  Name = ZINC45741264
REMARK  4 active torsions:
REMARK  status: ('A' for Active; 'I' for Inactive)
REMARK    1  A    between atoms: C_1  and  C_2
REMARK    2  A    between atoms: C_7  and  S_8
REMARK    3  A    between atoms: S_8  and  N_11
REMARK    4  A    between atoms: N_11  and  C_12
REMARK                            x       y       z     vdW  Elec       q    Type
REMARK                         _______ _______ _______ _____ _____    ______ ____
ROOT
ATOM      1  S   UNL     1      -0.079  -0.037   2.752  0.00  0.00    +0.059 S 
ATOM      2  O   UNL     1      -1.273   0.733   2.779  0.00  0.00    -0.153 OA
ATOM      3  O   UNL     1       0.166  -1.096   3.667  0.00  0.00    -0.153 OA
ENDROOT
BRANCH   1  10
ATOM      4  C   UNL     1       2.176  -1.829   1.828  0.00  0.00    +0.046 C 
ATOM      5  C   UNL     1       1.106  -1.541   0.806  0.00  0.00    -0.023 A 
ATOM      6  C   UNL     1       1.194  -2.091  -0.459  0.00  0.00    +0.025 A 
ATOM      7  C   UNL     1       0.211  -1.826  -1.397  0.00  0.00    +0.041 A 
ATOM      8  C   UNL     1      -0.858  -1.012  -1.067  0.00  0.00    +0.022 A 
ATOM      9  C   UNL     1      -0.944  -0.463   0.198  0.00  0.00    +0.030 A 
ATOM     10  C   UNL     1       0.035  -0.732   1.136  0.00  0.00    +0.108 A 
ATOM     11 CL   UNL     1       0.321  -2.516  -2.986  0.00  0.00    -0.084 Cl
ENDBRANCH   1  10
BRANCH   1  12
ATOM     12  N   UNL     1       1.177   1.030   2.916  0.00  0.00    -0.178 NA
ATOM     13  H   UNL     1       1.885   0.851   3.554  0.00  0.00    +0.149 HD
BRANCH  12  14
ATOM     14  C   UNL     1       1.217   2.244   2.097  0.00  0.00    +0.162 C 
ATOM     15  C   UNL     1       1.794   3.400   2.919  0.00  0.00    +0.030 C 
ATOM     16  C   UNL     1       1.317   4.735   2.378  0.00  0.00    +0.004 C 
ATOM     17  C   UNL     1       1.851   5.062   0.996  0.00  0.00    +0.019 C 
ATOM     18  C   UNL     1       1.279   4.104  -0.051  0.00  0.00    +0.104 C 
ATOM     19  N   UNL     1       2.128   2.902  -0.103  0.00  0.00    -0.314 N 
ATOM     20  C   UNL     1       2.105   2.016   0.892  0.00  0.00    +0.232 C 
ATOM     21  O   UNL     1       2.803   1.026   0.834  0.00  0.00    -0.274 OA
ATOM     22  H   UNL     1       2.705   2.753  -0.869  0.00  0.00    +0.149 HD
ENDBRANCH  12  14
ENDBRANCH   1  12
TORSDOF 3
