REMARK  Name = ZINC64870614
REMARK  6 active torsions:
REMARK  status: ('A' for Active; 'I' for Inactive)
REMARK    1  A    between atoms: C_1  and  C_2
REMARK    2  A    between atoms: C_2  and  C_3
REMARK    3  A    between atoms: C_3  and  C_4
REMARK    4  A    between atoms: C_4  and  N_5
REMARK    5  A    between atoms: C_11  and  C_18
REMARK    6  A    between atoms: C_21  and  C_25
REMARK                            x       y       z     vdW  Elec       q    Type
REMARK                         _______ _______ _______ _____ _____    ______ ____
ROOT
ATOM      1  N   UNL     1       1.471  -2.526   2.420  0.00  0.00    -0.261 N 
ATOM      2  C   UNL     1       2.806  -2.723   2.360  0.00  0.00    +0.264 A 
ATOM      3  O   UNL     1       3.424  -2.503   1.336  0.00  0.00    -0.267 OA
ATOM      4  C   UNL     1       3.495  -3.211   3.568  0.00  0.00    +0.063 A 
ATOM      5  C   UNL     1       4.869  -3.439   3.587  0.00  0.00    +0.016 A 
ATOM      6  C   UNL     1       5.466  -3.896   4.743  0.00  0.00    +0.008 A 
ATOM      7  C   UNL     1       4.708  -4.128   5.880  0.00  0.00    -0.000 A 
ATOM      8  C   UNL     1       3.345  -3.907   5.875  0.00  0.00    +0.034 A 
ATOM      9  C   UNL     1       2.727  -3.447   4.722  0.00  0.00    +0.056 A 
ATOM     10  N   UNL     1       1.361  -3.211   4.674  0.00  0.00    -0.307 N 
ATOM     11  H   UNL     1       0.819  -3.369   5.463  0.00  0.00    +0.170 HD
ATOM     12  C   UNL     1       0.782  -2.761   3.548  0.00  0.00    +0.330 A 
ATOM     13  O   UNL     1      -0.417  -2.563   3.549  0.00  0.00    -0.246 OA
ENDROOT
BRANCH   7  14
ATOM     14  C   UNL     1       5.378  -4.628   7.134  0.00  0.00    +0.242 C 
ATOM     15  N   UNL     1       6.588  -5.421   6.793  0.00  0.00    -0.265 NA
ATOM     16  C   UNL     1       7.403  -5.321   8.033  0.00  0.00    +0.180 C 
ATOM     17  N   UNL     1       7.150  -3.939   8.506  0.00  0.00    -0.177 NA
ATOM     18  O   UNL     1       5.867  -3.523   7.916  0.00  0.00    -0.274 OA
ATOM     19  H   UNL     1       6.347  -6.381   6.596  0.00  0.00    +0.127 HD
ATOM     20  H   UNL     1       7.112  -3.902   9.513  0.00  0.00    +0.156 HD
BRANCH  16  21
ATOM     21  C   UNL     1       8.865  -5.519   7.724  0.00  0.00    -0.013 A 
ATOM     22  C   UNL     1       9.244  -6.321   6.664  0.00  0.00    +0.006 A 
ATOM     23  C   UNL     1      10.584  -6.504   6.380  0.00  0.00    +0.002 A 
ATOM     24  C   UNL     1      11.546  -5.885   7.156  0.00  0.00    +0.020 A 
ATOM     25  C   UNL     1      11.167  -5.083   8.217  0.00  0.00    +0.041 A 
ATOM     26  C   UNL     1       9.825  -4.895   8.498  0.00  0.00    +0.026 A 
ATOM     27 CL   UNL     1      12.375  -4.305   9.193  0.00  0.00    -0.084 Cl
ENDBRANCH  16  21
ENDBRANCH   7  14
BRANCH   1  28
ATOM     28  C   UNL     1       0.763  -2.041   1.233  0.00  0.00    +0.130 C 
BRANCH  28  29
ATOM     29  C   UNL     1       0.742  -0.511   1.242  0.00  0.00    +0.022 C 
BRANCH  29  31
ATOM     30  C   UNL     1      -0.019   1.526   0.010  0.00  0.00    +0.004 C 
ATOM     31  C   UNL     1       0.002  -0.004   0.002  0.00  0.00    -0.002 C 
ENDBRANCH  29  31
ENDBRANCH  28  29
ENDBRANCH   1  28
TORSDOF 5
