REMARK  Name = ZINC21313756
REMARK  5 active torsions:
REMARK  status: ('A' for Active; 'I' for Inactive)
REMARK    1  A    between atoms: C_1  and  O_2
REMARK    2  A    between atoms: O_2  and  C_3
REMARK    3  A    between atoms: C_5  and  C_10
REMARK    4  A    between atoms: C_8  and  O_9
REMARK    5  A    between atoms: N_16  and  C_17
REMARK                            x       y       z     vdW  Elec       q    Type
REMARK                         _______ _______ _______ _____ _____    ______ ____
ROOT
ATOM      1  C   UNL     1       2.383   0.342  -4.220  0.00  0.00    +0.028 C 
ATOM      2  C   UNL     1       3.072  -0.262  -5.221  0.00  0.00    +0.078 C 
ATOM      3  C   UNL     1       3.831   0.344  -6.332  0.00  0.00    +0.256 C 
ATOM      4  O   UNL     1       3.913   1.552  -6.462  0.00  0.00    -0.269 OA
ATOM      5  N   UNL     1       4.417  -0.483  -7.181  0.00  0.00    -0.260 N 
ATOM      6  C   UNL     1       4.310  -1.850  -7.016  0.00  0.00    +0.161 C 
ATOM      7  N   UNL     1       4.820  -2.798  -7.752  0.00  0.00    -0.260 NA
ATOM      8  S   UNL     1       3.311  -2.003  -5.544  0.00  0.00    -0.049 S 
ATOM      9  H   UNL     1       4.995  -0.085  -8.027  0.00  0.00    +0.157 HD
ENDROOT
BRANCH   1  12
ATOM     10  C   UNL     1       0.365  -0.687  -1.231  0.00  0.00    +0.162 A 
ATOM     11  C   UNL     1       1.139   0.074  -2.084  0.00  0.00    +0.057 A 
ATOM     12  C   UNL     1       1.560  -0.462  -3.308  0.00  0.00    -0.020 A 
ATOM     13  C   UNL     1       1.192  -1.767  -3.658  0.00  0.00    +0.012 A 
ATOM     14  C   UNL     1       0.419  -2.518  -2.800  0.00  0.00    +0.050 A 
ATOM     15  C   UNL     1       0.008  -1.988  -1.585  0.00  0.00    +0.158 A 
BRANCH  10  17
ATOM     16  C   UNL     1       0.362   1.167   0.259  0.00  0.00    +0.277 C 
ATOM     17  O   UNL     1      -0.045  -0.170  -0.042  0.00  0.00    -0.491 OA
ENDBRANCH  10  17
BRANCH  15  18
ATOM     18  O   UNL     1      -0.749  -2.736  -0.741  0.00  0.00    -0.503 OA
ATOM     19  H   UNL     1      -1.032  -3.762  -1.018  0.00  0.00    +0.292 HD
ENDBRANCH  15  18
ENDBRANCH   1  12
BRANCH   7  20
ATOM     20  C   UNL     1       4.588  -4.202  -7.403  0.00  0.00    +0.108 C 
ATOM     21  C   UNL     1       5.934  -4.923  -7.191  0.00  0.00    +0.027 C 
ATOM     22  C   UNL     1       5.702  -6.340  -7.774  0.00  0.00    +0.002 C 
ATOM     23  C   UNL     1       4.820  -6.058  -9.017  0.00  0.00    +0.002 C 
ATOM     24  C   UNL     1       3.879  -4.923  -8.563  0.00  0.00    +0.027 C 
ENDBRANCH   7  20
TORSDOF 4
