REMARK  Name = ZINC16620534
REMARK  2 active torsions:
REMARK  status: ('A' for Active; 'I' for Inactive)
REMARK    1  A    between atoms: N_9  and  C_12
REMARK    2  A    between atoms: C_12  and  N_13
REMARK                            x       y       z     vdW  Elec       q    Type
REMARK                         _______ _______ _______ _____ _____    ______ ____
ROOT
ATOM      1  N   UNL     1      -0.785   3.059   0.030  0.00  0.00    -0.204 N 
ATOM      2  C   UNL     1       0.551   3.247   0.017  0.00  0.00    +0.248 C 
ATOM      3  O   UNL     1       1.144   4.304   0.018  0.00  0.00    -0.273 OA
ATOM      4  C   UNL     1       1.152   1.861   0.001  0.00  0.00    +0.113 C 
ATOM      5  C   UNL     1       2.023   1.642  -1.203  0.00  0.00    +0.035 C 
ATOM      6  C   UNL     1       1.925   0.198  -1.741  0.00  0.00    +0.003 C 
ATOM      7  C   UNL     1       1.904  -0.856  -0.616  0.00  0.00    +0.000 C 
ATOM      8  C   UNL     1       2.881  -0.545   0.485  0.00  0.00    +0.000 C 
ATOM      9  C   UNL     1       2.138   0.228   1.593  0.00  0.00    +0.003 C 
ATOM     10  C   UNL     1       1.985   1.642   1.279  0.00  0.00    +0.035 C 
ATOM     11  N   UNL     1      -0.011   0.966   0.007  0.00  0.00    -0.285 N 
ATOM     12  C   UNL     1      -1.101   1.758   0.016  0.00  0.00    +0.311 C 
ATOM     13  O   UNL     1      -2.241   1.339   0.015  0.00  0.00    -0.252 OA
ATOM     14  H   UNL     1       0.002  -0.004   0.002  0.00  0.00    +0.151 HD
ENDROOT
BRANCH   1  15
ATOM     15  C   UNL     1      -1.769   4.145   0.051  0.00  0.00    +0.268 C 
BRANCH  15  24
ATOM     16  C   UNL     1      -5.004   4.614  -5.164  0.00  0.00    +0.001 A 
ATOM     17  C   UNL     1      -4.047   5.354  -5.846  0.00  0.00    +0.002 A 
ATOM     18  C   UNL     1      -2.860   5.699  -5.241  0.00  0.00    +0.030 A 
ATOM     19  C   UNL     1      -2.611   5.301  -3.925  0.00  0.00    +0.100 A 
ATOM     20  C   UNL     1      -3.586   4.549  -3.235  0.00  0.00    +0.068 A 
ATOM     21  C   UNL     1      -4.782   4.210  -3.866  0.00  0.00    +0.015 A 
ATOM     22  C   UNL     1      -3.301   4.142  -1.851  0.00  0.00    +0.279 A 
ATOM     23  O   UNL     1      -4.102   3.493  -1.204  0.00  0.00    -0.265 OA
ATOM     24  N   UNL     1      -2.112   4.519  -1.324  0.00  0.00    -0.192 N 
ATOM     25  N   UNL     1      -1.214   5.270  -2.087  0.00  0.00    -0.061 NA
ATOM     26  N   UNL     1      -1.453   5.624  -3.298  0.00  0.00    -0.131 NA
ENDBRANCH  15  24
ENDBRANCH   1  15
TORSDOF 2
