REMARK  Name = ZINC05091055
REMARK  6 active torsions:
REMARK  status: ('A' for Active; 'I' for Inactive)
REMARK    1  A    between atoms: C_1  and  C_2
REMARK    2  A    between atoms: C_5  and  N_8
REMARK    3  A    between atoms: C_12  and  N_56
REMARK    4  A    between atoms: C_16  and  C_18
REMARK    5  A    between atoms: C_16  and  C_19
REMARK    6  A    between atoms: C_16  and  N_56
REMARK                            x       y       z     vdW  Elec       q    Type
REMARK                         _______ _______ _______ _____ _____    ______ ____
ROOT
ATOM      1  N   UNL     1       2.768   5.202   0.028  0.00  0.00    +0.389 N 
ATOM      2  H   UNL     1       1.967   5.558  -0.506  0.00  0.00    -0.084 HD
ATOM      3  H   UNL     1       2.710   5.536   0.997  0.00  0.00    -0.084 HD
ENDROOT
BRANCH   1   8
ATOM      4  N   UNL     1       4.028   7.147  -2.400  0.00  0.00    -0.212 N 
ATOM      5  C   UNL     1       4.299   7.947  -1.361  0.00  0.00    +0.225 C 
ATOM      6  O   UNL     1       4.494   9.142  -1.427  0.00  0.00    -0.275 OA
ATOM      7  C   UNL     1       4.327   7.123  -0.089  0.00  0.00    +0.090 C 
ATOM      8  C   UNL     1       4.018   5.695  -0.582  0.00  0.00    +0.026 C 
ATOM      9  C   UNL     1       3.851   5.860  -2.077  0.00  0.00    +0.213 C 
ATOM     10  O   UNL     1       3.598   4.969  -2.858  0.00  0.00    -0.277 OA
BRANCH   4  15
ATOM     11  C   UNL     1       3.659   9.055  -7.732  0.00  0.00    +0.044 C 
ATOM     12  C   UNL     1       3.757   8.548  -6.316  0.00  0.00    -0.050 A 
ATOM     13  C   UNL     1       2.813   8.930  -5.380  0.00  0.00    +0.005 A 
ATOM     14  C   UNL     1       2.901   8.467  -4.082  0.00  0.00    +0.024 A 
ATOM     15  C   UNL     1       3.937   7.619  -3.717  0.00  0.00    +0.044 A 
ATOM     16  C   UNL     1       4.886   7.242  -4.658  0.00  0.00    +0.024 A 
ATOM     17  C   UNL     1       4.790   7.703  -5.956  0.00  0.00    +0.005 A 
ENDBRANCH   4  15
ENDBRANCH   1   8
BRANCH   1  18
ATOM     18  C   UNL     1       2.741   3.727   0.020  0.00  0.00    -0.068 C 
ATOM     19  C   UNL     1       3.478   3.196   1.251  0.00  0.00    -0.013 C 
BRANCH  18  20
ATOM     20  C   UNL     1       1.288   3.251   0.051  0.00  0.00    -0.041 C 
ATOM     21  C   UNL     1       1.252   1.722   0.047  0.00  0.00    +0.009 C 
ATOM     22  C   UNL     1      -0.202   1.246   0.078  0.00  0.00    -0.010 C 
ATOM     23  C   UNL     1      -0.939   1.777  -1.153  0.00  0.00    +0.007 C 
ATOM     24  C   UNL     1      -0.903   3.306  -1.148  0.00  0.00    -0.010 C 
ATOM     25  C   UNL     1       0.550   3.782  -1.180  0.00  0.00    +0.009 C 
ATOM     26  C   UNL     1      -1.584   3.829   0.118  0.00  0.00    +0.007 C 
ATOM     27  C   UNL     1      -0.847   3.298   1.349  0.00  0.00    -0.010 C 
ATOM     28  C   UNL     1      -0.883   1.768   1.345  0.00  0.00    +0.007 C 
ATOM     29  C   UNL     1       0.607   3.774   1.318  0.00  0.00    +0.009 C 
ENDBRANCH  18  20
ENDBRANCH   1  18
TORSDOF 4
