REMARK  Name = ZINC22781812
REMARK  9 active torsions:
REMARK  status: ('A' for Active; 'I' for Inactive)
REMARK    1  A    between atoms: C_2  and  C_3
REMARK    2  A    between atoms: C_3  and  N_4
REMARK    3  A    between atoms: C_5  and  C_7
REMARK    4  A    between atoms: C_7  and  N_8
REMARK    5  A    between atoms: N_11  and  C_14
REMARK    6  A    between atoms: C_14  and  C_15
REMARK    7  A    between atoms: N_17  and  C_18
REMARK    8  A    between atoms: C_19  and  C_27
REMARK    9  A    between atoms: C_27  and  C_29
REMARK                            x       y       z     vdW  Elec       q    Type
REMARK                         _______ _______ _______ _____ _____    ______ ____
ROOT
ATOM      1  C   UNL     1      -1.540   7.696  -2.284  0.00  0.00    +0.232 C 
ATOM      2  O   UNL     1      -1.307   7.878  -1.108  0.00  0.00    -0.274 OA
ATOM      3  N   UNL     1      -1.579   6.443  -2.778  0.00  0.00    -0.278 N 
ATOM      4  H   UNL     1      -1.791   6.278  -3.844  0.00  0.00    +0.155 HD
ENDROOT
BRANCH   3   5
ATOM      5  C   UNL     1      -1.353   5.362  -1.942  0.00  0.00    +0.083 A 
ATOM      6  C   UNL     1      -1.250   4.016  -2.277  0.00  0.00    +0.054 A 
ATOM      7  C   UNL     1      -1.006   3.073  -1.198  0.00  0.00    -0.024 A 
ATOM      8  C   UNL     1      -0.905   3.620   0.032  0.00  0.00    -0.005 A 
ATOM      9  S   UNL     1      -1.128   5.358  -0.224  0.00  0.00    -0.077 S 
ATOM     10  C   UNL     1      -0.659   2.901   1.323  0.00  0.00    +0.043 C 
ATOM     11  C   UNL     1      -0.912   1.403   1.096  0.00  0.00    +0.005 C 
ATOM     12  C   UNL     1      -0.180   0.967  -0.177  0.00  0.00    +0.005 C 
ATOM     13  C   UNL     1      -0.868   1.570  -1.403  0.00  0.00    +0.037 C 
BRANCH   6  14
ATOM     14  C   UNL     1      -1.383   3.566  -3.665  0.00  0.00    +0.196 C 
ATOM     15  O   UNL     1      -0.415   3.576  -4.403  0.00  0.00    -0.287 OA
BRANCH  14  16
ATOM     16  C   UNL     1      -2.693   3.101  -4.169  0.00  0.00    +0.022 A 
ATOM     17  C   UNL     1      -3.826   3.185  -3.358  0.00  0.00    +0.012 A 
ATOM     18  C   UNL     1      -5.046   2.753  -3.836  0.00  0.00    +0.001 A 
ATOM     19  C   UNL     1      -5.146   2.228  -5.112  0.00  0.00    +0.000 A 
ATOM     20  C   UNL     1      -4.025   2.137  -5.919  0.00  0.00    +0.001 A 
ATOM     21  C   UNL     1      -2.800   2.570  -5.455  0.00  0.00    +0.012 A 
ENDBRANCH  14  16
ENDBRANCH   6  14
ENDBRANCH   3   5
BRANCH   1  22
ATOM     22  C   UNL     1      -1.787   8.872  -3.193  0.00  0.00    +0.180 C 
BRANCH  22  26
ATOM     23  N   UNL     1      -2.590  12.651  -1.484  0.00  0.00    +0.387 N 
ATOM     24  C   UNL     1      -1.506  12.559  -2.472  0.00  0.00    -0.063 C 
ATOM     25  C   UNL     1      -1.688  11.289  -3.308  0.00  0.00    +0.066 C 
ATOM     26  N   UNL     1      -1.690  10.118  -2.421  0.00  0.00    -0.298 NA
ATOM     27  C   UNL     1      -2.774  10.211  -1.433  0.00  0.00    +0.066 C 
ATOM     28  C   UNL     1      -2.592  11.480  -0.597  0.00  0.00    -0.063 C 
ATOM     29  H   UNL     1      -3.546  12.667  -2.029  0.00  0.00    -0.081 HD
BRANCH  23  30
ATOM     30  C   UNL     1      -2.493  13.897  -0.712  0.00  0.00    +0.019 C 
BRANCH  30  32
ATOM     31  N   UNL     1      -3.878  15.157   0.905  0.00  0.00    -0.313 N 
ATOM     32  C   UNL     1      -3.743  14.076   0.111  0.00  0.00    +0.197 C 
ATOM     33  O   UNL     1      -4.627  13.248   0.059  0.00  0.00    -0.278 OA
ATOM     34  H   UNL     1      -3.075  15.908   0.952  0.00  0.00    +0.149 HD
BRANCH  31  35
ATOM     35  C   UNL     1      -5.093  15.331   1.705  0.00  0.00    +0.131 C 
BRANCH  35  37
ATOM     36  C   UNL     1      -5.932  17.517   2.397  0.00  0.00    +0.005 C 
ATOM     37  C   UNL     1      -4.993  16.609   2.497  0.00  0.00    -0.016 C 
ENDBRANCH  35  37
ENDBRANCH  31  35
ENDBRANCH  30  32
ENDBRANCH  23  30
ENDBRANCH  22  26
ENDBRANCH   1  22
TORSDOF 9
