REMARK  Name = ZINC41286199
REMARK  8 active torsions:
REMARK  status: ('A' for Active; 'I' for Inactive)
REMARK    1  A    between atoms: C_1  and  C_2
REMARK    2  A    between atoms: C_2  and  C_3
REMARK    3  A    between atoms: C_2  and  N_4
REMARK    4  A    between atoms: C_5  and  C_7
REMARK    5  A    between atoms: C_7  and  C_8
REMARK    6  A    between atoms: C_8  and  N_9
REMARK    7  A    between atoms: C_17  and  C_20
REMARK    8  A    between atoms: C_17  and  C_21
REMARK                            x       y       z     vdW  Elec       q    Type
REMARK                         _______ _______ _______ _____ _____    ______ ____
ROOT
ATOM      1  N   UNL     1      -4.463  -4.163  -1.081  0.00  0.00    -0.264 N 
ATOM      2  C   UNL     1      -4.946  -4.889   0.017  0.00  0.00    +0.080 A 
ATOM      3  C   UNL     1      -4.271  -4.875   1.227  0.00  0.00    +0.047 A 
ATOM      4  C   UNL     1      -4.763  -5.600   2.298  0.00  0.00    +0.043 A 
ATOM      5  C   UNL     1      -5.925  -6.338   2.162  0.00  0.00    +0.024 A 
ATOM      6  C   UNL     1      -6.603  -6.355   0.957  0.00  0.00    +0.049 A 
ATOM      7  C   UNL     1      -6.117  -5.631  -0.118  0.00  0.00    +0.143 A 
ATOM      8  O   UNL     1      -6.773  -5.635  -1.310  0.00  0.00    -0.475 OA
ATOM      9  C   UNL     1      -6.708  -4.435  -2.083  0.00  0.00    +0.181 C 
ATOM     10  C   UNL     1      -5.287  -3.933  -2.126  0.00  0.00    +0.263 C 
ATOM     11  O   UNL     1      -4.883  -3.329  -3.098  0.00  0.00    -0.271 OA
ATOM     12  C   UNL     1      -7.194  -4.718  -3.506  0.00  0.00    +0.065 C 
ATOM     13  C   UNL     1      -7.599  -3.368  -1.444  0.00  0.00    +0.065 C 
ATOM     14 CL   UNL     1      -3.919  -5.584   3.815  0.00  0.00    -0.083 Cl
ENDROOT
BRANCH   1  15
ATOM     15  C   UNL     1      -3.089  -3.656  -1.091  0.00  0.00    +0.123 C 
BRANCH  15  16
ATOM     16  C   UNL     1      -3.057  -2.256  -0.474  0.00  0.00    +0.115 C 
BRANCH  16  18
ATOM     17  N   UNL     1      -1.372  -0.511   0.012  0.00  0.00    -0.313 N 
ATOM     18  C   UNL     1      -1.643  -1.734  -0.485  0.00  0.00    +0.215 C 
ATOM     19  O   UNL     1      -0.749  -2.415  -0.941  0.00  0.00    -0.276 OA
ATOM     20  H   UNL     1      -2.087   0.033   0.377  0.00  0.00    +0.149 HD
BRANCH  17  22
ATOM     21  C   UNL     1      -0.019   1.526   0.010  0.00  0.00    +0.027 C 
ATOM     22  C   UNL     1       0.002  -0.004   0.002  0.00  0.00    +0.067 C 
ATOM     23  C   UNL     1       0.742  -0.511   1.242  0.00  0.00    +0.027 C 
ENDBRANCH  17  22
ENDBRANCH  16  18
ENDBRANCH  15  16
ENDBRANCH   1  15
TORSDOF 4
