REMARK  Name = ZINC43410854
REMARK  4 active torsions:
REMARK  status: ('A' for Active; 'I' for Inactive)
REMARK    1  A    between atoms: C_1  and  C_2
REMARK    2  A    between atoms: C_6  and  C_10
REMARK    3  A    between atoms: C_12  and  C_21
REMARK    4  A    between atoms: C_21  and  N_23
REMARK                            x       y       z     vdW  Elec       q    Type
REMARK                         _______ _______ _______ _____ _____    ______ ____
ROOT
ATOM      1  C   UNL     1      -0.350  -1.332   2.405  0.00  0.00    +0.039 C 
ATOM      2  C   UNL     1       0.545  -1.864   1.285  0.00  0.00    +0.132 C 
ATOM      3  C   UNL     1      -0.126  -1.612  -0.070  0.00  0.00    +0.138 C 
ATOM      4  N   UNL     1       0.831  -1.959  -1.134  0.00  0.00    -0.309 N 
ATOM      5  C   UNL     1       2.186  -1.390  -1.058  0.00  0.00    +0.097 C 
ATOM      6  C   UNL     1       2.744  -1.653   0.345  0.00  0.00    +0.182 C 
ATOM      7  O   UNL     1       1.806  -1.191   1.320  0.00  0.00    -0.373 OA
ATOM      8  C   UNL     1       3.083  -2.055  -2.104  0.00  0.00    +0.030 C 
ATOM      9  C   UNL     1       0.467  -2.797  -2.173  0.00  0.00    +0.109 A 
ATOM     10  C   UNL     1      -0.160  -2.267  -3.314  0.00  0.00    +0.041 A 
ATOM     11  C   UNL     1      -0.519  -3.142  -4.343  0.00  0.00    +0.019 A 
ATOM     12  C   UNL     1      -0.240  -4.496  -4.200  0.00  0.00    -0.027 A 
ATOM     13  C   UNL     1       0.383  -4.943  -3.055  0.00  0.00    +0.021 A 
ATOM     14  N   UNL     1       0.714  -4.091  -2.092  0.00  0.00    -0.346 N 
ATOM     15  C   UNL     1       0.730  -6.395  -2.843  0.00  0.00    +0.053 C 
ATOM     16  C   UNL     1      -0.071  -7.284  -3.792  0.00  0.00    +0.006 C 
ATOM     17  C   UNL     1       0.097  -6.747  -5.218  0.00  0.00    +0.005 C 
ATOM     18  C   UNL     1      -0.645  -5.416  -5.321  0.00  0.00    +0.037 C 
ATOM     19  H   UNL     1       1.151  -4.434  -1.297  0.00  0.00    +0.167 HD
ENDROOT
BRANCH  10  20
ATOM     20  C   UNL     1      -0.433  -0.824  -3.423  0.00  0.00    +0.080 C 
ATOM     21  S   UNL     1       0.155   0.251  -2.227  0.00  0.00    -0.035 S 
BRANCH  20  22
ATOM     22  N   UNL     1      -1.146  -0.349  -4.464  0.00  0.00    -0.352 N 
ATOM     23  H   UNL     1      -1.479  -0.958  -5.141  0.00  0.00    +0.143 HD
ATOM     24  H   UNL     1      -1.325   0.601  -4.535  0.00  0.00    +0.143 HD
ENDBRANCH  20  22
ENDBRANCH  10  20
TORSDOF 2
