REMARK  Name = ZINC36863589
REMARK  7 active torsions:
REMARK  status: ('A' for Active; 'I' for Inactive)
REMARK    1  A    between atoms: C_1  and  C_2
REMARK    2  A    between atoms: C_2  and  C_3
REMARK    3  A    between atoms: C_2  and  N_4
REMARK    4  A    between atoms: C_6  and  N_21
REMARK    5  A    between atoms: C_8  and  C_9
REMARK    6  A    between atoms: C_14  and  C_17
REMARK    7  A    between atoms: N_19  and  C_20
REMARK                            x       y       z     vdW  Elec       q    Type
REMARK                         _______ _______ _______ _____ _____    ______ ____
ROOT
ATOM      1  C   UNL     1      -1.223  -1.973  -2.056  0.00  0.00    +0.263 C 
ATOM      2  O   UNL     1      -1.842  -2.648  -2.858  0.00  0.00    -0.268 OA
ATOM      3  N   UNL     1       0.105  -1.798  -2.206  0.00  0.00    -0.296 N 
ATOM      4  C   UNL     1       0.893  -1.123  -1.166  0.00  0.00    +0.109 C 
ATOM      5  C   UNL     1       1.676   0.026  -1.810  0.00  0.00    +0.032 C 
ATOM      6  C   UNL     1       2.507  -0.517  -2.974  0.00  0.00    +0.078 C 
ATOM      7  C   UNL     1       1.577  -1.118  -4.030  0.00  0.00    +0.032 C 
ATOM      8  C   UNL     1       0.793  -2.285  -3.409  0.00  0.00    +0.109 C 
ENDROOT
BRANCH   1  13
ATOM      9  N   UNL     1      -3.082  -1.802  -0.342  0.00  0.00    -0.339 N 
ATOM     10  C   UNL     1      -3.412  -0.962   0.675  0.00  0.00    +0.109 A 
ATOM     11  C   UNL     1      -2.481   0.025   0.746  0.00  0.00    +0.043 A 
ATOM     12  C   UNL     1      -1.536  -0.205  -0.263  0.00  0.00    +0.055 A 
ATOM     13  C   UNL     1      -1.921  -1.351  -0.927  0.00  0.00    +0.107 A 
BRANCH   9  15
ATOM     14  C   UNL     1      -4.019  -3.912   0.466  0.00  0.00    +0.030 C 
ATOM     15  C   UNL     1      -3.834  -2.993  -0.744  0.00  0.00    +0.081 C 
ATOM     16  C   UNL     1      -5.204  -2.575  -1.281  0.00  0.00    +0.030 C 
ENDBRANCH   9  15
BRANCH  11  17
ATOM     17  N   UNL     1      -2.469   1.089   1.667  0.00  0.00    -0.357 N 
ATOM     18  H   UNL     1      -3.172   1.164   2.332  0.00  0.00    +0.142 HD
ATOM     19  H   UNL     1      -1.758   1.748   1.638  0.00  0.00    +0.142 HD
ENDBRANCH  11  17
ENDBRANCH   1  13
BRANCH   6  20
ATOM     20  C   UNL     1       3.305   0.604  -3.588  0.00  0.00    +0.216 C 
ATOM     21  O   UNL     1       3.218   1.727  -3.139  0.00  0.00    -0.276 OA
ATOM     22  N   UNL     1       4.116   0.359  -4.637  0.00  0.00    -0.318 N 
ATOM     23  C   UNL     1       4.891   1.449  -5.234  0.00  0.00    +0.128 C 
ATOM     24  H   UNL     1       4.185  -0.539  -4.996  0.00  0.00    +0.148 HD
ENDBRANCH   6  20
TORSDOF 4
