REMARK  Name = ZINC49630636
REMARK  5 active torsions:
REMARK  status: ('A' for Active; 'I' for Inactive)
REMARK    1  A    between atoms: C_1  and  C_2
REMARK    2  A    between atoms: C_6  and  N_9
REMARK    3  A    between atoms: N_9  and  S_10
REMARK    4  A    between atoms: S_10  and  C_13
REMARK    5  A    between atoms: C_13  and  C_14
REMARK                            x       y       z     vdW  Elec       q    Type
REMARK                         _______ _______ _______ _____ _____    ______ ____
ROOT
ATOM      1  S   UNL     1      -0.049  -4.451   2.383  0.00  0.00    +0.061 S 
ATOM      2  O   UNL     1      -1.280  -4.735   1.732  0.00  0.00    -0.154 OA
ATOM      3  O   UNL     1       1.183  -4.888   1.826  0.00  0.00    -0.154 OA
ENDROOT
BRANCH   1   4
ATOM      4  N   UNL     1       0.053  -2.799   2.392  0.00  0.00    -0.100 NA
BRANCH   4  10
ATOM      5  C   UNL     1      -2.467   0.328  -0.447  0.00  0.00    +0.045 C 
ATOM      6  C   UNL     1      -1.273  -0.561  -0.208  0.00  0.00    -0.030 A 
ATOM      7  C   UNL     1      -0.289  -0.670  -1.173  0.00  0.00    +0.006 A 
ATOM      8  C   UNL     1       0.808  -1.484  -0.958  0.00  0.00    +0.022 A 
ATOM      9  C   UNL     1       0.925  -2.191   0.224  0.00  0.00    +0.067 A 
ATOM     10  C   UNL     1      -0.062  -2.084   1.196  0.00  0.00    +0.111 A 
ATOM     11  C   UNL     1      -1.161  -1.261   0.978  0.00  0.00    +0.070 A 
ATOM     12 CL   UNL     1      -2.393  -1.118   2.192  0.00  0.00    -0.081 Cl
ATOM     13 CL   UNL     1       2.302  -3.213   0.492  0.00  0.00    -0.081 Cl
ENDBRANCH   4  10
ENDBRANCH   1   4
BRANCH   1  14
ATOM     14  C   UNL     1      -0.146  -4.922   4.132  0.00  0.00    +0.175 C 
BRANCH  14  15
ATOM     15  C   UNL     1      -0.244  -6.445   4.246  0.00  0.00    -0.049 C 
ATOM     16  C   UNL     1      -0.452  -6.834   5.711  0.00  0.00    -0.014 C 
ATOM     17  C   UNL     1      -0.551  -8.358   5.820  0.00  0.00    -0.003 C 
ATOM     18  C   UNL     1       0.714  -8.985   5.226  0.00  0.00    -0.019 C 
ATOM     19  C   UNL     1       0.879  -8.516   3.779  0.00  0.00    -0.082 C 
ATOM     20  N   UNL     1       0.994  -7.053   3.746  0.00  0.00    +0.382 N 
ATOM     21  H   UNL     1       1.157  -6.752   2.797  0.00  0.00    -0.085 HD
ATOM     22  H   UNL     1       1.768  -6.764   4.326  0.00  0.00    -0.085 HD
ENDBRANCH  14  15
ENDBRANCH   1  14
TORSDOF 4
