REMARK  Name = ZINC15776017
REMARK  14 active torsions:
REMARK  status: ('A' for Active; 'I' for Inactive)
REMARK    1  A    between atoms: C_1  and  C_2
REMARK    2  A    between atoms: C_2  and  N_3
REMARK    3  A    between atoms: N_3  and  C_4
REMARK    4  A    between atoms: N_3  and  S_6
REMARK    5  A    between atoms: C_4  and  C_5
REMARK    6  A    between atoms: S_6  and  C_9
REMARK    7  A    between atoms: C_16  and  C_22
REMARK    8  A    between atoms: C_19  and  C_21
REMARK    9  A    between atoms: N_24  and  C_25
REMARK   10  A    between atoms: C_25  and  C_26
REMARK   11  A    between atoms: C_26  and  N_68
REMARK   12  A    between atoms: C_27  and  N_68
REMARK   13  A    between atoms: C_28  and  C_29
REMARK   14  A    between atoms: C_28  and  N_68
REMARK                            x       y       z     vdW  Elec       q    Type
REMARK                         _______ _______ _______ _____ _____    ______ ____
ROOT
ATOM      1  C   UNL     1       0.024   2.155  11.431  0.00  0.00    +0.106 A 
ATOM      2  C   UNL     1      -1.231   1.610  11.632  0.00  0.00    +0.030 A 
ATOM      3  C   UNL     1      -1.839   0.882  10.632  0.00  0.00    +0.026 A 
ATOM      4  C   UNL     1      -1.194   0.689   9.409  0.00  0.00    +0.040 A 
ATOM      5  C   UNL     1       0.064   1.240   9.218  0.00  0.00    -0.022 A 
ATOM      6  C   UNL     1       0.670   1.969  10.223  0.00  0.00    +0.034 A 
ATOM      7  C   UNL     1       0.538   0.887   7.824  0.00  0.00    +0.069 C 
ATOM      8  C   UNL     1      -0.611   0.058   7.225  0.00  0.00    +0.171 C 
ATOM      9  N   UNL     1      -1.628  -0.008   8.277  0.00  0.00    -0.259 N 
ATOM     10  C   UNL     1      -2.811  -0.646   8.170  0.00  0.00    +0.217 C 
ATOM     11  O   UNL     1      -3.554  -0.711   9.126  0.00  0.00    -0.276 OA
ATOM     12  C   UNL     1      -3.209  -1.280   6.862  0.00  0.00    +0.109 C 
ENDROOT
BRANCH   8  13
ATOM     13  C   UNL     1      -1.166   0.742   6.002  0.00  0.00    +0.234 C 
ATOM     14  O   UNL     1      -2.174   1.412   6.087  0.00  0.00    -0.274 OA
ATOM     15  N   UNL     1      -0.544   0.608   4.814  0.00  0.00    -0.316 N 
ATOM     16  H   UNL     1       0.262   0.072   4.746  0.00  0.00    +0.149 HD
BRANCH  15  17
ATOM     17  C   UNL     1      -1.084   1.273   3.626  0.00  0.00    +0.086 C 
BRANCH  17  18
ATOM     18  C   UNL     1      -0.196   0.962   2.419  0.00  0.00    -0.060 C 
BRANCH  18  20
ATOM     19  C   UNL     1      -0.652   3.089   1.357  0.00  0.00    -0.096 C 
ATOM     20  N   UNL     1      -0.765   1.621   1.225  0.00  0.00    +0.382 N 
ATOM     21  H   UNL     1      -1.757   1.369   1.146  0.00  0.00    -0.082 HD
BRANCH  20  22
ATOM     22  C   UNL     1      -0.056   1.166   0.011  0.00  0.00    -0.043 C 
BRANCH  22  23
ATOM     23  C   UNL     1      -0.791   1.677  -1.201  0.00  0.00    -0.064 A 
ATOM     24  C   UNL     1      -1.802   0.921  -1.766  0.00  0.00    +0.002 A 
ATOM     25  C   UNL     1      -2.480   1.392  -2.875  0.00  0.00    +0.000 A 
ATOM     26  C   UNL     1      -2.140   2.613  -3.426  0.00  0.00    +0.000 A 
ATOM     27  C   UNL     1      -1.125   3.366  -2.865  0.00  0.00    +0.000 A 
ATOM     28  C   UNL     1      -0.451   2.898  -1.752  0.00  0.00    +0.002 A 
ENDBRANCH  22  23
ENDBRANCH  20  22
ENDBRANCH  18  20
ENDBRANCH  17  18
ENDBRANCH  15  17
ENDBRANCH   8  13
BRANCH   1  29
ATOM     29  S   UNL     1       0.798   3.085  12.712  0.00  0.00    +0.061 S 
ATOM     30  O   UNL     1       1.735   3.946  12.079  0.00  0.00    -0.153 OA
ATOM     31  O   UNL     1      -0.243   3.574  13.546  0.00  0.00    -0.153 OA
BRANCH  29  32
ATOM     32  N   UNL     1       1.677   2.021  13.627  0.00  0.00    -0.177 NA
BRANCH  32  34
ATOM     33  C   UNL     1       3.993   2.643  14.111  0.00  0.00    +0.022 C 
ATOM     34  C   UNL     1       3.074   1.740  13.285  0.00  0.00    +0.106 C 
ENDBRANCH  32  34
BRANCH  32  35
ATOM     35  C   UNL     1       1.058   1.360  14.779  0.00  0.00    +0.106 C 
ATOM     36  C   UNL     1       0.525  -0.010  14.355  0.00  0.00    +0.022 C 
ENDBRANCH  32  35
ENDBRANCH  29  32
ENDBRANCH   1  29
TORSDOF 10
