REMARK  Name = ZINC24058397
REMARK  5 active torsions:
REMARK  status: ('A' for Active; 'I' for Inactive)
REMARK    1  A    between atoms: C_4  and  C_7
REMARK    2  A    between atoms: C_7  and  C_9
REMARK    3  A    between atoms: C_7  and  N_15
REMARK    4  A    between atoms: N_15  and  C_16
REMARK    5  A    between atoms: C_17  and  N_27
REMARK                            x       y       z     vdW  Elec       q    Type
REMARK                         _______ _______ _______ _____ _____    ______ ____
ROOT
ATOM      1  N   UNL     1      -2.474  -0.172  -0.275  0.00  0.00    -0.315 N 
ATOM      2  H   UNL     1      -1.543  -0.754  -0.219  0.00  0.00    +0.148 HD
ENDROOT
BRANCH   1   3
ATOM      3  C   UNL     1      -2.432   1.209  -0.214  0.00  0.00    +0.158 A 
ATOM      4  C   UNL     1      -1.206   1.870  -0.192  0.00  0.00    +0.230 A 
ATOM      5  C   UNL     1      -1.192   3.261  -0.125  0.00  0.00    +0.291 A 
ATOM      6  O   UNL     1      -0.133   3.869  -0.099  0.00  0.00    -0.265 OA
ATOM      7  N   UNL     1      -2.365   3.929  -0.095  0.00  0.00    -0.266 N 
ATOM      8  C   UNL     1      -2.362   5.290  -0.033  0.00  0.00    +0.096 A 
ATOM      9  C   UNL     1      -3.521   5.984   0.004  0.00  0.00    +0.018 A 
ATOM     10  C   UNL     1      -4.749   5.306  -0.019  0.00  0.00    +0.005 A 
ATOM     11  C   UNL     1      -4.764   3.945  -0.079  0.00  0.00    +0.047 A 
ATOM     12  C   UNL     1      -3.546   3.240  -0.118  0.00  0.00    +0.142 A 
ATOM     13  N   UNL     1      -3.562   1.911  -0.176  0.00  0.00    -0.212 NA
BRANCH   4  14
ATOM     14  N   UNL     1       0.062   1.106  -0.234  0.00  0.00    +0.065 N 
ATOM     15  O   UNL     1       0.041  -0.111  -0.193  0.00  0.00    -0.126 OA
ATOM     16  O   UNL     1       1.125   1.694  -0.314  0.00  0.00    -0.126 OA
ENDBRANCH   4  14
ENDBRANCH   1   3
BRANCH   1  17
ATOM     17  C   UNL     1      -3.760  -0.859  -0.414  0.00  0.00    +0.151 C 
BRANCH  17  21
ATOM     18  C   UNL     1      -4.738  -1.228  -4.556  0.00  0.00    +0.000 A 
ATOM     19  C   UNL     1      -5.724  -0.920  -3.637  0.00  0.00    +0.000 A 
ATOM     20  C   UNL     1      -5.408  -0.801  -2.297  0.00  0.00    +0.006 A 
ATOM     21  C   UNL     1      -4.105  -0.990  -1.875  0.00  0.00    -0.021 A 
ATOM     22  C   UNL     1      -3.118  -1.292  -2.794  0.00  0.00    +0.006 A 
ATOM     23  C   UNL     1      -3.435  -1.416  -4.133  0.00  0.00    +0.000 A 
ENDBRANCH  17  21
BRANCH  17  24
ATOM     24  C   UNL     1      -3.666  -2.230   0.205  0.00  0.00    +0.066 A 
ATOM     25  C   UNL     1      -4.410  -2.524   1.332  0.00  0.00    +0.025 A 
ATOM     26  C   UNL     1      -4.321  -3.790   1.889  0.00  0.00    +0.003 A 
ATOM     27  C   UNL     1      -3.474  -4.714   1.296  0.00  0.00    +0.020 A 
ATOM     28  C   UNL     1      -2.757  -4.346   0.174  0.00  0.00    +0.111 A 
ATOM     29  N   UNL     1      -2.871  -3.134  -0.333  0.00  0.00    -0.258 NA
ENDBRANCH  17  24
ENDBRANCH   1  17
TORSDOF 5
