REMARK  Name = ZINC67204407
REMARK  6 active torsions:
REMARK  status: ('A' for Active; 'I' for Inactive)
REMARK    1  A    between atoms: C_1  and  N_2
REMARK    2  A    between atoms: N_2  and  C_3
REMARK    3  A    between atoms: N_2  and  C_4
REMARK    4  A    between atoms: C_15  and  C_17
REMARK    5  A    between atoms: C_22  and  C_23
REMARK    6  A    between atoms: C_23  and  N_24
REMARK                            x       y       z     vdW  Elec       q    Type
REMARK                         _______ _______ _______ _____ _____    ______ ____
ROOT
ATOM      1  C   UNL     1       0.059  -0.512   1.208  0.00  0.00    -0.047 C 
ATOM      2  C   UNL     1      -0.004  -2.038   1.251  0.00  0.00    +0.023 C 
ATOM      3  C   UNL     1       0.709  -2.562   2.470  0.00  0.00    -0.027 A 
ATOM      4  C   UNL     1       1.139  -3.878   2.481  0.00  0.00    +0.005 A 
ATOM      5  C   UNL     1       1.793  -4.388   3.586  0.00  0.00    +0.000 A 
ATOM      6  C   UNL     1       2.022  -3.587   4.689  0.00  0.00    +0.002 A 
ATOM      7  C   UNL     1       1.597  -2.273   4.686  0.00  0.00    +0.024 A 
ATOM      8  C   UNL     1       0.940  -1.757   3.575  0.00  0.00    +0.040 A 
ATOM      9  N   UNL     1       0.523  -0.420   3.589  0.00  0.00    -0.269 N 
ATOM     10  C   UNL     1      -0.414   0.045   2.557  0.00  0.00    +0.099 C 
ATOM     11  C   UNL     1       0.977   0.429   4.532  0.00  0.00    +0.251 C 
ATOM     12  O   UNL     1       1.713   0.024   5.411  0.00  0.00    -0.270 OA
ENDROOT
BRANCH  11  13
ATOM     13  C   UNL     1       0.580   1.853   4.498  0.00  0.00    +0.042 A 
ATOM     14  C   UNL     1      -0.770   2.203   4.433  0.00  0.00    +0.013 A 
ATOM     15  C   UNL     1      -1.134   3.533   4.402  0.00  0.00    +0.001 A 
ATOM     16  C   UNL     1      -0.164   4.519   4.435  0.00  0.00    +0.000 A 
ATOM     17  C   UNL     1       1.175   4.179   4.500  0.00  0.00    +0.006 A 
ATOM     18  C   UNL     1       1.553   2.853   4.537  0.00  0.00    -0.017 A 
BRANCH  18  19
ATOM     19  C   UNL     1       3.012   2.484   4.614  0.00  0.00    +0.153 C 
BRANCH  19  20
ATOM     20  N   UNL     1       3.512   2.189   3.269  0.00  0.00    -0.220 N 
ATOM     21  C   UNL     1       3.600   0.949   2.750  0.00  0.00    +0.240 C 
ATOM     22  O   UNL     1       3.292  -0.094   3.286  0.00  0.00    -0.273 OA
ATOM     23  C   UNL     1       4.164   1.128   1.354  0.00  0.00    +0.202 C 
ATOM     24  N   UNL     1       4.345   2.586   1.238  0.00  0.00    -0.290 N 
ATOM     25  C   UNL     1       3.933   3.118   2.403  0.00  0.00    +0.309 C 
ATOM     26  O   UNL     1       3.944   4.309   2.643  0.00  0.00    -0.252 OA
ATOM     27  H   UNL     1       4.691   3.068   0.471  0.00  0.00    +0.151 HD
ENDBRANCH  19  20
ENDBRANCH  18  19
ENDBRANCH  11  13
BRANCH   1  29
ATOM     28  C   UNL     1      -0.755   1.455   0.101  0.00  0.00    -0.096 C 
ATOM     29  N   UNL     1      -0.813  -0.013   0.137  0.00  0.00    +0.379 N 
ATOM     30  C   UNL     1      -0.361  -0.552  -1.153  0.00  0.00    -0.096 C 
ATOM     31  H   UNL     1      -1.762  -0.308   0.311  0.00  0.00    -0.082 HD
ENDBRANCH   1  29
TORSDOF 4
