REMARK  Name = ZINC38577312
REMARK  9 active torsions:
REMARK  status: ('A' for Active; 'I' for Inactive)
REMARK    1  A    between atoms: C_1  and  C_2
REMARK    2  A    between atoms: C_5  and  C_9
REMARK    3  A    between atoms: C_6  and  O_8
REMARK    4  A    between atoms: C_11  and  C_15
REMARK    5  A    between atoms: N_17  and  C_18
REMARK    6  A    between atoms: C_21  and  S_24
REMARK    7  A    between atoms: S_24  and  N_27
REMARK    8  A    between atoms: C_29  and  C_36
REMARK    9  A    between atoms: C_32  and  C_35
REMARK                            x       y       z     vdW  Elec       q    Type
REMARK                         _______ _______ _______ _____ _____    ______ ____
ROOT
ATOM      1  C   UNL     1       0.651  -7.067   3.091  0.00  0.00    +0.248 C 
ATOM      2  O   UNL     1       0.979  -7.066   4.259  0.00  0.00    -0.273 OA
ATOM      3  N   UNL     1       1.407  -7.712   2.180  0.00  0.00    -0.283 N 
ATOM      4  H   UNL     1       1.111  -7.770   1.258  0.00  0.00    +0.155 HD
ENDROOT
BRANCH   3   5
ATOM      5  C   UNL     1       2.619  -8.297   2.564  0.00  0.00    +0.034 A 
ATOM      6  C   UNL     1       3.698  -8.298   1.690  0.00  0.00    +0.025 A 
ATOM      7  C   UNL     1       4.893  -8.876   2.072  0.00  0.00    +0.030 A 
ATOM      8  C   UNL     1       5.015  -9.454   3.323  0.00  0.00    +0.106 A 
ATOM      9  C   UNL     1       3.942  -9.454   4.195  0.00  0.00    +0.030 A 
ATOM     10  C   UNL     1       2.747  -8.872   3.821  0.00  0.00    +0.025 A 
BRANCH   8  11
ATOM     11  S   UNL     1       6.541 -10.190   3.806  0.00  0.00    +0.061 S 
ATOM     12  O   UNL     1       6.231 -11.142   4.814  0.00  0.00    -0.153 OA
ATOM     13  O   UNL     1       7.219 -10.543   2.608  0.00  0.00    -0.153 OA
BRANCH  11  14
ATOM     14  N   UNL     1       7.447  -9.009   4.533  0.00  0.00    -0.172 NA
ATOM     15  C   UNL     1       8.357  -8.161   3.747  0.00  0.00    +0.140 C 
ATOM     16  C   UNL     1       8.071  -6.695   4.093  0.00  0.00    +0.131 C 
ATOM     17  O   UNL     1       8.116  -6.529   5.512  0.00  0.00    -0.371 OA
ATOM     18  C   UNL     1       7.127  -7.281   6.221  0.00  0.00    +0.131 C 
ATOM     19  C   UNL     1       7.360  -8.773   5.982  0.00  0.00    +0.140 C 
ATOM     20  C   UNL     1       7.229  -6.977   7.716  0.00  0.00    +0.039 C 
ATOM     21  C   UNL     1       6.684  -6.309   3.575  0.00  0.00    +0.039 C 
ENDBRANCH  11  14
ENDBRANCH   8  11
ENDBRANCH   3   5
BRANCH   1  24
ATOM     22  C   UNL     1      -2.664  -6.918   3.380  0.00  0.00    +0.095 C 
ATOM     23  C   UNL     1      -1.747  -7.328   2.481  0.00  0.00    +0.041 C 
ATOM     24  C   UNL     1      -0.601  -6.349   2.659  0.00  0.00    +0.239 C 
ATOM     25  N   UNL     1      -1.085  -5.455   3.724  0.00  0.00    -0.170 NA
ATOM     26  N   UNL     1      -2.212  -5.829   4.055  0.00  0.00    -0.153 NA
BRANCH  22  31
ATOM     27  C   UNL     1      -7.790  -9.412   4.223  0.00  0.00    +0.044 C 
ATOM     28  C   UNL     1      -6.448  -8.762   4.001  0.00  0.00    -0.047 A 
ATOM     29  C   UNL     1      -6.087  -7.654   4.747  0.00  0.00    +0.004 A 
ATOM     30  C   UNL     1      -4.861  -7.052   4.550  0.00  0.00    +0.014 A 
ATOM     31  C   UNL     1      -3.983  -7.561   3.596  0.00  0.00    +0.043 A 
ATOM     32  C   UNL     1      -4.350  -8.681   2.844  0.00  0.00    +0.126 A 
ATOM     33  C   UNL     1      -5.582  -9.278   3.056  0.00  0.00    +0.049 A 
BRANCH  32  34
ATOM     34  O   UNL     1      -3.500  -9.185   1.911  0.00  0.00    -0.506 OA
ATOM     35  H   UNL     1      -2.896  -9.859   2.253  0.00  0.00    +0.292 HD
ENDBRANCH  32  34
ENDBRANCH  22  31
ENDBRANCH   1  24
TORSDOF 6
