REMARK  Name = ZINC26647301
REMARK  20 active torsions:
REMARK  status: ('A' for Active; 'I' for Inactive)
REMARK    1  A    between atoms: C_1  and  C_2
REMARK    2  A    between atoms: C_2  and  C_3
REMARK    3  A    between atoms: C_2  and  C_4
REMARK    4  A    between atoms: C_4  and  N_5
REMARK    5  A    between atoms: C_6  and  N_31
REMARK    6  A    between atoms: C_7  and  N_14
REMARK    7  A    between atoms: N_14  and  C_15
REMARK    8  A    between atoms: C_15  and  C_16
REMARK    9  A    between atoms: C_16  and  C_17
REMARK   10  A    between atoms: C_16  and  C_18
REMARK   11  A    between atoms: C_19  and  C_21
REMARK   12  A    between atoms: C_21  and  N_22
REMARK   13  A    between atoms: N_22  and  C_23
REMARK   14  A    between atoms: N_22  and  C_27
REMARK   15  A    between atoms: C_23  and  C_24
REMARK   16  A    between atoms: C_24  and  C_25
REMARK   17  A    between atoms: C_24  and  C_26
REMARK   18  A    between atoms: C_27  and  C_28
REMARK   19  A    between atoms: C_28  and  C_29
REMARK   20  A    between atoms: C_28  and  C_30
REMARK                            x       y       z     vdW  Elec       q    Type
REMARK                         _______ _______ _______ _____ _____    ______ ____
ROOT
ATOM      1  N   UNL     1       3.818   2.004  -2.200  0.00  0.00    -0.266 N 
ATOM      2  C   UNL     1       3.042   3.069  -2.490  0.00  0.00    +0.203 C 
ATOM      3  O   UNL     1       1.841   2.933  -2.595  0.00  0.00    -0.277 OA
ENDROOT
BRANCH   1   6
ATOM      4  N   UNL     1       2.805  -1.052  -0.430  0.00  0.00    -0.280 N 
ATOM      5  C   UNL     1       3.395   0.165  -0.679  0.00  0.00    +0.127 A 
ATOM      6  C   UNL     1       3.226   0.756  -1.914  0.00  0.00    +0.140 A 
ATOM      7  C   UNL     1       2.451   0.092  -2.884  0.00  0.00    +0.277 A 
ATOM      8  O   UNL     1       2.286   0.591  -3.984  0.00  0.00    -0.266 OA
ATOM      9  N   UNL     1       1.895  -1.099  -2.589  0.00  0.00    -0.273 N 
ATOM     10  H   UNL     1       1.361  -1.558  -3.257  0.00  0.00    +0.173 HD
ATOM     11  C   UNL     1       2.075  -1.662  -1.381  0.00  0.00    +0.331 A 
ATOM     12  O   UNL     1       1.565  -2.740  -1.143  0.00  0.00    -0.246 OA
BRANCH   5  13
ATOM     13  N   UNL     1       4.144   0.785   0.292  0.00  0.00    -0.343 N 
ATOM     14  H   UNL     1       4.198   0.403   1.182  0.00  0.00    +0.144 HD
ATOM     15  H   UNL     1       4.620   1.606   0.087  0.00  0.00    +0.144 HD
ENDBRANCH   5  13
BRANCH   4  16
ATOM     16  C   UNL     1       2.976  -1.691   0.877  0.00  0.00    +0.131 C 
BRANCH  16  18
ATOM     17  C   UNL     1       5.465  -1.710   0.660  0.00  0.00    +0.009 C 
ATOM     18  C   UNL     1       4.221  -2.580   0.852  0.00  0.00    +0.003 C 
ATOM     19  C   UNL     1       4.331  -3.343   2.173  0.00  0.00    +0.009 C 
ENDBRANCH  16  18
ENDBRANCH   4  16
ENDBRANCH   1   6
BRANCH   1  20
ATOM     20  C   UNL     1       5.276   2.144  -2.181  0.00  0.00    +0.117 C 
BRANCH  20  21
ATOM     21  C   UNL     1       5.823   1.973  -3.600  0.00  0.00    +0.001 C 
ATOM     22  C   UNL     1       7.322   2.279  -3.609  0.00  0.00    +0.009 C 
ATOM     23  C   UNL     1       5.594   0.533  -4.064  0.00  0.00    +0.009 C 
ENDBRANCH  20  21
ENDBRANCH   1  20
BRANCH   2  24
ATOM     24  C   UNL     1       3.666   4.426  -2.684  0.00  0.00    +0.019 C 
BRANCH  24  25
ATOM     25  N   UNL     1       2.611   5.423  -2.913  0.00  0.00    +0.386 N 
ATOM     26  H   UNL     1       3.029   6.334  -3.028  0.00  0.00    -0.081 HD
BRANCH  25  27
ATOM     27  C   UNL     1       1.860   5.071  -4.125  0.00  0.00    -0.075 C 
BRANCH  27  28
ATOM     28  C   UNL     1       0.844   6.173  -4.433  0.00  0.00    -0.034 C 
ATOM     29  C   UNL     1       1.584   7.468  -4.776  0.00  0.00    +0.005 C 
ATOM     30  C   UNL     1      -0.022   5.751  -5.622  0.00  0.00    +0.005 C 
ENDBRANCH  27  28
ENDBRANCH  25  27
BRANCH  25  31
ATOM     31  C   UNL     1       1.700   5.443  -1.761  0.00  0.00    -0.075 C 
BRANCH  31  32
ATOM     32  C   UNL     1       2.246   6.396  -0.696  0.00  0.00    -0.034 C 
ATOM     33  C   UNL     1       1.239   6.509   0.451  0.00  0.00    +0.005 C 
ATOM     34  C   UNL     1       3.572   5.854  -0.159  0.00  0.00    +0.005 C 
ENDBRANCH  31  32
ENDBRANCH  25  31
ENDBRANCH  24  25
ENDBRANCH   2  24
TORSDOF 12
