REMARK  Name = ZINC51169281
REMARK  5 active torsions:
REMARK  status: ('A' for Active; 'I' for Inactive)
REMARK    1  A    between atoms: C_1  and  C_2
REMARK    2  A    between atoms: C_2  and  C_3
REMARK    3  A    between atoms: C_2  and  C_4
REMARK    4  A    between atoms: C_6  and  N_15
REMARK    5  A    between atoms: N_15  and  N_16
REMARK                            x       y       z     vdW  Elec       q    Type
REMARK                         _______ _______ _______ _____ _____    ______ ____
ROOT
ATOM      1  C   UNL     1      -1.412  -0.526   0.013  0.00  0.00    +0.021 A 
ATOM      2  C   UNL     1      -2.383   0.173   0.717  0.00  0.00    +0.046 A 
ATOM      3  C   UNL     1      -3.687  -0.295   0.736  0.00  0.00    +0.052 A 
ATOM      4  C   UNL     1      -3.974  -1.484   0.023  0.00  0.00    +0.021 A 
ATOM      5  C   UNL     1      -5.268  -2.022  -0.007  0.00  0.00    +0.026 A 
ATOM      6  C   UNL     1      -5.505  -3.169  -0.705  0.00  0.00    +0.014 A 
ATOM      7  C   UNL     1      -4.476  -3.814  -1.388  0.00  0.00    +0.016 A 
ATOM      8  C   UNL     1      -3.209  -3.318  -1.378  0.00  0.00    +0.027 A 
ATOM      9  C   UNL     1      -2.927  -2.137  -0.670  0.00  0.00    +0.048 A 
ATOM     10  N   UNL     1      -1.691  -1.625  -0.649  0.00  0.00    -0.358 N 
ATOM     11  I   UNL     1      -7.440  -3.972  -0.750  0.00  0.00    -0.044 I 
ATOM     12  H   UNL     1      -0.983  -2.079  -1.131  0.00  0.00    +0.166 HD
ENDROOT
BRANCH   1  14
ATOM     13  C   UNL     1      -0.019   1.526   0.010  0.00  0.00    +0.013 C 
ATOM     14  C   UNL     1       0.002  -0.004   0.002  0.00  0.00    +0.029 C 
ATOM     15  C   UNL     1       0.742  -0.511   1.242  0.00  0.00    +0.013 C 
ENDBRANCH   1  14
BRANCH   3  16
ATOM     16  N   UNL     1      -4.680   0.379   1.430  0.00  0.00    -0.282 N 
ATOM     17  H   UNL     1      -5.588   0.038   1.433  0.00  0.00    +0.166 HD
BRANCH  16  18
ATOM     18  N   UNL     1      -4.379   1.525   2.111  0.00  0.00    -0.256 NA
ATOM     19  H   UNL     1      -3.958   2.208   1.500  0.00  0.00    +0.140 HD
ATOM     20  H   UNL     1      -5.197   1.901   2.565  0.00  0.00    +0.140 HD
ENDBRANCH  16  18
ENDBRANCH   3  16
TORSDOF 3
