REMARK  Name = ZINC18197763
REMARK  9 active torsions:
REMARK  status: ('A' for Active; 'I' for Inactive)
REMARK    1  A    between atoms: C_1  and  O_2
REMARK    2  A    between atoms: O_2  and  C_3
REMARK    3  A    between atoms: C_6  and  C_11
REMARK    4  A    between atoms: C_8  and  O_9
REMARK    5  A    between atoms: O_9  and  C_10
REMARK    6  A    between atoms: C_16  and  C_26
REMARK    7  A    between atoms: C_23  and  O_24
REMARK    8  A    between atoms: C_28  and  N_33
REMARK    9  A    between atoms: C_31  and  O_32
REMARK                            x       y       z     vdW  Elec       q    Type
REMARK                         _______ _______ _______ _____ _____    ______ ____
ROOT
ATOM      1  C   UNL     1      -4.987  -2.627   0.035  0.00  0.00    +0.032 C 
ATOM      2  C   UNL     1      -5.792  -2.216  -1.199  0.00  0.00    +0.059 C 
ATOM      3  C   UNL     1      -7.146  -2.888  -1.169  0.00  0.00    +0.017 C 
ATOM      4  C   UNL     1      -7.757  -3.160   0.004  0.00  0.00    +0.024 C 
ATOM      5  C   UNL     1      -9.121  -3.813   0.077  0.00  0.00    +0.096 C 
ATOM      6  C   UNL     1      -9.474  -4.396  -1.262  0.00  0.00    +0.067 A 
ATOM      7  C   UNL     1      -8.785  -4.083  -2.403  0.00  0.00    +0.126 A 
ATOM      8  N   UNL     1      -9.345  -4.762  -3.422  0.00  0.00    -0.260 N 
ATOM      9  H   UNL     1      -9.066  -4.734  -4.350  0.00  0.00    +0.190 HD
ATOM     10  N   UNL     1     -10.407  -5.518  -2.898  0.00  0.00    -0.134 NA
ATOM     11  C   UNL     1     -10.479  -5.295  -1.605  0.00  0.00    +0.237 A 
ATOM     12  N   UNL     1      -7.708  -3.205  -2.381  0.00  0.00    -0.303 N 
ATOM     13  C   UNL     1      -7.138  -2.851   1.228  0.00  0.00    +0.162 C 
ATOM     14  O   UNL     1      -7.718  -3.101   2.267  0.00  0.00    -0.292 OA
ATOM     15  C   UNL     1      -5.776  -2.218   1.284  0.00  0.00    +0.088 C 
ATOM     16  H   UNL     1      -7.361  -2.825  -3.203  0.00  0.00    +0.153 HD
ENDROOT
BRANCH   1  20
ATOM     17  C   UNL     1      -1.201  -0.638   0.010  0.00  0.00    +0.161 A 
ATOM     18  C   UNL     1      -2.374   0.099   0.019  0.00  0.00    +0.049 A 
ATOM     19  C   UNL     1      -3.596  -0.546   0.027  0.00  0.00    +0.008 A 
ATOM     20  C   UNL     1      -3.652  -1.928   0.026  0.00  0.00    -0.040 A 
ATOM     21  C   UNL     1      -2.485  -2.669   0.017  0.00  0.00    +0.053 A 
ATOM     22  C   UNL     1      -1.257  -2.028   0.003  0.00  0.00    +0.162 A 
BRANCH  17  24
ATOM     23  C   UNL     1      -0.017   1.425   0.010  0.00  0.00    +0.277 C 
ATOM     24  O   UNL     1       0.002  -0.004   0.002  0.00  0.00    -0.491 OA
ENDBRANCH  17  24
BRANCH  22  25
ATOM     25  O   UNL     1      -0.108  -2.756  -0.012  0.00  0.00    -0.491 OA
ATOM     26  C   UNL     1      -0.242  -4.179  -0.018  0.00  0.00    +0.277 C 
ENDBRANCH  22  25
ENDBRANCH   1  20
BRANCH   5  27
ATOM     27  C   UNL     1     -10.151  -2.781   0.461  0.00  0.00    +0.008 A 
ATOM     28  C   UNL     1     -10.356  -1.677  -0.344  0.00  0.00    +0.041 A 
ATOM     29  C   UNL     1     -11.301  -0.731   0.007  0.00  0.00    +0.127 A 
ATOM     30  C   UNL     1     -12.042  -0.886   1.165  0.00  0.00    +0.036 A 
ATOM     31  C   UNL     1     -11.840  -1.988   1.972  0.00  0.00    +0.048 A 
ATOM     32  C   UNL     1     -10.896  -2.942   1.619  0.00  0.00    +0.121 A 
BRANCH  29  33
ATOM     33  N   UNL     1     -11.519   0.452  -0.856  0.00  0.00    +0.056 N 
ATOM     34  O   UNL     1     -10.871   0.589  -1.868  0.00  0.00    -0.126 OA
ATOM     35  O   UNL     1     -12.344   1.280  -0.550  0.00  0.00    -0.126 OA
ENDBRANCH  29  33
BRANCH  32  36
ATOM     36  O   UNL     1     -10.699  -4.030   2.409  0.00  0.00    -0.506 OA
ATOM     37  H   UNL     1     -10.029  -3.902   3.095  0.00  0.00    +0.292 HD
ENDBRANCH  32  36
ENDBRANCH   5  27
BRANCH  11  38
ATOM     38  O   UNL     1     -11.380  -5.848  -0.749  0.00  0.00    -0.491 OA
ATOM     39  H   UNL     1     -12.193  -5.334  -0.649  0.00  0.00    +0.294 HD
ENDBRANCH  11  38
TORSDOF 7
