REMARK  Name = ZINC22607087
REMARK  1 active torsions:
REMARK  status: ('A' for Active; 'I' for Inactive)
REMARK    1  A    between atoms: C_3  and  C_7
REMARK                            x       y       z     vdW  Elec       q    Type
REMARK                         _______ _______ _______ _____ _____    ______ ____
ROOT
ATOM      1  C   UNL     1       3.696   2.049  -0.023  0.00  0.00    +0.094 C 
ATOM      2  C   UNL     1       4.441   1.676  -1.270  0.00  0.00    +0.069 A 
ATOM      3  C   UNL     1       5.452   0.767  -1.236  0.00  0.00    +0.112 A 
ATOM      4  N   UNL     1       6.105   0.445  -2.397  0.00  0.00    -0.315 N 
ATOM      5  H   UNL     1       6.826  -0.203  -2.384  0.00  0.00    +0.170 HD
ATOM      6  C   UNL     1       5.742   1.034  -3.570  0.00  0.00    +0.200 A 
ATOM      7  N   UNL     1       4.768   1.918  -3.616  0.00  0.00    -0.177 NA
ATOM      8  C   UNL     1       4.099   2.267  -2.506  0.00  0.00    +0.280 A 
ATOM      9  O   UNL     1       3.198   3.091  -2.564  0.00  0.00    -0.265 OA
ATOM     10  N   UNL     1       6.403   0.702  -4.722  0.00  0.00    -0.301 N 
ATOM     11  C   UNL     1       5.960   1.231  -6.019  0.00  0.00    +0.108 C 
ATOM     12  C   UNL     1       7.150   1.904  -6.710  0.00  0.00    +0.019 C 
ATOM     13  C   UNL     1       8.311   0.912  -6.800  0.00  0.00    +0.003 C 
ATOM     14  C   UNL     1       8.741   0.498  -5.391  0.00  0.00    +0.019 C 
ATOM     15  C   UNL     1       7.573  -0.187  -4.684  0.00  0.00    +0.108 C 
ATOM     16  N   UNL     1       5.816   0.180  -0.046  0.00  0.00    -0.304 N 
ATOM     17  C   UNL     1       5.468   0.751   1.147  0.00  0.00    +0.017 C 
ATOM     18  C   UNL     1       4.463   1.648   1.212  0.00  0.00    +0.024 C 
ATOM     19  C   UNL     1       4.096   2.236   2.436  0.00  0.00    +0.162 C 
ATOM     20  O   UNL     1       3.197   3.052   2.460  0.00  0.00    -0.292 OA
ATOM     21  C   UNL     1       4.796   1.872   3.717  0.00  0.00    +0.080 C 
ATOM     22  C   UNL     1       5.326   0.438   3.605  0.00  0.00    +0.014 C 
ATOM     23  C   UNL     1       6.237   0.355   2.383  0.00  0.00    +0.051 C 
ATOM     24  H   UNL     1       6.324  -0.646  -0.054  0.00  0.00    +0.153 HD
ENDROOT
BRANCH   1  27
ATOM     25  C   UNL     1      -0.023   1.411  -0.003  0.00  0.00    +0.020 A 
ATOM     26  C   UNL     1       1.185   2.092  -0.004  0.00  0.00    +0.007 A 
ATOM     27  C   UNL     1       2.359   1.355  -0.020  0.00  0.00    -0.017 A 
ATOM     28  C   UNL     1       2.287  -0.026  -0.035  0.00  0.00    +0.115 A 
ATOM     29  N   UNL     1       1.120  -0.640  -0.033  0.00  0.00    -0.263 NA
ATOM     30  C   UNL     1      -0.016   0.029  -0.018  0.00  0.00    +0.111 A 
ENDBRANCH   1  27
TORSDOF 1
