REMARK  Name = ZINC08135517
REMARK  4 active torsions:
REMARK  status: ('A' for Active; 'I' for Inactive)
REMARK    1  A    between atoms: C_8  and  C_10
REMARK    2  A    between atoms: C_13  and  N_16
REMARK    3  A    between atoms: C_17  and  C_19
REMARK    4  A    between atoms: C_19  and  N_20
REMARK                            x       y       z     vdW  Elec       q    Type
REMARK                         _______ _______ _______ _____ _____    ______ ____
ROOT
ATOM      1  C   UNL     1      -1.241   2.170   0.004  0.00  0.00    +0.017 A 
ATOM      2  C   UNL     1      -1.142   3.549   0.200  0.00  0.00    +0.013 A 
ATOM      3  C   UNL     1      -2.280   4.326   0.209  0.00  0.00    +0.024 A 
ATOM      4  C   UNL     1      -3.527   3.736   0.034  0.00  0.00    +0.033 A 
ATOM      5  C   UNL     1      -3.630   2.363  -0.155  0.00  0.00    +0.024 A 
ATOM      6  C   UNL     1      -2.495   1.581  -0.170  0.00  0.00    +0.013 A 
ENDROOT
BRANCH   1  14
ATOM      7  C   UNL     1       4.016  -0.820  -0.003  0.00  0.00    +0.001 A 
ATOM      8  C   UNL     1       3.179  -1.907  -0.208  0.00  0.00    +0.004 A 
ATOM      9  C   UNL     1       1.812  -1.739  -0.285  0.00  0.00    +0.047 A 
ATOM     10  C   UNL     1       1.264  -0.469  -0.157  0.00  0.00    +0.136 A 
ATOM     11  C   UNL     1       2.118   0.629   0.050  0.00  0.00    +0.021 A 
ATOM     12  C   UNL     1       3.498   0.438   0.125  0.00  0.00    +0.011 A 
ATOM     13  C   UNL     1       1.242   1.799   0.141  0.00  0.00    +0.058 A 
ATOM     14  C   UNL     1      -0.022   1.335  -0.012  0.00  0.00    +0.136 A 
ATOM     15  O   UNL     1      -0.000  -0.001  -0.187  0.00  0.00    -0.455 OA
ENDBRANCH   1  14
BRANCH   4  16
ATOM     16  N   UNL     1      -4.681   4.526   0.049  0.00  0.00    -0.284 N 
ATOM     17  C   UNL     1      -5.831   4.029   0.546  0.00  0.00    +0.239 C 
ATOM     18  O   UNL     1      -5.844   2.934   1.067  0.00  0.00    -0.273 OA
ATOM     19  H   UNL     1      -4.653   5.431  -0.297  0.00  0.00    +0.155 HD
BRANCH  17  20
ATOM     20  C   UNL     1      -7.101   4.835   0.455  0.00  0.00    +0.241 C 
BRANCH  20  21
ATOM     21  N   UNL     1      -8.202   4.082   1.061  0.00  0.00    -0.241 N 
ATOM     22  C   UNL     1      -8.875   3.181   0.323  0.00  0.00    +0.266 A 
ATOM     23  O   UNL     1      -8.569   2.996  -0.839  0.00  0.00    -0.266 OA
ATOM     24  C   UNL     1      -9.985   2.412   0.925  0.00  0.00    +0.077 A 
ATOM     25  C   UNL     1     -10.311   2.635   2.211  0.00  0.00    +0.077 A 
ATOM     26  C   UNL     1      -9.549   3.639   2.982  0.00  0.00    +0.263 A 
ATOM     27  O   UNL     1      -9.829   3.853   4.145  0.00  0.00    -0.266 OA
ATOM     28  N   UNL     1      -8.542   4.315   2.397  0.00  0.00    -0.260 N 
ATOM     29  H   UNL     1      -8.046   4.972   2.910  0.00  0.00    +0.190 HD
ENDBRANCH  20  21
ENDBRANCH  17  20
ENDBRANCH   4  16
TORSDOF 4
