REMARK  Name = ZINC65190417
REMARK  7 active torsions:
REMARK  status: ('A' for Active; 'I' for Inactive)
REMARK    1  A    between atoms: C_1  and  C_2
REMARK    2  A    between atoms: C_2  and  N_3
REMARK    3  A    between atoms: N_6  and  N_7
REMARK    4  A    between atoms: C_8  and  C_10
REMARK    5  A    between atoms: C_11  and  C_12
REMARK    6  A    between atoms: C_15  and  C_17
REMARK    7  A    between atoms: C_22  and  N_23
REMARK                            x       y       z     vdW  Elec       q    Type
REMARK                         _______ _______ _______ _____ _____    ______ ____
ROOT
ATOM      1  C   UNL     1       3.116  -0.814  -5.496  0.00  0.00    +0.070 C 
ATOM      2  C   UNL     1       3.751  -1.252  -6.613  0.00  0.00    +0.020 C 
ENDROOT
BRANCH   2   3
ATOM      3  C   UNL     1       4.267  -0.321  -7.544  0.00  0.00    +0.013 A 
ATOM      4  C   UNL     1       4.938  -0.560  -8.739  0.00  0.00    +0.016 A 
ATOM      5  C   UNL     1       5.348   0.509  -9.484  0.00  0.00    +0.017 A 
ATOM      6  C   UNL     1       5.080   1.788  -9.020  0.00  0.00    +0.022 A 
ATOM      7  S   UNL     1       4.218   1.463  -7.491  0.00  0.00    -0.089 S 
BRANCH   6   8
ATOM      8  C   UNL     1       5.418   3.087  -9.636  0.00  0.00    +0.019 A 
ATOM      9  C   UNL     1       6.719   3.338 -10.076  0.00  0.00    +0.011 A 
ATOM     10  C   UNL     1       7.027   4.554 -10.650  0.00  0.00    +0.001 A 
ATOM     11  C   UNL     1       6.050   5.524 -10.791  0.00  0.00    +0.002 A 
ATOM     12  C   UNL     1       4.759   5.282 -10.357  0.00  0.00    +0.033 A 
ATOM     13  C   UNL     1       4.435   4.068  -9.787  0.00  0.00    +0.134 A 
BRANCH  13  14
ATOM     14  N   UNL     1       3.052   3.809  -9.329  0.00  0.00    +0.057 N 
ATOM     15  O   UNL     1       2.202   4.659  -9.460  0.00  0.00    -0.126 OA
ATOM     16  O   UNL     1       2.771   2.747  -8.824  0.00  0.00    -0.126 OA
ENDBRANCH  13  14
ENDBRANCH   6   8
ENDBRANCH   2   3
BRANCH   1  18
ATOM     17  N   UNL     1       1.969  -1.311  -3.456  0.00  0.00    -0.230 N 
ATOM     18  C   UNL     1       2.600  -1.745  -4.565  0.00  0.00    +0.253 C 
ATOM     19  O   UNL     1       2.725  -2.940  -4.765  0.00  0.00    -0.269 OA
ATOM     20  H   UNL     1       1.869  -0.359  -3.296  0.00  0.00    +0.173 HD
BRANCH  17  24
ATOM     21  N   UNL     1       0.688  -0.476  -1.203  0.00  0.00    -0.298 N 
ATOM     22  C   UNL     1       0.827  -1.799  -1.425  0.00  0.00    +0.316 C 
ATOM     23  O   UNL     1       0.383  -2.599  -0.625  0.00  0.00    -0.251 OA
ATOM     24  N   UNL     1       1.458  -2.233  -2.534  0.00  0.00    -0.218 N 
ATOM     25  H   UNL     1       1.042   0.162  -1.842  0.00  0.00    +0.150 HD
ATOM     26  H   UNL     1       1.558  -3.185  -2.693  0.00  0.00    +0.174 HD
BRANCH  21  28
ATOM     27  C   UNL     1      -0.019   1.526   0.010  0.00  0.00    +0.024 C 
ATOM     28  C   UNL     1       0.002  -0.004   0.002  0.00  0.00    +0.102 C 
ENDBRANCH  21  28
ENDBRANCH  17  24
ENDBRANCH   1  18
TORSDOF 6
