REMARK  Name = ZINC15987961
REMARK  8 active torsions:
REMARK  status: ('A' for Active; 'I' for Inactive)
REMARK    1  A    between atoms: C_1  and  C_2
REMARK    2  A    between atoms: C_4  and  C_26
REMARK    3  A    between atoms: C_5  and  C_9
REMARK    4  A    between atoms: C_6  and  C_8
REMARK    5  A    between atoms: C_9  and  S_10
REMARK    6  A    between atoms: S_10  and  C_11
REMARK    7  A    between atoms: C_15  and  C_17
REMARK    8  A    between atoms: C_20  and  N_23
REMARK                            x       y       z     vdW  Elec       q    Type
REMARK                         _______ _______ _______ _____ _____    ______ ____
ROOT
ATOM      1  C   UNL     1       1.632  -6.614  -0.043  0.00  0.00    +0.167 A 
ATOM      2  N   UNL     1       2.670  -7.496  -0.048  0.00  0.00    -0.339 N 
ATOM      3  H   UNL     1       3.614  -7.273  -0.047  0.00  0.00    +0.167 HD
ATOM      4  C   UNL     1       2.132  -8.760  -0.054  0.00  0.00    +0.113 A 
ATOM      5  C   UNL     1       0.784  -8.615  -0.052  0.00  0.00    +0.090 A 
ATOM      6  N   UNL     1       0.507  -7.287  -0.040  0.00  0.00    -0.222 NA
ENDROOT
BRANCH   5   7
ATOM      7  C   UNL     1      -0.212  -9.714  -0.058  0.00  0.00    +0.002 A 
ATOM      8  C   UNL     1       0.212 -11.042  -0.059  0.00  0.00    +0.012 A 
ATOM      9  C   UNL     1      -0.719 -12.061  -0.064  0.00  0.00    +0.033 A 
ATOM     10  C   UNL     1      -2.071 -11.766  -0.068  0.00  0.00    +0.126 A 
ATOM     11  C   UNL     1      -2.497 -10.450  -0.067  0.00  0.00    +0.033 A 
ATOM     12  C   UNL     1      -1.575  -9.424  -0.055  0.00  0.00    +0.012 A 
BRANCH  10  13
ATOM     13  N   UNL     1      -3.065 -12.864  -0.074  0.00  0.00    +0.056 N 
ATOM     14  O   UNL     1      -2.695 -14.015  -0.076  0.00  0.00    -0.126 OA
ATOM     15  O   UNL     1      -4.247 -12.609  -0.077  0.00  0.00    -0.126 OA
ENDBRANCH  10  13
ENDBRANCH   5   7
BRANCH   1  16
ATOM     16  S   UNL     1       1.777  -4.858  -0.034  0.00  0.00    -0.083 S 
BRANCH  16  17
ATOM     17  C   UNL     1       0.059  -4.275  -0.021  0.00  0.00    +0.113 C 
BRANCH  17  22
ATOM     18  C   UNL     1      -0.018   1.503   0.010  0.00  0.00    +0.044 C 
ATOM     19  C   UNL     1       0.002  -0.004   0.002  0.00  0.00    -0.050 A 
ATOM     20  C   UNL     1       0.006  -0.689  -1.199  0.00  0.00    +0.007 A 
ATOM     21  C   UNL     1       0.025  -2.071  -1.206  0.00  0.00    -0.046 A 
ATOM     22  C   UNL     1       0.040  -2.768  -0.013  0.00  0.00    -0.031 A 
ATOM     23  C   UNL     1       0.037  -2.084   1.188  0.00  0.00    -0.046 A 
ATOM     24  C   UNL     1       0.023  -0.702   1.195  0.00  0.00    +0.007 A 
ATOM     25  C   UNL     1       0.054  -2.844   2.489  0.00  0.00    +0.044 C 
ATOM     26  C   UNL     1       0.027  -2.817  -2.516  0.00  0.00    +0.044 C 
ENDBRANCH  17  22
ENDBRANCH  16  17
ENDBRANCH   1  16
TORSDOF 5
