REMARK  Name = ZINC02870258
REMARK  8 active torsions:
REMARK  status: ('A' for Active; 'I' for Inactive)
REMARK    1  A    between atoms: C_4  and  O_23
REMARK    2  A    between atoms: C_5  and  N_7
REMARK    3  A    between atoms: C_8  and  C_10
REMARK    4  A    between atoms: N_12  and  N_13
REMARK    5  A    between atoms: C_14  and  C_15
REMARK    6  A    between atoms: C_20  and  O_21
REMARK    7  A    between atoms: O_23  and  C_24
REMARK    8  A    between atoms: C_24  and  C_25
REMARK                            x       y       z     vdW  Elec       q    Type
REMARK                         _______ _______ _______ _____ _____    ______ ____
ROOT
ATOM      1  N   UNL     1       1.235  -2.080  -0.022  0.00  0.00    -0.275 N 
ATOM      2  C   UNL     1       0.084  -2.772   0.087  0.00  0.00    +0.305 C 
ATOM      3  O   UNL     1      -0.978  -2.185   0.102  0.00  0.00    -0.265 OA
ATOM      4  H   UNL     1       2.078  -2.551  -0.115  0.00  0.00    +0.155 HD
ENDROOT
BRANCH   1   9
ATOM      5  C   UNL     1       0.153   1.372   0.637  0.00  0.00    +0.002 A 
ATOM      6  C   UNL     1       1.172   2.088   0.036  0.00  0.00    +0.004 A 
ATOM      7  C   UNL     1       2.214   1.427  -0.586  0.00  0.00    +0.048 A 
ATOM      8  C   UNL     1       2.241   0.042  -0.608  0.00  0.00    +0.148 A 
ATOM      9  C   UNL     1       1.215  -0.681  -0.002  0.00  0.00    +0.076 A 
ATOM     10  C   UNL     1       0.172  -0.009   0.620  0.00  0.00    +0.027 A 
BRANCH   8  11
ATOM     11  O   UNL     1       3.265  -0.611  -1.220  0.00  0.00    -0.426 OA
BRANCH  11  12
ATOM     12  C   UNL     1       4.281   0.195  -1.821  0.00  0.00    +0.463 C 
ATOM     13  F   UNL     1       3.710   1.007  -2.806  0.00  0.00    -0.158 F 
ATOM     14  F   UNL     1       4.878   0.998  -0.843  0.00  0.00    -0.158 F 
BRANCH  12  15
ATOM     15  C   UNL     1       5.340  -0.709  -2.455  0.00  0.00    +0.453 C 
ATOM     16  F   UNL     1       4.743  -1.512  -3.433  0.00  0.00    -0.198 F 
ATOM     17  F   UNL     1       6.335   0.080  -3.042  0.00  0.00    -0.198 F 
ENDBRANCH  12  15
ENDBRANCH  11  12
ENDBRANCH   8  11
ENDBRANCH   1   9
BRANCH   2  18
ATOM     18  C   UNL     1       0.116  -4.259   0.190  0.00  0.00    +0.318 C 
ATOM     19  O   UNL     1       1.179  -4.846   0.176  0.00  0.00    -0.263 OA
ATOM     20  N   UNL     1      -1.035  -4.952   0.300  0.00  0.00    -0.199 N 
ATOM     21  H   UNL     1      -1.884  -4.483   0.311  0.00  0.00    +0.178 HD
BRANCH  20  22
ATOM     22  N   UNL     1      -1.005  -6.349   0.397  0.00  0.00    -0.187 NA
ATOM     23  C   UNL     1      -2.115  -7.017   0.502  0.00  0.00    +0.142 C 
BRANCH  23  24
ATOM     24  C   UNL     1      -2.083  -8.486   0.604  0.00  0.00    +0.037 A 
ATOM     25  C   UNL     1      -3.275  -9.208   0.712  0.00  0.00    +0.028 A 
ATOM     26  C   UNL     1      -3.238 -10.584   0.806  0.00  0.00    +0.019 A 
ATOM     27  C   UNL     1      -2.024 -11.253   0.795  0.00  0.00    +0.019 A 
ATOM     28  C   UNL     1      -0.840 -10.549   0.689  0.00  0.00    +0.047 A 
ATOM     29  C   UNL     1      -0.858  -9.168   0.588  0.00  0.00    +0.126 A 
ATOM     30 BR   UNL     1      -4.850 -11.561   0.953  0.00  0.00    -0.050 Br
BRANCH  29  31
ATOM     31  O   UNL     1       0.305  -8.476   0.478  0.00  0.00    -0.506 OA
ATOM     32  H   UNL     1       0.689  -8.214   1.326  0.00  0.00    +0.292 HD
ENDBRANCH  29  31
ENDBRANCH  23  24
ENDBRANCH  20  22
ENDBRANCH   2  18
TORSDOF 8
