REMARK  Name = ZINC21444067
REMARK  9 active torsions:
REMARK  status: ('A' for Active; 'I' for Inactive)
REMARK    1  A    between atoms: C_1  and  C_2
REMARK    2  A    between atoms: C_4  and  C_31
REMARK    3  A    between atoms: C_5  and  N_9
REMARK    4  A    between atoms: C_10  and  C_12
REMARK    5  A    between atoms: C_12  and  O_13
REMARK    6  A    between atoms: O_13  and  C_14
REMARK    7  A    between atoms: C_14  and  C_16
REMARK    8  A    between atoms: C_16  and  N_17
REMARK    9  A    between atoms: C_26  and  C_28
REMARK                            x       y       z     vdW  Elec       q    Type
REMARK                         _______ _______ _______ _____ _____    ______ ____
ROOT
ATOM      1  C   UNL     1       1.744   0.446   2.836  0.00  0.00    +0.329 C 
ATOM      2  O   UNL     1       2.023  -0.317   1.942  0.00  0.00    -0.249 OA
ENDROOT
BRANCH   1   3
ATOM      3  O   UNL     1       1.692   1.766   2.599  0.00  0.00    -0.454 OA
BRANCH   3   4
ATOM      4  C   UNL     1       1.984   2.205   1.246  0.00  0.00    +0.328 C 
BRANCH   4   6
ATOM      5  N   UNL     1       2.108   4.341   0.005  0.00  0.00    -0.281 N 
ATOM      6  C   UNL     1       1.878   3.707   1.172  0.00  0.00    +0.255 C 
ATOM      7  O   UNL     1       1.586   4.344   2.161  0.00  0.00    -0.272 OA
ATOM      8  H   UNL     1       2.454   3.773  -0.871  0.00  0.00    +0.155 HD
BRANCH   5  13
ATOM      9  C   UNL     1       1.298   9.944  -0.386  0.00  0.00    +0.044 C 
ATOM     10  C   UNL     1       1.512   8.456  -0.282  0.00  0.00    -0.049 A 
ATOM     11  C   UNL     1       2.768   7.959   0.014  0.00  0.00    +0.008 A 
ATOM     12  C   UNL     1       2.969   6.596   0.110  0.00  0.00    -0.028 A 
ATOM     13  C   UNL     1       1.908   5.723  -0.091  0.00  0.00    +0.055 A 
ATOM     14  C   UNL     1       0.648   6.225  -0.394  0.00  0.00    +0.063 A 
ATOM     15  C   UNL     1       0.453   7.590  -0.484  0.00  0.00    +0.025 A 
ATOM     16 CL   UNL     1      -0.681   5.138  -0.654  0.00  0.00    -0.082 Cl
ATOM     17  C   UNL     1       4.338   6.056   0.434  0.00  0.00    +0.046 C 
ENDBRANCH   5  13
ENDBRANCH   4   6
ENDBRANCH   3   4
ENDBRANCH   1   3
BRANCH   1  18
ATOM     18  C   UNL     1       1.453  -0.084   4.216  0.00  0.00    +0.267 C 
BRANCH  18  19
ATOM     19  N   UNL     1       1.574  -1.544   4.215  0.00  0.00    -0.217 N 
ATOM     20  C   UNL     1       2.779  -2.085   4.487  0.00  0.00    +0.276 A 
ATOM     21  O   UNL     1       3.740  -1.377   4.728  0.00  0.00    -0.266 OA
ATOM     22  C   UNL     1       2.905  -3.549   4.492  0.00  0.00    +0.050 A 
ATOM     23  C   UNL     1       4.101  -4.205   4.765  0.00  0.00    +0.014 A 
ATOM     24  C   UNL     1       4.136  -5.583   4.744  0.00  0.00    +0.001 A 
ATOM     25  C   UNL     1       2.994  -6.318   4.454  0.00  0.00    +0.001 A 
ATOM     26  C   UNL     1       1.799  -5.687   4.180  0.00  0.00    +0.011 A 
ATOM     27  C   UNL     1       1.742  -4.298   4.196  0.00  0.00    +0.020 A 
ATOM     28  C   UNL     1       0.507  -3.547   3.915  0.00  0.00    +0.153 A 
ATOM     29  N   UNL     1       0.532  -2.237   3.949  0.00  0.00    -0.162 NA
BRANCH  28  30
ATOM     30  C   UNL     1      -0.746  -4.262   3.599  0.00  0.00    +0.262 C 
ATOM     31  O   UNL     1      -0.761  -5.478   3.570  0.00  0.00    -0.269 OA
ATOM     32  N   UNL     1      -1.872  -3.568   3.344  0.00  0.00    -0.324 N 
ATOM     33  H   UNL     1      -2.805  -4.100   3.108  0.00  0.00    +0.145 HD
ATOM     34  H   UNL     1      -1.858  -2.468   3.370  0.00  0.00    +0.145 HD
ENDBRANCH  28  30
ENDBRANCH  18  19
ENDBRANCH   1  18
TORSDOF 7
