REMARK  Name = ZINC24895371
REMARK  11 active torsions:
REMARK  status: ('A' for Active; 'I' for Inactive)
REMARK    1  A    between atoms: C_1  and  N_2
REMARK    2  A    between atoms: N_2  and  C_3
REMARK    3  A    between atoms: C_6  and  N_31
REMARK    4  A    between atoms: C_8  and  C_9
REMARK    5  A    between atoms: N_11  and  C_12
REMARK    6  A    between atoms: C_14  and  S_19
REMARK    7  A    between atoms: C_17  and  O_18
REMARK    8  A    between atoms: S_19  and  N_22
REMARK    9  A    between atoms: N_22  and  C_23
REMARK   10  A    between atoms: C_28  and  O_29
REMARK   11  A    between atoms: O_29  and  C_30
REMARK                            x       y       z     vdW  Elec       q    Type
REMARK                         _______ _______ _______ _____ _____    ______ ____
ROOT
ATOM      1  C   UNL     1       1.852  -0.127  -0.459  0.00  0.00    +0.077 A 
ATOM      2  C   UNL     1       0.543   0.316  -0.343  0.00  0.00    +0.055 A 
ATOM      3  C   UNL     1       0.264   1.668  -0.395  0.00  0.00    +0.110 A 
ATOM      4  C   UNL     1       1.287   2.583  -0.562  0.00  0.00    +0.032 A 
ATOM      5  C   UNL     1       2.595   2.149  -0.677  0.00  0.00    +0.049 A 
ATOM      6  C   UNL     1       2.883   0.795  -0.626  0.00  0.00    +0.138 A 
ENDROOT
BRANCH   1   9
ATOM      7  C   UNL     1       1.171  -2.398  -0.672  0.00  0.00    +0.250 C 
ATOM      8  O   UNL     1       0.080  -2.022  -1.056  0.00  0.00    -0.270 OA
ATOM      9  N   UNL     1       2.138  -1.497  -0.406  0.00  0.00    -0.278 N 
ATOM     10  H   UNL     1       3.151  -1.839  -0.147  0.00  0.00    +0.155 HD
BRANCH   7  16
ATOM     11  C   UNL     1       0.465  -4.783  -0.862  0.00  0.00    +0.039 A 
ATOM     12  C   UNL     1       0.729  -6.137  -0.696  0.00  0.00    +0.026 A 
ATOM     13  C   UNL     1       1.935  -6.547  -0.166  0.00  0.00    +0.034 A 
ATOM     14  C   UNL     1       2.893  -5.615   0.200  0.00  0.00    +0.127 A 
ATOM     15  C   UNL     1       2.652  -4.268   0.039  0.00  0.00    +0.047 A 
ATOM     16  C   UNL     1       1.435  -3.837  -0.497  0.00  0.00    +0.060 A 
BRANCH  11  18
ATOM     17  C   UNL     1      -1.700  -5.357  -1.908  0.00  0.00    +0.125 C 
ATOM     18  N   UNL     1      -0.750  -4.368  -1.390  0.00  0.00    -0.346 N 
ATOM     19  H   UNL     1      -1.000  -3.298  -1.420  0.00  0.00    +0.146 HD
ENDBRANCH  11  18
BRANCH  14  20
ATOM     20  N   UNL     1       4.183  -6.069   0.768  0.00  0.00    +0.056 N 
ATOM     21  O   UNL     1       5.027  -5.252   1.091  0.00  0.00    -0.126 OA
ATOM     22  O   UNL     1       4.400  -7.259   0.912  0.00  0.00    -0.126 OA
ENDBRANCH  14  20
ENDBRANCH   7  16
ENDBRANCH   1   9
BRANCH   3  23
ATOM     23  S   UNL     1      -1.401   2.228  -0.256  0.00  0.00    +0.073 S 
ATOM     24  O   UNL     1      -1.454   3.503  -0.881  0.00  0.00    -0.150 OA
ATOM     25  O   UNL     1      -2.229   1.146  -0.661  0.00  0.00    -0.150 OA
BRANCH  23  26
ATOM     26  N   UNL     1      -1.701   2.478   1.353  0.00  0.00    -0.213 N 
ATOM     27  H   UNL     1      -2.499   1.913   1.858  0.00  0.00    +0.174 HD
BRANCH  26  28
ATOM     28  C   UNL     1      -0.940   3.407   2.071  0.00  0.00    +0.090 A 
ATOM     29  C   UNL     1      -0.507   4.574   1.458  0.00  0.00    +0.028 A 
ATOM     30  C   UNL     1       0.241   5.492   2.171  0.00  0.00    +0.002 A 
ATOM     31  C   UNL     1       0.568   5.246   3.491  0.00  0.00    +0.004 A 
ATOM     32  C   UNL     1       0.145   4.083   4.107  0.00  0.00    +0.047 A 
ATOM     33  C   UNL     1      -0.609   3.160   3.402  0.00  0.00    +0.142 A 
BRANCH  33  34
ATOM     34  O   UNL     1      -1.025   2.014   4.006  0.00  0.00    -0.493 OA
ATOM     35  C   UNL     1      -0.648   1.828   5.372  0.00  0.00    +0.277 C 
ENDBRANCH  33  34
ENDBRANCH  26  28
ENDBRANCH  23  26
ENDBRANCH   3  23
BRANCH   6  36
ATOM     36  O   UNL     1       4.169   0.367  -0.739  0.00  0.00    -0.505 OA
ATOM     37  H   UNL     1       4.982   1.096  -0.872  0.00  0.00    +0.292 HD
ENDBRANCH   6  36
TORSDOF 9
