REMARK  Name = ZINC63394142
REMARK  5 active torsions:
REMARK  status: ('A' for Active; 'I' for Inactive)
REMARK    1  A    between atoms: C_4  and  O_7
REMARK    2  A    between atoms: O_7  and  C_8
REMARK    3  A    between atoms: C_13  and  C_14
REMARK    4  A    between atoms: C_14  and  N_15
REMARK    5  A    between atoms: N_18  and  C_19
REMARK                            x       y       z     vdW  Elec       q    Type
REMARK                         _______ _______ _______ _____ _____    ______ ____
ROOT
ATOM      1  N   UNL     1       6.201  -1.203   1.445  0.00  0.00    -0.295 N 
ATOM      2  C   UNL     1       7.332  -0.508   1.678  0.00  0.00    +0.300 C 
ATOM      3  O   UNL     1       8.016  -0.130   0.747  0.00  0.00    -0.253 OA
ATOM      4  N   UNL     1       7.704  -0.231   2.943  0.00  0.00    -0.288 N 
ATOM      5  H   UNL     1       5.656  -1.505   2.188  0.00  0.00    +0.151 HD
ATOM      6  H   UNL     1       7.159  -0.532   3.687  0.00  0.00    +0.151 HD
ENDROOT
BRANCH   4   7
ATOM      7  C   UNL     1       8.933   0.526   3.196  0.00  0.00    +0.160 C 
ATOM      8  C   UNL     1       9.344   0.364   4.662  0.00  0.00    +0.032 C 
ATOM      9  C   UNL     1       8.121   0.275   5.557  0.00  0.00    +0.004 C 
ATOM     10  C   UNL     1       7.312   1.558   5.618  0.00  0.00    +0.019 C 
ATOM     11  C   UNL     1       6.662   1.857   4.266  0.00  0.00    +0.104 C 
ATOM     12  N   UNL     1       7.621   2.605   3.437  0.00  0.00    -0.314 N 
ATOM     13  C   UNL     1       8.691   1.996   2.925  0.00  0.00    +0.233 C 
ATOM     14  O   UNL     1       9.473   2.620   2.240  0.00  0.00    -0.274 OA
ATOM     15  H   UNL     1       7.474   3.548   3.263  0.00  0.00    +0.149 HD
ENDBRANCH   4   7
BRANCH   1  16
ATOM     16  C   UNL     1       5.797  -1.504   0.070  0.00  0.00    +0.144 C 
BRANCH  16  22
ATOM     17  C   UNL     1       3.299  -1.628   0.260  0.00  0.00    +0.133 A 
ATOM     18  C   UNL     1       2.114  -2.350   0.268  0.00  0.00    +0.046 A 
ATOM     19  C   UNL     1       2.141  -3.722   0.108  0.00  0.00    +0.004 A 
ATOM     20  C   UNL     1       3.348  -4.376  -0.061  0.00  0.00    +0.001 A 
ATOM     21  C   UNL     1       4.530  -3.659  -0.069  0.00  0.00    +0.009 A 
ATOM     22  C   UNL     1       4.508  -2.286   0.085  0.00  0.00    +0.012 A 
BRANCH  17  23
ATOM     23  O   UNL     1       3.275  -0.279   0.417  0.00  0.00    -0.456 OA
BRANCH  23  27
ATOM     24  C   UNL     1      -0.349   1.511   1.240  0.00  0.00    +0.000 A 
ATOM     25  C   UNL     1       0.256   0.709   2.190  0.00  0.00    +0.004 A 
ATOM     26  C   UNL     1       1.469   0.108   1.917  0.00  0.00    +0.046 A 
ATOM     27  C   UNL     1       2.081   0.311   0.688  0.00  0.00    +0.128 A 
ATOM     28  C   UNL     1       1.472   1.116  -0.263  0.00  0.00    +0.046 A 
ATOM     29  C   UNL     1       0.258   1.715   0.015  0.00  0.00    +0.004 A 
ENDBRANCH  23  27
ENDBRANCH  17  23
ENDBRANCH  16  22
ENDBRANCH   1  16
TORSDOF 5
