REMARK  Name = ZINC43735328
REMARK  10 active torsions:
REMARK  status: ('A' for Active; 'I' for Inactive)
REMARK    1  A    between atoms: C_1  and  C_2
REMARK    2  A    between atoms: C_8  and  C_31
REMARK    3  A    between atoms: C_12  and  C_14
REMARK    4  A    between atoms: C_12  and  C_17
REMARK    5  A    between atoms: C_14  and  C_15
REMARK    6  A    between atoms: C_15  and  O_16
REMARK    7  A    between atoms: C_17  and  O_18
REMARK    8  A    between atoms: C_23  and  C_30
REMARK    9  A    between atoms: C_26  and  C_28
REMARK   10  A    between atoms: C_26  and  C_29
REMARK                            x       y       z     vdW  Elec       q    Type
REMARK                         _______ _______ _______ _____ _____    ______ ____
ROOT
ATOM      1  C   UNL     1       0.180   1.532  -0.023  0.00  0.00    +0.010 C 
ATOM      2  C   UNL     1       0.131  -0.004  -0.005  0.00  0.00    +0.018 C 
ATOM      3  C   UNL     1      -1.221  -0.468  -0.011  0.00  0.00    +0.006 C 
ATOM      4  C   UNL     1      -1.847  -0.453   1.389  0.00  0.00    +0.005 C 
ATOM      5  C   UNL     1      -1.028  -1.300   2.313  0.00  0.00    +0.008 C 
ATOM      6  C   UNL     1       0.398  -0.636   2.487  0.00  0.00    +0.001 C 
ATOM      7  C   UNL     1       1.038  -0.587   1.110  0.00  0.00    +0.079 C 
ATOM      8  C   UNL     1       1.368  -2.019   0.648  0.00  0.00    +0.039 C 
ATOM      9  C   UNL     1       2.577  -1.709  -0.336  0.00  0.00    +0.040 C 
ATOM     10  C   UNL     1       3.263  -0.429   0.323  0.00  0.00    +0.095 C 
ATOM     11  O   UNL     1       2.310   0.102   1.233  0.00  0.00    -0.364 OA
ATOM     12  C   UNL     1       1.305  -1.362   3.372  0.00  0.00    +0.012 C 
ATOM     13  C   UNL     1       0.498  -2.286   4.426  0.00  0.00    +0.033 C 
ATOM     14  C   UNL     1      -0.732  -1.565   4.809  0.00  0.00    +0.130 C 
ATOM     15  C   UNL     1      -1.698  -1.538   3.618  0.00  0.00    +0.021 C 
ATOM     16  C   UNL     1      -2.756  -0.483   3.996  0.00  0.00    +0.172 C 
ATOM     17  O   UNL     1      -3.448  -1.064   5.207  0.00  0.00    -0.349 OA
ATOM     18  C   UNL     1      -2.618  -1.317   6.322  0.00  0.00    +0.165 C 
ATOM     19  O   UNL     1      -1.428  -2.039   5.934  0.00  0.00    -0.345 OA
ATOM     20  C   UNL     1      -2.169  -0.080   7.006  0.00  0.00    +0.074 C 
ATOM     21  C   UNL     1      -3.376  -2.131   7.321  0.00  0.00    +0.074 C 
ATOM     22  C   UNL     1      -2.329  -2.942   3.598  0.00  0.00    +0.016 C 
ATOM     23  C   UNL     1       0.220   0.820   3.016  0.00  0.00    +0.014 C 
ENDROOT
BRANCH  10  24
ATOM     24  C   UNL     1       3.670   0.487  -0.738  0.00  0.00    +0.065 C 
BRANCH  24  25
ATOM     25  C   UNL     1       4.582  -0.246  -1.723  0.00  0.00    +0.158 C 
BRANCH  25  26
ATOM     26  O   UNL     1       5.062   0.675  -2.704  0.00  0.00    -0.395 OA
ATOM     27  H   UNL     1       5.648   0.278  -3.363  0.00  0.00    +0.209 HD
ENDBRANCH  25  26
ENDBRANCH  24  25
ENDBRANCH  10  24
BRANCH  10  28
ATOM     28  C   UNL     1       4.478  -0.854   1.122  0.00  0.00    +0.190 C 
BRANCH  28  29
ATOM     29  O   UNL     1       5.149   0.305   1.622  0.00  0.00    -0.392 OA
ATOM     30  H   UNL     1       5.938   0.108   2.144  0.00  0.00    +0.210 HD
ENDBRANCH  28  29
ENDBRANCH  10  28
TORSDOF 5
