REMARK  Name = ZINC39653832
REMARK  9 active torsions:
REMARK  status: ('A' for Active; 'I' for Inactive)
REMARK    1  A    between atoms: C_1  and  C_2
REMARK    2  A    between atoms: C_2  and  O_3
REMARK    3  A    between atoms: O_3  and  C_4
REMARK    4  A    between atoms: C_7  and  C_10
REMARK    5  A    between atoms: C_10  and  C_11
REMARK    6  A    between atoms: C_11  and  N_12
REMARK    7  A    between atoms: C_13  and  C_15
REMARK    8  A    between atoms: C_26  and  C_28
REMARK    9  A    between atoms: C_28  and  C_34
REMARK                            x       y       z     vdW  Elec       q    Type
REMARK                         _______ _______ _______ _____ _____    ______ ____
ROOT
ATOM      1  C   UNL     1       3.504 -10.666   1.086  0.00  0.00    +0.100 C 
ATOM      2  C   UNL     1       2.238 -11.091   0.308  0.00  0.00    +0.121 C 
ATOM      3  N   UNL     1       2.729 -11.432  -1.048  0.00  0.00    -0.300 N 
ATOM      4  C   UNL     1       4.017 -12.128  -0.810  0.00  0.00    +0.115 C 
ATOM      5  C   UNL     1       4.668 -11.351   0.352  0.00  0.00    -0.004 C 
ATOM      6  C   UNL     1       5.392 -12.312   1.290  0.00  0.00    -0.010 C 
ATOM      7  C   UNL     1       6.581 -12.937   0.554  0.00  0.00    -0.082 C 
ATOM      8  N   UNL     1       7.494 -11.878   0.107  0.00  0.00    +0.379 N 
ATOM      9  C   UNL     1       6.817 -11.013  -0.867  0.00  0.00    -0.082 C 
ATOM     10  C   UNL     1       5.638 -10.306  -0.192  0.00  0.00    -0.010 C 
ATOM     11  C   UNL     1       2.139 -11.168  -2.230  0.00  0.00    +0.222 C 
ATOM     12  O   UNL     1       1.117 -10.517  -2.266  0.00  0.00    -0.275 OA
ATOM     13  H   UNL     1       7.783 -11.327   0.901  0.00  0.00    -0.086 HD
ATOM     14  H   UNL     1       8.306 -12.296  -0.323  0.00  0.00    -0.086 HD
ENDROOT
BRANCH  11  15
ATOM     15  C   UNL     1       2.749 -11.684  -3.508  0.00  0.00    +0.044 C 
ATOM     16  C   UNL     1       4.090 -10.987  -3.750  0.00  0.00    +0.016 C 
ATOM     17  C   UNL     1       3.868  -9.478  -3.863  0.00  0.00    +0.001 C 
ATOM     18  C   UNL     1       2.924  -9.188  -5.032  0.00  0.00    +0.000 C 
ATOM     19  C   UNL     1       1.584  -9.884  -4.790  0.00  0.00    +0.001 C 
ATOM     20  C   UNL     1       1.806 -11.393  -4.677  0.00  0.00    +0.016 C 
ATOM     21  C   UNL     1       2.972 -13.193  -3.395  0.00  0.00    +0.021 C 
ENDBRANCH  11  15
BRANCH   1  23
ATOM     22  N   UNL     1       4.277  -8.528   2.062  0.00  0.00    -0.315 N 
ATOM     23  C   UNL     1       3.666  -9.168   1.045  0.00  0.00    +0.218 C 
ATOM     24  O   UNL     1       3.247  -8.539   0.097  0.00  0.00    -0.275 OA
ATOM     25  H   UNL     1       4.613  -9.032   2.820  0.00  0.00    +0.149 HD
BRANCH  22  26
ATOM     26  C   UNL     1       4.435  -7.072   2.022  0.00  0.00    +0.109 C 
BRANCH  26  27
ATOM     27  C   UNL     1       5.156  -6.603   3.287  0.00  0.00    +0.054 C 
BRANCH  27  31
ATOM     28  C   UNL     1       5.617  -2.356   3.171  0.00  0.00    +0.121 A 
ATOM     29  C   UNL     1       4.484  -2.916   3.744  0.00  0.00    +0.046 A 
ATOM     30  C   UNL     1       4.338  -4.290   3.780  0.00  0.00    +0.007 A 
ATOM     31  C   UNL     1       5.318  -5.105   3.246  0.00  0.00    -0.046 A 
ATOM     32  C   UNL     1       6.448  -4.549   2.675  0.00  0.00    +0.007 A 
ATOM     33  C   UNL     1       6.596  -3.176   2.631  0.00  0.00    +0.046 A 
BRANCH  28  34
ATOM     34  O   UNL     1       5.763  -1.005   3.134  0.00  0.00    -0.492 OA
BRANCH  34  36
ATOM     35  C   UNL     1       5.054   1.263   3.574  0.00  0.00    +0.048 C 
ATOM     36  C   UNL     1       4.715  -0.223   3.709  0.00  0.00    +0.225 C 
ENDBRANCH  34  36
ENDBRANCH  28  34
ENDBRANCH  27  31
ENDBRANCH  26  27
ENDBRANCH  22  26
ENDBRANCH   1  23
TORSDOF 7
