REMARK  Name = ZINC63281118
REMARK  8 active torsions:
REMARK  status: ('A' for Active; 'I' for Inactive)
REMARK    1  A    between atoms: C_1  and  O_2
REMARK    2  A    between atoms: O_2  and  C_3
REMARK    3  A    between atoms: C_6  and  C_11
REMARK    4  A    between atoms: C_8  and  O_9
REMARK    5  A    between atoms: O_9  and  C_10
REMARK    6  A    between atoms: C_11  and  N_12
REMARK    7  A    between atoms: C_13  and  C_15
REMARK    8  A    between atoms: C_22  and  C_24
REMARK                            x       y       z     vdW  Elec       q    Type
REMARK                         _______ _______ _______ _____ _____    ______ ____
ROOT
ATOM      1  C   UNL     1      -7.061  -3.697  -2.999  0.00  0.00    +0.092 C 
ATOM      2  C   UNL     1      -7.195  -2.353  -3.719  0.00  0.00    +0.016 C 
ATOM      3  C   UNL     1      -7.626  -2.589  -5.168  0.00  0.00    +0.020 C 
ATOM      4  C   UNL     1      -8.991  -3.285  -5.184  0.00  0.00    +0.108 C 
ATOM      5  N   UNL     1      -8.908  -4.507  -4.373  0.00  0.00    -0.299 N 
ATOM      6  C   UNL     1      -8.419  -4.407  -2.991  0.00  0.00    +0.120 C 
ATOM      7  C   UNL     1      -9.274  -5.698  -4.886  0.00  0.00    +0.242 C 
ATOM      8  O   UNL     1      -9.202  -6.700  -4.206  0.00  0.00    -0.273 OA
ENDROOT
BRANCH   7   9
ATOM      9  C   UNL     1      -9.775  -5.785  -6.305  0.00  0.00    +0.190 C 
ATOM     10  C   UNL     1      -8.690  -5.355  -7.267  0.00  0.00    +0.016 C 
ATOM     11  C   UNL     1      -8.443  -6.426  -8.056  0.00  0.00    -0.004 A 
ATOM     12  C   UNL     1      -7.513  -6.646  -9.170  0.00  0.00    +0.010 A 
ATOM     13  C   UNL     1      -7.493  -7.853  -9.779  0.00  0.00    +0.001 A 
ATOM     14  C   UNL     1      -8.338  -8.896  -9.375  0.00  0.00    +0.002 A 
ATOM     15  C   UNL     1      -9.219  -8.770  -8.360  0.00  0.00    +0.026 A 
ATOM     16  C   UNL     1      -9.324  -7.543  -7.649  0.00  0.00    +0.043 A 
ATOM     17  N   UNL     1     -10.088  -7.178  -6.646  0.00  0.00    -0.370 N 
ATOM     18  H   UNL     1     -10.748  -7.734  -6.204  0.00  0.00    +0.161 HD
ENDBRANCH   7   9
BRANCH   1  20
ATOM     19  N   UNL     1      -5.430  -2.852  -1.343  0.00  0.00    -0.311 N 
ATOM     20  C   UNL     1      -6.605  -3.466  -1.582  0.00  0.00    +0.218 C 
ATOM     21  O   UNL     1      -7.297  -3.833  -0.655  0.00  0.00    -0.275 OA
ATOM     22  H   UNL     1      -4.877  -2.559  -2.084  0.00  0.00    +0.149 HD
BRANCH  19  23
ATOM     23  C   UNL     1      -4.987  -2.627   0.035  0.00  0.00    +0.139 C 
BRANCH  23  27
ATOM     24  C   UNL     1      -1.201  -0.638   0.010  0.00  0.00    +0.162 A 
ATOM     25  C   UNL     1      -2.374   0.099   0.019  0.00  0.00    +0.050 A 
ATOM     26  C   UNL     1      -3.596  -0.546   0.027  0.00  0.00    +0.009 A 
ATOM     27  C   UNL     1      -3.652  -1.928   0.026  0.00  0.00    -0.027 A 
ATOM     28  C   UNL     1      -2.485  -2.669   0.017  0.00  0.00    +0.054 A 
ATOM     29  C   UNL     1      -1.257  -2.028   0.003  0.00  0.00    +0.162 A 
BRANCH  24  31
ATOM     30  C   UNL     1      -0.017   1.425   0.010  0.00  0.00    +0.277 C 
ATOM     31  O   UNL     1       0.002  -0.004   0.002  0.00  0.00    -0.491 OA
ENDBRANCH  24  31
BRANCH  29  32
ATOM     32  O   UNL     1      -0.108  -2.756  -0.012  0.00  0.00    -0.491 OA
ATOM     33  C   UNL     1      -0.242  -4.179  -0.018  0.00  0.00    +0.277 C 
ENDBRANCH  29  32
ENDBRANCH  23  27
ENDBRANCH  19  23
ENDBRANCH   1  20
TORSDOF 6
