REMARK  Name = ZINC17098013
REMARK  4 active torsions:
REMARK  status: ('A' for Active; 'I' for Inactive)
REMARK    1  A    between atoms: C_7  and  C_9
REMARK    2  A    between atoms: C_13  and  N_14
REMARK    3  A    between atoms: C_15  and  C_17
REMARK    4  A    between atoms: C_25  and  C_27
REMARK                            x       y       z     vdW  Elec       q    Type
REMARK                         _______ _______ _______ _____ _____    ______ ____
ROOT
ATOM      1  C   UNL     1      -2.351  -0.252   5.598  0.00  0.00    +0.069 A 
ATOM      2  C   UNL     1      -2.621  -1.510   6.274  0.00  0.00    -0.023 A 
ATOM      3  C   UNL     1      -2.311  -2.619   5.568  0.00  0.00    -0.004 A 
ATOM      4  S   UNL     1      -1.679  -2.015   4.029  0.00  0.00    -0.077 S 
ATOM      5  C   UNL     1      -1.812  -0.312   4.321  0.00  0.00    +0.084 A 
ATOM      6  C   UNL     1      -2.478  -4.042   6.003  0.00  0.00    +0.043 C 
ATOM      7  C   UNL     1      -2.707  -4.060   7.522  0.00  0.00    +0.005 C 
ATOM      8  C   UNL     1      -3.774  -3.019   7.872  0.00  0.00    +0.005 C 
ATOM      9  C   UNL     1      -3.211  -1.610   7.675  0.00  0.00    +0.037 C 
ENDROOT
BRANCH   1  16
ATOM     10  C   UNL     1       0.503   3.322   7.580  0.00  0.00    +0.003 C 
ATOM     11  C   UNL     1      -0.866   3.919   7.248  0.00  0.00    +0.019 C 
ATOM     12  C   UNL     1      -1.962   2.925   7.645  0.00  0.00    +0.108 C 
ATOM     13  N   UNL     1      -1.691   1.637   6.992  0.00  0.00    -0.297 N 
ATOM     14  C   UNL     1      -0.373   1.015   7.177  0.00  0.00    +0.108 C 
ATOM     15  C   UNL     1       0.707   2.033   6.780  0.00  0.00    +0.019 C 
ATOM     16  C   UNL     1      -2.636   1.034   6.244  0.00  0.00    +0.249 C 
ATOM     17  O   UNL     1      -3.726   1.557   6.103  0.00  0.00    -0.270 OA
ENDBRANCH   1  16
BRANCH   5  18
ATOM     18  N   UNL     1      -1.470   0.736   3.480  0.00  0.00    -0.279 N 
ATOM     19  C   UNL     1      -0.954   0.481   2.261  0.00  0.00    +0.224 C 
ATOM     20  O   UNL     1      -0.789  -0.665   1.900  0.00  0.00    -0.275 OA
ATOM     21  H   UNL     1      -1.602   1.653   3.769  0.00  0.00    +0.155 HD
BRANCH  19  22
ATOM     22  C   UNL     1      -0.582   1.620   1.347  0.00  0.00    +0.120 C 
ATOM     23  C   UNL     1       0.614   2.429   1.932  0.00  0.00    +0.131 C 
ATOM     24  C   UNL     1       1.646   1.360   2.399  0.00  0.00    +0.035 C 
ATOM     25  C   UNL     1       2.216   0.826   1.060  0.00  0.00    +0.035 C 
ATOM     26  C   UNL     1       1.437   1.658  -0.003  0.00  0.00    +0.133 C 
ATOM     27  C   UNL     1      -0.013   1.086   0.008  0.00  0.00    +0.145 C 
ATOM     28  O   UNL     1       1.249   2.925   0.708  0.00  0.00    -0.372 OA
BRANCH  27  29
ATOM     29  C   UNL     1      -0.803   1.613  -1.161  0.00  0.00    +0.362 C 
ATOM     30  O   UNL     1      -1.770   2.312  -0.971  0.00  0.00    -0.246 OA
ATOM     31  O   UNL     1      -0.434   1.307  -2.415  0.00  0.00    -0.246 OA
ENDBRANCH  27  29
ENDBRANCH  19  22
ENDBRANCH   5  18
TORSDOF 4
