REMARK  Name = ZINC12523726
REMARK  3 active torsions:
REMARK  status: ('A' for Active; 'I' for Inactive)
REMARK    1  A    between atoms: C_10  and  C_16
REMARK    2  A    between atoms: N_20  and  C_21
REMARK    3  A    between atoms: C_24  and  N_27
REMARK                            x       y       z     vdW  Elec       q    Type
REMARK                         _______ _______ _______ _____ _____    ______ ____
ROOT
ATOM      1  C   UNL     1      -0.185   0.519   0.133  0.00  0.00    +0.002 A 
ATOM      2  C   UNL     1       0.870   1.413   0.026  0.00  0.00    +0.002 A 
ATOM      3  C   UNL     1       2.171   0.957  -0.023  0.00  0.00    +0.028 A 
ATOM      4  C   UNL     1       2.433  -0.404   0.036  0.00  0.00    +0.072 A 
ATOM      5  C   UNL     1       1.365  -1.315   0.145  0.00  0.00    +0.091 A 
ATOM      6  C   UNL     1       0.053  -0.836   0.193  0.00  0.00    +0.030 A 
ATOM      7  N   UNL     1       1.898  -2.566   0.184  0.00  0.00    -0.210 NA
ATOM      8  C   UNL     1       3.202  -2.490   0.119  0.00  0.00    +0.236 A 
ATOM      9  N   UNL     1       3.576  -1.165   0.010  0.00  0.00    -0.284 N 
ATOM     10  C   UNL     1       4.982  -0.763  -0.116  0.00  0.00    +0.226 C 
ATOM     11  N   UNL     1       5.787  -1.860   0.450  0.00  0.00    -0.292 N 
ATOM     12  C   UNL     1       5.396  -3.159   0.264  0.00  0.00    +0.183 C 
ATOM     13  N   UNL     1       4.122  -3.484   0.132  0.00  0.00    -0.183 NA
ATOM     14  N   UNL     1       6.346  -4.143   0.214  0.00  0.00    -0.331 N 
ATOM     15  H   UNL     1       6.592  -1.662   0.954  0.00  0.00    +0.151 HD
ATOM     16  H   UNL     1       7.271  -3.934   0.417  0.00  0.00    +0.145 HD
ATOM     17  H   UNL     1       6.094  -5.049  -0.024  0.00  0.00    +0.145 HD
ENDROOT
BRANCH  10  18
ATOM     18  C   UNL     1       5.332  -0.559  -1.568  0.00  0.00    +0.065 A 
ATOM     19  C   UNL     1       5.116  -1.442  -2.564  0.00  0.00    +0.027 A 
ATOM     20  C   UNL     1       5.590  -0.858  -3.756  0.00  0.00    +0.020 A 
ATOM     21  C   UNL     1       6.077   0.360  -3.445  0.00  0.00    +0.091 A 
ATOM     22  N   UNL     1       5.917   0.553  -2.102  0.00  0.00    -0.317 N 
BRANCH  22  23
ATOM     23  C   UNL     1       6.293   1.700  -1.391  0.00  0.00    +0.047 A 
ATOM     24  C   UNL     1       5.409   2.283  -0.493  0.00  0.00    +0.028 A 
ATOM     25  C   UNL     1       5.783   3.414   0.207  0.00  0.00    +0.035 A 
ATOM     26  C   UNL     1       7.036   3.966   0.013  0.00  0.00    +0.126 A 
ATOM     27  C   UNL     1       7.919   3.388  -0.880  0.00  0.00    +0.035 A 
ATOM     28  C   UNL     1       7.553   2.253  -1.578  0.00  0.00    +0.028 A 
BRANCH  26  29
ATOM     29  N   UNL     1       7.433   5.178   0.764  0.00  0.00    +0.056 N 
ATOM     30  O   UNL     1       6.662   5.685   1.545  0.00  0.00    -0.126 OA
ATOM     31  O   UNL     1       8.528   5.662   0.596  0.00  0.00    -0.126 OA
ENDBRANCH  26  29
ENDBRANCH  22  23
ENDBRANCH  10  18
TORSDOF 3
