REMARK  Name = ZINC20404901
REMARK  6 active torsions:
REMARK  status: ('A' for Active; 'I' for Inactive)
REMARK    1  A    between atoms: C_1  and  C_2
REMARK    2  A    between atoms: C_2  and  C_15
REMARK    3  A    between atoms: N_6  and  C_8
REMARK    4  A    between atoms: C_18  and  C_21
REMARK    5  A    between atoms: C_21  and  N_22
REMARK    6  A    between atoms: C_26  and  C_29
REMARK                            x       y       z     vdW  Elec       q    Type
REMARK                         _______ _______ _______ _____ _____    ______ ____
ROOT
ATOM      1  C   UNL     1      -5.492   4.347  -1.257  0.00  0.00    +0.100 C 
ATOM      2  N   UNL     1      -5.416   3.508  -2.216  0.00  0.00    -0.090 NA
ATOM      3  O   UNL     1      -6.301   3.798  -3.279  0.00  0.00    -0.388 OA
ATOM      4  C   UNL     1      -7.294   4.718  -2.781  0.00  0.00    +0.227 C 
ATOM      5  C   UNL     1      -6.535   5.390  -1.611  0.00  0.00    +0.106 C 
ENDROOT
BRANCH   1   7
ATOM      6  C   UNL     1      -5.588   4.143   1.229  0.00  0.00    +0.057 C 
ATOM      7  C   UNL     1      -4.677   4.312   0.011  0.00  0.00    +0.142 C 
ATOM      8  N   UNL     1      -3.870   5.536   0.138  0.00  0.00    -0.274 N 
ATOM      9  C   UNL     1      -2.580   5.152   0.155  0.00  0.00    +0.322 C 
ATOM     10  O   UNL     1      -1.641   5.918   0.255  0.00  0.00    -0.251 OA
ATOM     11  N   UNL     1      -2.458   3.823   0.045  0.00  0.00    -0.187 N 
ATOM     12  N   UNL     1      -3.682   3.224  -0.045  0.00  0.00    -0.204 NA
ATOM     13  H   UNL     1      -4.364   6.517   0.198  0.00  0.00    +0.152 HD
ATOM     14  H   UNL     1      -3.766   2.700  -0.904  0.00  0.00    +0.148 HD
BRANCH  11  15
ATOM     15  C   UNL     1      -1.236   3.138   0.030  0.00  0.00    +0.054 A 
ATOM     16  C   UNL     1      -1.060   2.014   0.826  0.00  0.00    +0.028 A 
ATOM     17  C   UNL     1       0.147   1.343   0.814  0.00  0.00    +0.040 A 
ATOM     18  C   UNL     1       1.177   1.784   0.001  0.00  0.00    +0.124 A 
ATOM     19  C   UNL     1       1.002   2.902  -0.797  0.00  0.00    +0.040 A 
ATOM     20  C   UNL     1      -0.202   3.579  -0.784  0.00  0.00    +0.028 A 
ATOM     21  F   UNL     1       2.355   1.123  -0.014  0.00  0.00    -0.205 F 
ENDBRANCH  11  15
ENDBRANCH   1   7
BRANCH   4  22
ATOM     22  C   UNL     1      -7.675   5.745  -3.849  0.00  0.00    +0.150 C 
BRANCH  22  23
ATOM     23  N   UNL     1      -8.493   5.098  -4.879  0.00  0.00    -0.324 N 
ATOM     24  C   UNL     1      -8.961   5.837  -5.960  0.00  0.00    +0.137 A 
ATOM     25  C   UNL     1      -9.738   5.216  -6.935  0.00  0.00    +0.081 A 
ATOM     26  C   UNL     1     -10.198   5.963  -8.005  0.00  0.00    +0.037 A 
ATOM     27  C   UNL     1      -9.864   7.310  -8.064  0.00  0.00    +0.074 A 
ATOM     28  C   UNL     1      -9.090   7.860  -7.063  0.00  0.00    +0.125 A 
ATOM     29  N   UNL     1      -8.670   7.125  -6.051  0.00  0.00    -0.238 NA
ATOM     30 CL   UNL     1     -10.124   3.528  -6.810  0.00  0.00    -0.080 Cl
ATOM     31  H   UNL     1      -8.736   4.029  -4.796  0.00  0.00    +0.148 HD
BRANCH  27  32
ATOM     32  C   UNL     1     -10.342   8.163  -9.211  0.00  0.00    +0.419 C 
ATOM     33  F   UNL     1     -11.581   8.726  -8.889  0.00  0.00    -0.166 F 
ATOM     34  F   UNL     1      -9.415   9.182  -9.453  0.00  0.00    -0.166 F 
ATOM     35  F   UNL     1     -10.475   7.371 -10.357  0.00  0.00    -0.166 F 
ENDBRANCH  27  32
ENDBRANCH  22  23
ENDBRANCH   4  22
TORSDOF 5
