REMARK  Name = ZINC39363180
REMARK  6 active torsions:
REMARK  status: ('A' for Active; 'I' for Inactive)
REMARK    1  A    between atoms: C_5  and  C_7
REMARK    2  A    between atoms: C_7  and  S_8
REMARK    3  A    between atoms: S_8  and  C_9
REMARK    4  A    between atoms: C_12  and  C_22
REMARK    5  A    between atoms: N_14  and  C_15
REMARK    6  A    between atoms: C_22  and  C_23
REMARK                            x       y       z     vdW  Elec       q    Type
REMARK                         _______ _______ _______ _____ _____    ______ ____
ROOT
ATOM      1  C   UNL     1       1.500  -4.573   1.510  0.00  0.00    +0.180 C 
ATOM      2  N   UNL     1       1.435  -5.179   0.372  0.00  0.00    -0.162 NA
ATOM      3  N   UNL     1       1.173  -6.545   0.534  0.00  0.00    -0.246 N 
ATOM      4  C   UNL     1       1.067  -6.774   1.985  0.00  0.00    +0.187 C 
ATOM      5  N   UNL     1       1.297  -5.443   2.571  0.00  0.00    -0.258 N 
ATOM      6  H   UNL     1       1.079  -7.207  -0.169  0.00  0.00    +0.170 HD
ENDROOT
BRANCH   5   7
ATOM      7  C   UNL     1       1.306  -5.119   3.931  0.00  0.00    +0.038 A 
ATOM      8  C   UNL     1       2.308  -5.610   4.757  0.00  0.00    +0.025 A 
ATOM      9  C   UNL     1       2.315  -5.288   6.100  0.00  0.00    +0.022 A 
ATOM     10  C   UNL     1       1.323  -4.477   6.623  0.00  0.00    +0.041 A 
ATOM     11  C   UNL     1       0.323  -3.986   5.802  0.00  0.00    +0.022 A 
ATOM     12  C   UNL     1       0.315  -4.300   4.457  0.00  0.00    +0.025 A 
ATOM     13 CL   UNL     1       1.334  -4.074   8.312  0.00  0.00    -0.084 Cl
ENDBRANCH   5   7
BRANCH   1  14
ATOM     14  S   UNL     1       1.815  -2.849   1.692  0.00  0.00    -0.084 S 
BRANCH  14  15
ATOM     15  C   UNL     1       1.992  -2.252  -0.011  0.00  0.00    +0.115 C 
BRANCH  15  20
ATOM     16  C   UNL     1       1.472   1.488  -0.026  0.00  0.00    +0.000 A 
ATOM     17  C   UNL     1       2.775   1.949   0.025  0.00  0.00    +0.003 A 
ATOM     18  C   UNL     1       3.825   1.052   0.064  0.00  0.00    +0.038 A 
ATOM     19  C   UNL     1       3.572  -0.310   0.052  0.00  0.00    +0.127 A 
ATOM     20  C   UNL     1       2.268  -0.770   0.002  0.00  0.00    -0.002 A 
ATOM     21  C   UNL     1       1.219   0.129  -0.038  0.00  0.00    +0.007 A 
ATOM     22  F   UNL     1       4.598  -1.188   0.090  0.00  0.00    -0.205 F 
ENDBRANCH  15  20
ENDBRANCH  14  15
ENDBRANCH   1  14
BRANCH   4  23
ATOM     23  C   UNL     1      -0.325  -7.296   2.346  0.00  0.00    +0.097 C 
BRANCH  23  24
ATOM     24  C   UNL     1      -0.516  -8.669   1.755  0.00  0.00    +0.029 A 
ATOM     25  N   UNL     1      -0.939  -8.807   0.461  0.00  0.00    -0.311 N 
ATOM     26  C   UNL     1      -1.112 -10.028  -0.076  0.00  0.00    +0.327 A 
ATOM     27  O   UNL     1      -1.489 -10.128  -1.228  0.00  0.00    -0.247 OA
ATOM     28  N   UNL     1      -0.874 -11.141   0.643  0.00  0.00    -0.275 N 
ATOM     29  C   UNL     1      -0.456 -11.047   1.921  0.00  0.00    +0.254 A 
ATOM     30  O   UNL     1      -0.241 -12.053   2.573  0.00  0.00    -0.268 OA
ATOM     31  C   UNL     1      -0.265  -9.768   2.498  0.00  0.00    +0.091 A 
ATOM     32  H   UNL     1      -1.004 -12.014   0.240  0.00  0.00    +0.173 HD
ATOM     33  H   UNL     1      -1.116  -8.017  -0.074  0.00  0.00    +0.170 HD
ENDBRANCH  23  24
ENDBRANCH   4  23
TORSDOF 6
