REMARK  Name = ZINC32088122
REMARK  2 active torsions:
REMARK  status: ('A' for Active; 'I' for Inactive)
REMARK    1  A    between atoms: C_1  and  N_2
REMARK    2  A    between atoms: C_13  and  O_29
REMARK                            x       y       z     vdW  Elec       q    Type
REMARK                         _______ _______ _______ _____ _____    ______ ____
ROOT
ATOM      1  C   UNL     1      -0.018   1.461   0.010  0.00  0.00    +0.138 C 
ATOM      2  N   UNL     1       0.002  -0.004   0.002  0.00  0.00    -0.273 N 
ATOM      3  C   UNL     1      -1.135  -0.793   0.003  0.00  0.00    +0.040 A 
ATOM      4  C   UNL     1      -2.478  -0.413   0.015  0.00  0.00    +0.024 A 
ATOM      5  C   UNL     1      -3.424  -1.426   0.014  0.00  0.00    +0.002 A 
ATOM      6  C   UNL     1      -3.067  -2.759   0.002  0.00  0.00    +0.000 A 
ATOM      7  C   UNL     1      -1.733  -3.151  -0.010  0.00  0.00    +0.007 A 
ATOM      8  C   UNL     1      -0.786  -2.150  -0.009  0.00  0.00    -0.006 A 
ATOM      9  C   UNL     1       0.708  -2.195  -0.017  0.00  0.00    +0.112 C 
ATOM     10  C   UNL     1       1.131  -0.744  -0.013  0.00  0.00    +0.235 C 
ATOM     11  O   UNL     1       2.269  -0.324  -0.021  0.00  0.00    -0.274 OA
ATOM     12  C   UNL     1       1.236  -2.894  -1.268  0.00  0.00    +0.121 C 
ATOM     13  C   UNL     1       1.215  -4.388  -1.114  0.00  0.00    +0.191 C 
ATOM     14  N   UNL     1       1.390  -4.995   0.022  0.00  0.00    -0.197 NA
ATOM     15  C   UNL     1       1.556  -4.260   1.157  0.00  0.00    +0.166 A 
ATOM     16  C   UNL     1       1.242  -2.906   1.195  0.00  0.00    +0.037 A 
ATOM     17  C   UNL     1       1.512  -2.444   2.470  0.00  0.00    +0.142 A 
ATOM     18  N   UNL     1       1.956  -3.447   3.193  0.00  0.00    -0.171 NA
ATOM     19  N   UNL     1       1.984  -4.603   2.395  0.00  0.00    -0.190 N 
ATOM     20  C   UNL     1       2.380  -5.870   2.804  0.00  0.00    +0.197 A 
ATOM     21  N   UNL     1       2.431  -6.981   2.107  0.00  0.00    -0.221 NA
ATOM     22  C   UNL     1       2.840  -8.153   2.637  0.00  0.00    +0.081 A 
ATOM     23  C   UNL     1       2.940  -9.412   2.001  0.00  0.00    +0.029 A 
ATOM     24  C   UNL     1       3.377 -10.512   2.691  0.00  0.00    +0.002 A 
ATOM     25  C   UNL     1       3.733 -10.435   4.029  0.00  0.00    +0.001 A 
ATOM     26  C   UNL     1       3.648  -9.220   4.684  0.00  0.00    +0.017 A 
ATOM     27  C   UNL     1       3.212  -8.112   4.001  0.00  0.00    +0.041 A 
ATOM     28  S   UNL     1       2.956  -6.402   4.410  0.00  0.00    -0.048 S 
ENDROOT
BRANCH  13  29
ATOM     29  O   UNL     1       1.003  -5.140  -2.213  0.00  0.00    -0.495 OA
ATOM     30  H   UNL     1       1.002  -6.092  -2.044  0.00  0.00    +0.293 HD
ENDBRANCH  13  29
TORSDOF 1
