REMARK  Name = ZINC19920793
REMARK  4 active torsions:
REMARK  status: ('A' for Active; 'I' for Inactive)
REMARK    1  A    between atoms: C_1  and  C_2
REMARK    2  A    between atoms: C_3  and  C_25
REMARK    3  A    between atoms: C_4  and  C_19
REMARK    4  A    between atoms: C_25  and  C_27
REMARK                            x       y       z     vdW  Elec       q    Type
REMARK                         _______ _______ _______ _____ _____    ______ ____
ROOT
ATOM      1  C   UNL     1       4.101   0.836  -0.571  0.00  0.00    +0.061 C 
ATOM      2  C   UNL     1       3.109   1.860  -0.084  0.00  0.00    +0.017 C 
ATOM      3  C   UNL     1       3.369   3.176  -0.225  0.00  0.00    +0.045 C 
ATOM      4  C   UNL     1       2.397   4.212   0.266  0.00  0.00    +0.174 C 
ATOM      5  N   UNL     1       1.083   3.628   0.508  0.00  0.00    -0.243 NA
ATOM      6  C   UNL     1       0.896   2.352   0.624  0.00  0.00    +0.188 C 
ATOM      7  N   UNL     1       1.938   1.460   0.505  0.00  0.00    -0.291 N 
ATOM      8  N   UNL     1      -0.375   1.877   0.866  0.00  0.00    -0.241 N 
ATOM      9  C   UNL     1      -1.432   2.758   0.982  0.00  0.00    +0.295 A 
ATOM     10  N   UNL     1      -1.335   4.059   0.891  0.00  0.00    -0.195 NA
ATOM     11  C   UNL     1      -2.574   4.601   1.052  0.00  0.00    +0.111 A 
ATOM     12  C   UNL     1      -3.061   5.908   1.050  0.00  0.00    +0.031 A 
ATOM     13  C   UNL     1      -4.404   6.137   1.254  0.00  0.00    +0.002 A 
ATOM     14  C   UNL     1      -5.273   5.076   1.462  0.00  0.00    +0.004 A 
ATOM     15  C   UNL     1      -4.804   3.778   1.466  0.00  0.00    +0.048 A 
ATOM     16  C   UNL     1      -3.456   3.530   1.262  0.00  0.00    +0.157 A 
ATOM     17  O   UNL     1      -2.708   2.404   1.212  0.00  0.00    -0.424 OA
ATOM     18  H   UNL     1       1.835   0.431   0.879  0.00  0.00    +0.154 HD
ATOM     19  H   UNL     1      -0.548   0.795   0.966  0.00  0.00    +0.159 HD
ENDROOT
BRANCH   4  20
ATOM     20  C   UNL     1       2.920   4.812   1.546  0.00  0.00    -0.019 A 
ATOM     21  C   UNL     1       2.870   4.086   2.721  0.00  0.00    +0.006 A 
ATOM     22  C   UNL     1       3.354   4.636   3.894  0.00  0.00    +0.000 A 
ATOM     23  C   UNL     1       3.879   5.914   3.893  0.00  0.00    +0.000 A 
ATOM     24  C   UNL     1       3.924   6.643   2.719  0.00  0.00    +0.000 A 
ATOM     25  C   UNL     1       3.444   6.092   1.545  0.00  0.00    +0.006 A 
ENDBRANCH   4  20
BRANCH   3  26
ATOM     26  C   UNL     1       4.572   3.587  -0.842  0.00  0.00    +0.193 C 
ATOM     27  O   UNL     1       5.642   3.352  -0.309  0.00  0.00    -0.287 OA
BRANCH  26  28
ATOM     28  C   UNL     1       4.533   4.303  -2.136  0.00  0.00    +0.022 A 
ATOM     29  C   UNL     1       3.322   4.464  -2.812  0.00  0.00    +0.012 A 
ATOM     30  C   UNL     1       3.292   5.138  -4.016  0.00  0.00    +0.001 A 
ATOM     31  C   UNL     1       4.459   5.644  -4.559  0.00  0.00    +0.000 A 
ATOM     32  C   UNL     1       5.664   5.483  -3.897  0.00  0.00    +0.001 A 
ATOM     33  C   UNL     1       5.707   4.816  -2.690  0.00  0.00    +0.012 A 
ENDBRANCH  26  28
ENDBRANCH   3  26
TORSDOF 3
