REMARK  Name = ZINC37653954
REMARK  3 active torsions:
REMARK  status: ('A' for Active; 'I' for Inactive)
REMARK    1  A    between atoms: C_1  and  C_2
REMARK    2  A    between atoms: N_4  and  C_8
REMARK    3  A    between atoms: C_13  and  N_14
REMARK                            x       y       z     vdW  Elec       q    Type
REMARK                         _______ _______ _______ _____ _____    ______ ____
ROOT
ATOM      1  C   UNL     1       0.038  -3.143  -1.667  0.00  0.00    +0.081 A 
ATOM      2  C   UNL     1       1.031  -4.111  -1.632  0.00  0.00    +0.029 A 
ATOM      3  C   UNL     1       1.039  -5.127  -2.569  0.00  0.00    +0.022 A 
ATOM      4  C   UNL     1       0.058  -5.183  -3.544  0.00  0.00    +0.043 A 
ATOM      5  C   UNL     1      -0.936  -4.223  -3.585  0.00  0.00    +0.044 A 
ATOM      6  C   UNL     1      -0.955  -3.203  -2.645  0.00  0.00    +0.050 A 
ATOM      7 CL   UNL     1       0.076  -6.462  -4.717  0.00  0.00    -0.083 Cl
ENDROOT
BRANCH   1  11
ATOM      8  C   UNL     1      -0.018   1.503   0.010  0.00  0.00    +0.063 C 
ATOM      9  C   UNL     1       0.002  -0.004   0.002  0.00  0.00    +0.043 C 
ATOM     10  N   UNL     1       0.008  -0.756  -1.029  0.00  0.00    -0.181 NA
ATOM     11  N   UNL     1       0.028  -2.112  -0.717  0.00  0.00    -0.159 N 
ATOM     12  C   UNL     1       0.037  -2.304   0.619  0.00  0.00    +0.245 C 
ATOM     13  O   UNL     1       0.054  -3.361   1.212  0.00  0.00    -0.273 OA
ATOM     14  C   UNL     1       0.026  -0.910   1.216  0.00  0.00    +0.150 C 
ENDBRANCH   1  11
BRANCH   6  15
ATOM     15  N   UNL     1      -1.962  -2.233  -2.682  0.00  0.00    -0.356 N 
ATOM     16  H   UNL     1      -1.971  -1.518  -2.026  0.00  0.00    +0.142 HD
ATOM     17  H   UNL     1      -2.651  -2.276  -3.363  0.00  0.00    +0.142 HD
ENDBRANCH   6  15
TORSDOF 2
