REMARK  Name = ZINC58161593
REMARK  10 active torsions:
REMARK  status: ('A' for Active; 'I' for Inactive)
REMARK    1  A    between atoms: C_1  and  C_2
REMARK    2  A    between atoms: C_2  and  O_3
REMARK    3  A    between atoms: O_3  and  C_4
REMARK    4  A    between atoms: C_11  and  C_14
REMARK    5  A    between atoms: N_16  and  C_17
REMARK    6  A    between atoms: C_17  and  C_19
REMARK    7  A    between atoms: C_17  and  C_20
REMARK    8  A    between atoms: C_23  and  N_26
REMARK    9  A    between atoms: C_27  and  C_29
REMARK   10  A    between atoms: C_33  and  C_36
REMARK                            x       y       z     vdW  Elec       q    Type
REMARK                         _______ _______ _______ _____ _____    ______ ____
ROOT
ATOM      1  C   UNL     1      -6.493  -2.606  -0.178  0.00  0.00    +0.261 C 
ATOM      2  O   UNL     1      -7.047  -1.531  -0.043  0.00  0.00    -0.269 OA
ATOM      3  N   UNL     1      -7.215  -3.744  -0.149  0.00  0.00    -0.304 N 
ATOM      4  H   UNL     1      -6.773  -4.601  -0.257  0.00  0.00    +0.150 HD
ENDROOT
BRANCH   1  12
ATOM      5  C   UNL     1      -1.644  -1.435  -0.754  0.00  0.00    +0.130 A 
ATOM      6  C   UNL     1      -0.511  -2.199  -0.948  0.00  0.00    +0.053 A 
ATOM      7  C   UNL     1      -0.598  -3.580  -1.019  0.00  0.00    +0.003 A 
ATOM      8  C   UNL     1      -1.812  -4.231  -0.893  0.00  0.00    +0.148 A 
ATOM      9  C   UNL     1      -2.973  -3.472  -0.702  0.00  0.00    +0.093 A 
ATOM     10  C   UNL     1      -2.891  -2.071  -0.625  0.00  0.00    +0.046 A 
ATOM     11  C   UNL     1      -4.206  -1.589  -0.422  0.00  0.00    +0.044 A 
ATOM     12  C   UNL     1      -5.038  -2.663  -0.375  0.00  0.00    +0.103 A 
ATOM     13  N   UNL     1      -4.298  -3.817  -0.552  0.00  0.00    -0.348 N 
ATOM     14  H   UNL     1      -4.651  -4.720  -0.559  0.00  0.00    +0.166 HD
ATOM     15  O   UNL     1      -1.658  -5.584  -0.970  0.00  0.00    -0.486 OA
ATOM     16  C   UNL     1      -0.398  -5.881  -1.595  0.00  0.00    +0.175 C 
ATOM     17  C   UNL     1       0.460  -4.647  -1.232  0.00  0.00    +0.083 C 
ATOM     18  C   UNL     1      -0.561  -6.008  -3.111  0.00  0.00    +0.052 C 
BRANCH   5  19
ATOM     19  O   UNL     1      -1.554  -0.081  -0.681  0.00  0.00    -0.492 OA
BRANCH  19  21
ATOM     20  C   UNL     1      -0.349   2.014  -0.714  0.00  0.00    +0.048 C 
ATOM     21  C   UNL     1      -0.252   0.491  -0.822  0.00  0.00    +0.226 C 
ENDBRANCH  19  21
ENDBRANCH   5  19
ENDBRANCH   1  12
BRANCH   3  22
ATOM     22  C   UNL     1      -8.665  -3.687   0.047  0.00  0.00    +0.100 C 
ATOM     23  C   UNL     1      -8.976  -3.624   1.544  0.00  0.00    +0.033 C 
BRANCH  22  24
ATOM     24  C   UNL     1      -9.301  -4.918  -0.546  0.00  0.00    -0.027 A 
ATOM     25  C   UNL     1      -8.691  -6.150  -0.397  0.00  0.00    +0.007 A 
ATOM     26  C   UNL     1      -9.271  -7.279  -0.940  0.00  0.00    +0.023 A 
ATOM     27  C   UNL     1     -10.469  -7.177  -1.636  0.00  0.00    +0.033 A 
ATOM     28  C   UNL     1     -11.079  -5.938  -1.784  0.00  0.00    +0.023 A 
ATOM     29  C   UNL     1     -10.496  -4.813  -1.234  0.00  0.00    +0.007 A 
BRANCH  27  30
ATOM     30  N   UNL     1     -11.059  -8.320  -2.188  0.00  0.00    -0.285 N 
ATOM     31  C   UNL     1     -10.934  -9.509  -1.567  0.00  0.00    +0.220 C 
ATOM     32  O   UNL     1     -10.393  -9.574  -0.483  0.00  0.00    -0.275 OA
ATOM     33  H   UNL     1     -11.558  -8.255  -3.017  0.00  0.00    +0.155 HD
BRANCH  31  34
ATOM     34  C   UNL     1     -11.466 -10.759  -2.219  0.00  0.00    +0.075 C 
ATOM     35  C   UNL     1     -12.677 -11.434  -1.571  0.00  0.00    +0.013 C 
ATOM     36  C   UNL     1     -11.293 -12.079  -1.464  0.00  0.00    +0.013 C 
ENDBRANCH  31  34
ENDBRANCH  27  30
ENDBRANCH  22  24
ENDBRANCH   3  22
TORSDOF 7
