REMARK  Name = ZINC27046940
REMARK  3 active torsions:
REMARK  status: ('A' for Active; 'I' for Inactive)
REMARK    1  A    between atoms: C_1  and  N_2
REMARK    2  A    between atoms: C_15  and  C_17
REMARK    3  A    between atoms: C_20  and  N_23
REMARK                            x       y       z     vdW  Elec       q    Type
REMARK                         _______ _______ _______ _____ _____    ______ ____
ROOT
ATOM      1  C   UNL     1      -2.481   1.492   0.023  0.00  0.00    +0.138 C 
ATOM      2  N   UNL     1      -1.106   1.998   0.017  0.00  0.00    -0.273 N 
ATOM      3  C   UNL     1      -0.774   3.355   0.023  0.00  0.00    +0.040 A 
ATOM      4  C   UNL     1      -1.583   4.489   0.034  0.00  0.00    +0.024 A 
ATOM      5  C   UNL     1      -1.014   5.746   0.030  0.00  0.00    +0.002 A 
ATOM      6  C   UNL     1       0.361   5.891   0.013  0.00  0.00    +0.000 A 
ATOM      7  C   UNL     1       1.171   4.769   0.003  0.00  0.00    +0.006 A 
ATOM      8  C   UNL     1       0.608   3.513   0.009  0.00  0.00    -0.009 A 
ATOM      9  C   UNL     1       1.180   2.123   0.002  0.00  0.00    +0.094 C 
ATOM     10  C   UNL     1      -0.014   1.209   0.009  0.00  0.00    +0.232 C 
ATOM     11  O   UNL     1       0.002  -0.004   0.002  0.00  0.00    -0.274 OA
ATOM     12  C   UNL     1       2.072   1.881   1.230  0.00  0.00    +0.038 C 
ATOM     13  C   UNL     1       3.501   2.066   0.654  0.00  0.00    +0.083 C 
ATOM     14  N   UNL     1       3.400   1.484  -0.710  0.00  0.00    -0.308 NA
ATOM     15  C   UNL     1       2.068   1.882  -1.221  0.00  0.00    +0.103 C 
ATOM     16  H   UNL     1       4.206   1.887  -1.341  0.00  0.00    +0.123 HD
ENDROOT
BRANCH  15  17
ATOM     17  C   UNL     1       1.490   0.778  -2.068  0.00  0.00    -0.029 A 
ATOM     18  C   UNL     1       1.696  -0.543  -1.717  0.00  0.00    +0.007 A 
ATOM     19  C   UNL     1       1.162  -1.556  -2.491  0.00  0.00    +0.033 A 
ATOM     20  C   UNL     1       0.430  -1.248  -3.622  0.00  0.00    +0.126 A 
ATOM     21  C   UNL     1       0.227   0.073  -3.977  0.00  0.00    +0.033 A 
ATOM     22  C   UNL     1       0.758   1.086  -3.200  0.00  0.00    +0.007 A 
BRANCH  20  23
ATOM     23  N   UNL     1      -0.138  -2.333  -4.455  0.00  0.00    +0.056 N 
ATOM     24  O   UNL     1      -0.783  -2.062  -5.451  0.00  0.00    -0.126 OA
ATOM     25  O   UNL     1       0.040  -3.497  -4.142  0.00  0.00    -0.126 OA
ENDBRANCH  20  23
ENDBRANCH  15  17
TORSDOF 2
