REMARK  Name = ZINC40377120
REMARK  5 active torsions:
REMARK  status: ('A' for Active; 'I' for Inactive)
REMARK    1  A    between atoms: C_5  and  S_7
REMARK    2  A    between atoms: S_7  and  N_10
REMARK    3  A    between atoms: N_10  and  C_11
REMARK    4  A    between atoms: C_11  and  C_12
REMARK    5  A    between atoms: N_13  and  O_14
REMARK                            x       y       z     vdW  Elec       q    Type
REMARK                         _______ _______ _______ _____ _____    ______ ____
ROOT
ATOM      1  S   UNL     1       1.232  -2.441  -0.023  0.00  0.00    +0.060 S 
ATOM      2  O   UNL     1       2.144  -2.841   0.991  0.00  0.00    -0.153 OA
ATOM      3  O   UNL     1      -0.124  -2.865  -0.039  0.00  0.00    -0.153 OA
ENDROOT
BRANCH   1   8
ATOM      4  C   UNL     1      -0.017   1.378   0.010  0.00  0.00    +0.002 A 
ATOM      5  C   UNL     1       1.171   2.086   0.002  0.00  0.00    +0.002 A 
ATOM      6  C   UNL     1       2.377   1.412  -0.013  0.00  0.00    +0.022 A 
ATOM      7  C   UNL     1       2.397   0.029  -0.021  0.00  0.00    +0.067 A 
ATOM      8  C   UNL     1       1.208  -0.679  -0.013  0.00  0.00    +0.123 A 
ATOM      9  C   UNL     1       0.002  -0.004   0.002  0.00  0.00    +0.030 A 
ATOM     10 CL   UNL     1       3.912  -0.818  -0.041  0.00  0.00    -0.082 Cl
ENDBRANCH   1   8
BRANCH   1  11
ATOM     11  N   UNL     1       1.893  -2.913  -1.466  0.00  0.00    -0.183 NA
ATOM     12  H   UNL     1       1.354  -3.400  -2.110  0.00  0.00    +0.148 HD
BRANCH  11  13
ATOM     13  C   UNL     1       3.290  -2.597  -1.771  0.00  0.00    +0.180 C 
BRANCH  13  14
ATOM     14  C   UNL     1       3.751  -3.430  -2.939  0.00  0.00    +0.147 C 
ATOM     15  N   UNL     1       2.937  -4.261  -3.501  0.00  0.00    -0.075 NA
ATOM     16  N   UNL     1       5.039  -3.304  -3.409  0.00  0.00    -0.343 N 
ATOM     17  H   UNL     1       5.650  -2.680  -2.988  0.00  0.00    +0.144 HD
ATOM     18  H   UNL     1       5.336  -3.840  -4.161  0.00  0.00    +0.144 HD
BRANCH  15  19
ATOM     19  O   UNL     1       3.369  -5.044  -4.599  0.00  0.00    -0.408 OA
ATOM     20  H   UNL     1       2.691  -5.636  -4.951  0.00  0.00    +0.328 HD
ENDBRANCH  15  19
ENDBRANCH  13  14
ENDBRANCH  11  13
ENDBRANCH   1  11
TORSDOF 5
