REMARK  Name = ZINC52892021
REMARK  8 active torsions:
REMARK  status: ('A' for Active; 'I' for Inactive)
REMARK    1  A    between atoms: C_2  and  C_3
REMARK    2  A    between atoms: C_3  and  N_4
REMARK    3  A    between atoms: N_4  and  C_5
REMARK    4  A    between atoms: N_4  and  C_12
REMARK    5  A    between atoms: C_5  and  C_6
REMARK    6  A    between atoms: C_12  and  C_13
REMARK    7  A    between atoms: N_15  and  C_16
REMARK    8  A    between atoms: C_21  and  C_22
REMARK                            x       y       z     vdW  Elec       q    Type
REMARK                         _______ _______ _______ _____ _____    ______ ____
ROOT
ATOM      1  C   UNL     1       1.045  -1.781  -0.874  0.00  0.00    +0.201 C 
ATOM      2  O   UNL     1       1.028  -0.571  -0.952  0.00  0.00    -0.278 OA
ATOM      3  N   UNL     1       2.215  -2.429  -0.705  0.00  0.00    -0.286 N 
ATOM      4  H   UNL     1       2.238  -3.398  -0.710  0.00  0.00    +0.155 HD
ENDROOT
BRANCH   3   5
ATOM      5  C   UNL     1       3.391  -1.706  -0.521  0.00  0.00    +0.045 A 
ATOM      6  C   UNL     1       3.370  -0.504   0.174  0.00  0.00    +0.024 A 
ATOM      7  C   UNL     1       4.537   0.211   0.355  0.00  0.00    +0.002 A 
ATOM      8  C   UNL     1       5.735  -0.262  -0.154  0.00  0.00    +0.001 A 
ATOM      9  C   UNL     1       5.776  -1.453  -0.846  0.00  0.00    +0.015 A 
ATOM     10  C   UNL     1       4.604  -2.191  -1.032  0.00  0.00    +0.058 A 
BRANCH  10  11
ATOM     11  C   UNL     1       4.641  -3.470  -1.766  0.00  0.00    +0.243 C 
ATOM     12  O   UNL     1       3.607  -4.056  -2.018  0.00  0.00    -0.270 OA
ATOM     13  N   UNL     1       5.822  -3.988  -2.158  0.00  0.00    -0.325 N 
ATOM     14  H   UNL     1       6.648  -3.519  -1.957  0.00  0.00    +0.145 HD
ATOM     15  H   UNL     1       5.847  -4.828  -2.641  0.00  0.00    +0.145 HD
ENDBRANCH  10  11
ENDBRANCH   3   5
BRANCH   1  16
ATOM     16  C   UNL     1      -0.241  -2.561  -0.968  0.00  0.00    +0.020 C 
BRANCH  16  17
ATOM     17  N   UNL     1      -1.373  -1.629  -1.060  0.00  0.00    +0.391 N 
ATOM     18  H   UNL     1      -1.325  -0.966  -0.302  0.00  0.00    -0.080 HD
BRANCH  17  19
ATOM     19  C   UNL     1      -2.633  -2.379  -0.976  0.00  0.00    -0.051 C 
BRANCH  19  21
ATOM     20  C   UNL     1      -3.795  -2.743   1.140  0.00  0.00    +0.002 C 
ATOM     21  C   UNL     1      -2.754  -3.006   0.389  0.00  0.00    -0.053 C 
ENDBRANCH  19  21
ENDBRANCH  17  19
BRANCH  17  22
ATOM     22  C   UNL     1      -1.314  -0.913  -2.342  0.00  0.00    -0.034 C 
BRANCH  22  23
ATOM     23  C   UNL     1      -2.402   0.129  -2.385  0.00  0.00    -0.025 A 
ATOM     24  C   UNL     1      -2.359   1.425  -1.990  0.00  0.00    +0.011 A 
ATOM     25  C   UNL     1      -3.492   2.205  -2.125  0.00  0.00    +0.028 A 
ATOM     26  C   UNL     1      -4.614   1.650  -2.648  0.00  0.00    +0.078 A 
ATOM     27  S   UNL     1      -4.080  -0.021  -2.976  0.00  0.00    -0.084 S 
ATOM     28 CL   UNL     1      -6.164   2.378  -2.931  0.00  0.00    -0.076 Cl
ENDBRANCH  22  23
ENDBRANCH  17  22
ENDBRANCH  16  17
ENDBRANCH   1  16
TORSDOF 8
