REMARK  Name = ZINC09970449
REMARK  13 active torsions:
REMARK  status: ('A' for Active; 'I' for Inactive)
REMARK    1  A    between atoms: C_1  and  C_2
REMARK    2  A    between atoms: C_2  and  C_25
REMARK    3  A    between atoms: C_3  and  C_23
REMARK    4  A    between atoms: C_3  and  O_24
REMARK    5  A    between atoms: C_4  and  C_21
REMARK    6  A    between atoms: C_4  and  O_22
REMARK    7  A    between atoms: C_5  and  C_19
REMARK    8  A    between atoms: C_5  and  O_20
REMARK    9  A    between atoms: C_6  and  C_8
REMARK   10  A    between atoms: C_6  and  O_9
REMARK   11  A    between atoms: O_9  and  C_10
REMARK   12  A    between atoms: C_14  and  N_16
REMARK   13  A    between atoms: C_25  and  O_26
REMARK                            x       y       z     vdW  Elec       q    Type
REMARK                         _______ _______ _______ _____ _____    ______ ____
ROOT
ATOM      1  C   UNL     1      -1.430   1.399   1.317  0.00  0.00    +0.047 C 
ATOM      2  C   UNL     1      -0.551   1.108   0.090  0.00  0.00    +0.125 C 
ATOM      3  C   UNL     1       0.613   2.085   0.062  0.00  0.00    +0.125 C 
ATOM      4  C   UNL     1       1.901   1.578   0.683  0.00  0.00    +0.129 C 
ATOM      5  C   UNL     1       2.168   0.096   0.476  0.00  0.00    +0.159 C 
ATOM      6  C   UNL     1       0.927  -0.753   0.742  0.00  0.00    +0.242 C 
ATOM      7  O   UNL     1      -0.188  -0.250   0.039  0.00  0.00    -0.326 OA
ATOM      8  C   UNL     1       0.669  -0.872   2.243  0.00  0.00    +0.092 C 
ATOM      9  C   UNL     1       2.682  -0.176  -0.941  0.00  0.00    +0.051 C 
ATOM     10  C   UNL     1       3.077   2.367   0.067  0.00  0.00    +0.047 C 
ATOM     11  C   UNL     1       0.863   2.536  -1.386  0.00  0.00    +0.047 C 
ENDROOT
BRANCH   5  12
ATOM     12  O   UNL     1       3.195  -0.315   1.401  0.00  0.00    -0.379 OA
ATOM     13  H   UNL     1       3.446  -1.245   1.322  0.00  0.00    +0.211 HD
ENDBRANCH   5  12
BRANCH   4  14
ATOM     14  O   UNL     1       1.894   1.871   2.091  0.00  0.00    -0.383 OA
ATOM     15  H   UNL     1       2.725   1.665   2.540  0.00  0.00    +0.210 HD
ENDBRANCH   4  14
BRANCH   3  16
ATOM     16  O   UNL     1       0.207   3.263   0.798  0.00  0.00    -0.383 OA
ATOM     17  H   UNL     1      -0.571   3.707   0.433  0.00  0.00    +0.210 HD
ENDBRANCH   3  16
BRANCH   6  18
ATOM     18  O   UNL     1       1.200  -2.083   0.247  0.00  0.00    -0.458 OA
BRANCH  18  19
ATOM     19  C   UNL     1       0.180  -2.980   0.293  0.00  0.00    +0.126 A 
ATOM     20  C   UNL     1       0.396  -4.298  -0.083  0.00  0.00    +0.046 A 
ATOM     21  C   UNL     1      -0.641  -5.209  -0.030  0.00  0.00    +0.006 A 
ATOM     22  C   UNL     1      -1.896  -4.806   0.388  0.00  0.00    +0.033 A 
ATOM     23  C   UNL     1      -2.116  -3.492   0.757  0.00  0.00    +0.130 A 
ATOM     24  C   UNL     1      -1.080  -2.579   0.711  0.00  0.00    +0.078 A 
BRANCH  23  25
ATOM     25  N   UNL     1      -3.460  -3.064   1.203  0.00  0.00    +0.057 N 
ATOM     26  O   UNL     1      -3.654  -1.907   1.529  0.00  0.00    -0.126 OA
ATOM     27  O   UNL     1      -4.373  -3.869   1.244  0.00  0.00    -0.126 OA
ENDBRANCH  23  25
ENDBRANCH  18  19
ENDBRANCH   6  18
BRANCH   2  28
ATOM     28  C   UNL     1      -1.425   1.401  -1.156  0.00  0.00    +0.193 C 
BRANCH  28  29
ATOM     29  O   UNL     1      -2.642   0.657  -1.070  0.00  0.00    -0.392 OA
ATOM     30  H   UNL     1      -3.239   0.791  -1.818  0.00  0.00    +0.210 HD
ENDBRANCH  28  29
ENDBRANCH   2  28
TORSDOF 8
