REMARK  Name = ZINC23129731
REMARK  8 active torsions:
REMARK  status: ('A' for Active; 'I' for Inactive)
REMARK    1  A    between atoms: C_1  and  C_2
REMARK    2  A    between atoms: C_2  and  C_3
REMARK    3  A    between atoms: C_2  and  C_4
REMARK    4  A    between atoms: C_4  and  C_5
REMARK    5  A    between atoms: C_7  and  C_11
REMARK    6  A    between atoms: C_11  and  N_12
REMARK    7  A    between atoms: C_25  and  C_27
REMARK    8  A    between atoms: C_31  and  O_33
REMARK                            x       y       z     vdW  Elec       q    Type
REMARK                         _______ _______ _______ _____ _____    ______ ____
ROOT
ATOM      1  N   UNL     1      -3.078   1.345   1.402  0.00  0.00    -0.284 NA
ATOM      2  C   UNL     1      -2.351   0.336   2.186  0.00  0.00    +0.090 C 
ATOM      3  C   UNL     1      -2.607   0.569   3.681  0.00  0.00    +0.053 C 
ATOM      4  C   UNL     1      -4.093   0.722   3.881  0.00  0.00    -0.016 A 
ATOM      5  C   UNL     1      -4.866   0.651   5.101  0.00  0.00    +0.003 A 
ATOM      6  C   UNL     1      -4.517   0.432   6.438  0.00  0.00    +0.010 A 
ATOM      7  C   UNL     1      -5.538   0.430   7.355  0.00  0.00    +0.001 A 
ATOM      8  C   UNL     1      -6.858   0.635   6.987  0.00  0.00    +0.002 A 
ATOM      9  C   UNL     1      -7.233   0.855   5.673  0.00  0.00    +0.026 A 
ATOM     10  C   UNL     1      -6.217   0.862   4.720  0.00  0.00    +0.047 A 
ATOM     11  N   UNL     1      -6.234   1.045   3.366  0.00  0.00    -0.356 N 
ATOM     12  H   UNL     1      -7.188   1.226   2.848  0.00  0.00    +0.166 HD
ATOM     13  C   UNL     1      -4.961   0.961   2.872  0.00  0.00    +0.042 A 
ATOM     14  C   UNL     1      -4.529   1.105   1.432  0.00  0.00    +0.135 C 
ENDROOT
BRANCH  14  15
ATOM     15  C   UNL     1      -5.248   2.270   0.801  0.00  0.00    -0.021 A 
ATOM     16  C   UNL     1      -4.820   3.561   1.047  0.00  0.00    +0.006 A 
ATOM     17  C   UNL     1      -5.474   4.632   0.466  0.00  0.00    +0.004 A 
ATOM     18  C   UNL     1      -6.565   4.414  -0.353  0.00  0.00    +0.045 A 
ATOM     19  C   UNL     1      -7.000   3.119  -0.597  0.00  0.00    +0.117 A 
ATOM     20  C   UNL     1      -6.339   2.047  -0.017  0.00  0.00    +0.051 A 
BRANCH  19  21
ATOM     21  O   UNL     1      -8.073   2.902  -1.403  0.00  0.00    -0.507 OA
ATOM     22  H   UNL     1      -8.418   1.876  -1.595  0.00  0.00    +0.292 HD
ENDBRANCH  19  21
ENDBRANCH  14  15
BRANCH   1  23
ATOM     23  C   UNL     1      -2.581   1.397   0.020  0.00  0.00    +0.142 C 
BRANCH  23  26
ATOM     24  C   UNL     1       1.071   1.887   0.002  0.00  0.00    +0.037 A 
ATOM     25  C   UNL     1      -0.013   1.076   0.008  0.00  0.00    +0.049 A 
ATOM     26  C   UNL     1      -1.155   1.883   0.017  0.00  0.00    +0.077 A 
ATOM     27  N   UNL     1      -0.771   3.134   0.026  0.00  0.00    -0.177 NA
ATOM     28  N   UNL     1       0.630   3.162   0.013  0.00  0.00    -0.281 N 
ATOM     29  H   UNL     1       1.350   3.993   0.011  0.00  0.00    +0.189 HD
BRANCH  24  30
ATOM     30  C   UNL     1       2.511   1.445  -0.014  0.00  0.00    +0.057 C 
BRANCH  30  32
ATOM     31  C   UNL     1       4.443   0.855  -1.485  0.00  0.00    +0.007 C 
ATOM     32  C   UNL     1       2.949   1.182  -1.456  0.00  0.00    -0.011 C 
ATOM     33  C   UNL     1       2.157   0.002  -2.022  0.00  0.00    +0.007 C 
ENDBRANCH  30  32
ENDBRANCH  24  30
ENDBRANCH  23  26
ENDBRANCH   1  23
TORSDOF 6
