REMARK  Name = ZINC49437370
REMARK  14 active torsions:
REMARK  status: ('A' for Active; 'I' for Inactive)
REMARK    1  A    between atoms: C_1  and  C_2
REMARK    2  A    between atoms: C_2  and  C_3
REMARK    3  A    between atoms: C_2  and  C_4
REMARK    4  A    between atoms: C_2  and  C_5
REMARK    5  A    between atoms: C_8  and  O_15
REMARK    6  A    between atoms: C_9  and  C_11
REMARK    7  A    between atoms: C_11  and  C_12
REMARK    8  A    between atoms: C_11  and  C_13
REMARK    9  A    between atoms: C_11  and  C_14
REMARK   10  A    between atoms: O_15  and  C_16
REMARK   11  A    between atoms: C_16  and  C_17
REMARK   12  A    between atoms: C_17  and  C_19
REMARK   13  A    between atoms: C_19  and  C_21
REMARK   14  A    between atoms: C_19  and  C_23
REMARK                            x       y       z     vdW  Elec       q    Type
REMARK                         _______ _______ _______ _____ _____    ______ ____
ROOT
ATOM      1  C   UNL     1       2.748  -3.028  -6.701  0.00  0.00    +0.195 C 
ATOM      2  O   UNL     1       3.892  -2.644  -6.762  0.00  0.00    -0.292 OA
ENDROOT
BRANCH   1   3
ATOM      3  C   UNL     1       1.885  -2.639  -5.528  0.00  0.00    +0.305 C 
BRANCH   3   4
ATOM      4  O   UNL     1       2.639  -1.822  -4.631  0.00  0.00    -0.484 OA
BRANCH   4   8
ATOM      5  C   UNL     1       0.707  -0.490  -1.238  0.00  0.00    -0.041 A 
ATOM      6  C   UNL     1       0.035  -1.285  -2.148  0.00  0.00    +0.008 A 
ATOM      7  C   UNL     1       0.679  -1.732  -3.285  0.00  0.00    +0.046 A 
ATOM      8  C   UNL     1       2.002  -1.383  -3.514  0.00  0.00    +0.125 A 
ATOM      9  C   UNL     1       2.675  -0.585  -2.599  0.00  0.00    -0.000 A 
ATOM     10  C   UNL     1       2.024  -0.136  -1.466  0.00  0.00    +0.012 A 
BRANCH   5  12
ATOM     11  C   UNL     1      -0.019   1.526   0.010  0.00  0.00    +0.015 C 
ATOM     12  C   UNL     1       0.002  -0.004   0.002  0.00  0.00    -0.013 C 
ATOM     13  C   UNL     1       0.742  -0.511   1.242  0.00  0.00    +0.015 C 
ATOM     14  C   UNL     1      -1.433  -0.534   0.013  0.00  0.00    +0.015 C 
ENDBRANCH   5  12
BRANCH   9  15
ATOM     15  C   UNL     1       4.112  -0.204  -2.845  0.00  0.00    -0.009 C 
ATOM     16  C   UNL     1       4.611   0.672  -1.694  0.00  0.00    +0.015 C 
ATOM     17  C   UNL     1       4.968  -1.470  -2.930  0.00  0.00    +0.015 C 
ATOM     18  C   UNL     1       4.217   0.572  -4.159  0.00  0.00    +0.015 C 
ENDBRANCH   9  15
ENDBRANCH   4   8
ENDBRANCH   3   4
ENDBRANCH   1   3
BRANCH   1  19
ATOM     19  C   UNL     1       2.185  -3.895  -7.797  0.00  0.00    +0.228 C 
BRANCH  19  20
ATOM     20  C   UNL     1       3.291  -4.722  -8.401  0.00  0.00    +0.160 A 
ATOM     21  N   UNL     1       4.329  -4.126  -8.960  0.00  0.00    -0.198 NA
ATOM     22  C   UNL     1       5.308  -4.853  -9.495  0.00  0.00    +0.217 A 
ATOM     23  N   UNL     1       5.239  -6.179  -9.467  0.00  0.00    -0.181 NA
ATOM     24  C   UNL     1       4.193  -6.775  -8.904  0.00  0.00    +0.217 A 
ATOM     25  N   UNL     1       4.117  -8.152  -8.872  0.00  0.00    -0.327 N 
ATOM     26  N   UNL     1       3.221  -6.041  -8.366  0.00  0.00    -0.198 NA
ATOM     27  N   UNL     1       6.392  -4.229 -10.079  0.00  0.00    -0.327 N 
ATOM     28  H   UNL     1       4.828  -8.686  -9.260  0.00  0.00    +0.145 HD
ATOM     29  H   UNL     1       6.441  -3.261 -10.099  0.00  0.00    +0.145 HD
ATOM     30  H   UNL     1       7.104  -4.759 -10.468  0.00  0.00    +0.145 HD
ATOM     31  H   UNL     1       3.354  -8.586  -8.461  0.00  0.00    +0.145 HD
ENDBRANCH  19  20
BRANCH  19  32
ATOM     32  C   UNL     1       1.585  -3.043  -8.837  0.00  0.00    +0.082 C 
ATOM     33  N   UNL     1       1.121  -2.386  -9.639  0.00  0.00    -0.195 NA
ENDBRANCH  19  32
ENDBRANCH   1  19
TORSDOF 8
