REMARK  Name = ZINC64920964
REMARK  6 active torsions:
REMARK  status: ('A' for Active; 'I' for Inactive)
REMARK    1  A    between atoms: C_1  and  C_2
REMARK    2  A    between atoms: C_7  and  S_8
REMARK    3  A    between atoms: S_8  and  N_11
REMARK    4  A    between atoms: C_15  and  C_17
REMARK    5  A    between atoms: N_19  and  C_20
REMARK    6  A    between atoms: C_29  and  C_34
REMARK                            x       y       z     vdW  Elec       q    Type
REMARK                         _______ _______ _______ _____ _____    ______ ____
ROOT
ATOM      1  S   UNL     1      -0.723   1.499   3.207  0.00  0.00    +0.062 S 
ATOM      2  O   UNL     1      -1.161   0.149   3.283  0.00  0.00    -0.153 OA
ATOM      3  O   UNL     1      -1.092   2.361   2.139  0.00  0.00    -0.153 OA
ENDROOT
BRANCH   1  10
ATOM      4  C   UNL     1      -0.299   0.355   5.969  0.00  0.00    +0.046 C 
ATOM      5  C   UNL     1      -1.012   1.681   5.914  0.00  0.00    -0.022 A 
ATOM      6  C   UNL     1      -1.419   2.295   7.085  0.00  0.00    +0.032 A 
ATOM      7  C   UNL     1      -2.074   3.514   7.032  0.00  0.00    +0.076 A 
ATOM      8  C   UNL     1      -2.322   4.119   5.801  0.00  0.00    +0.145 A 
ATOM      9  C   UNL     1      -1.911   3.499   4.633  0.00  0.00    +0.076 A 
ATOM     10  C   UNL     1      -1.252   2.284   4.693  0.00  0.00    +0.112 A 
ATOM     11  O   UNL     1      -2.969   5.314   5.761  0.00  0.00    -0.478 OA
ATOM     12  C   UNL     1      -3.950   5.549   6.774  0.00  0.00    +0.256 C 
ATOM     13  C   UNL     1      -3.392   5.159   8.120  0.00  0.00    +0.258 C 
ATOM     14  O   UNL     1      -3.747   5.747   9.119  0.00  0.00    -0.271 OA
ATOM     15  N   UNL     1      -2.495   4.153   8.207  0.00  0.00    -0.280 N 
ATOM     16  C   UNL     1      -4.323   7.032   6.789  0.00  0.00    +0.062 C 
ATOM     17  H   UNL     1      -2.147   3.877   9.069  0.00  0.00    +0.155 HD
ENDBRANCH   1  10
BRANCH   1  18
ATOM     18  N   UNL     1       0.932   1.462   3.236  0.00  0.00    -0.165 NA
ATOM     19  C   UNL     1       1.759   0.320   3.667  0.00  0.00    +0.110 C 
ATOM     20  C   UNL     1       3.117   0.521   2.950  0.00  0.00    +0.019 C 
ATOM     21  C   UNL     1       3.272   2.064   3.003  0.00  0.00    +0.031 C 
ATOM     22  C   UNL     1       1.821   2.560   2.829  0.00  0.00    +0.165 C 
BRANCH  22  23
ATOM     23  C   UNL     1       1.568   2.918   1.387  0.00  0.00    +0.232 C 
ATOM     24  O   UNL     1       1.174   2.072   0.613  0.00  0.00    -0.274 OA
ATOM     25  N   UNL     1       1.778   4.178   0.959  0.00  0.00    -0.311 N 
ATOM     26  H   UNL     1       2.163   4.837   1.558  0.00  0.00    +0.149 HD
BRANCH  25  27
ATOM     27  C   UNL     1       1.427   4.553  -0.413  0.00  0.00    +0.073 C 
ATOM     28  C   UNL     1       2.582   4.196  -1.351  0.00  0.00    +0.022 C 
ATOM     29  C   UNL     1       2.087   4.209  -2.799  0.00  0.00    +0.002 C 
ATOM     30  C   UNL     1       0.731   3.504  -2.881  0.00  0.00    +0.000 C 
ATOM     31  C   UNL     1      -0.353   4.522  -3.240  0.00  0.00    +0.000 C 
ATOM     32  C   UNL     1      -0.686   5.367  -2.008  0.00  0.00    +0.000 C 
ATOM     33  C   UNL     1       0.426   6.392  -1.777  0.00  0.00    +0.002 C 
ATOM     34  C   UNL     1       1.165   6.059  -0.479  0.00  0.00    +0.022 C 
ENDBRANCH  25  27
ENDBRANCH  22  23
ENDBRANCH   1  18
TORSDOF 4
