REMARK  Name = ZINC24506020
REMARK  4 active torsions:
REMARK  status: ('A' for Active; 'I' for Inactive)
REMARK    1  A    between atoms: C_4  and  N_7
REMARK    2  A    between atoms: C_8  and  S_12
REMARK    3  A    between atoms: S_12  and  C_13
REMARK    4  A    between atoms: C_13  and  C_14
REMARK                            x       y       z     vdW  Elec       q    Type
REMARK                         _______ _______ _______ _____ _____    ______ ____
ROOT
ATOM      1  C   UNL     1       6.215  -2.781  -1.945  0.00  0.00    +0.153 C 
ENDROOT
BRANCH   1   2
ATOM      2  C   UNL     1       7.085  -3.386  -0.873  0.00  0.00    +0.146 A 
ATOM      3  N   UNL     1       8.114  -2.706  -0.399  0.00  0.00    -0.199 NA
ATOM      4  C   UNL     1       8.884  -3.237   0.548  0.00  0.00    +0.217 A 
ATOM      5  N   UNL     1       8.617  -4.451   1.017  0.00  0.00    -0.181 NA
ATOM      6  C   UNL     1       7.581  -5.131   0.537  0.00  0.00    +0.217 A 
ATOM      7  N   UNL     1       6.812  -4.592  -0.406  0.00  0.00    -0.199 NA
ATOM      8  N   UNL     1       7.299  -6.393   1.020  0.00  0.00    -0.327 N 
ATOM      9  N   UNL     1       9.960  -2.527   1.043  0.00  0.00    -0.327 N 
ATOM     10  H   UNL     1       7.858  -6.784   1.710  0.00  0.00    +0.145 HD
ATOM     11  H   UNL     1       6.543  -6.888   0.670  0.00  0.00    +0.145 HD
ATOM     12  H   UNL     1      10.155  -1.641   0.700  0.00  0.00    +0.145 HD
ATOM     13  H   UNL     1      10.521  -2.915   1.733  0.00  0.00    +0.145 HD
ENDBRANCH   1   2
BRANCH   1  14
ATOM     14  S   UNL     1       4.865  -1.847  -1.172  0.00  0.00    -0.077 S 
BRANCH  14  16
ATOM     15  N   UNL     1       2.839  -0.440  -2.473  0.00  0.00    -0.217 N 
ATOM     16  C   UNL     1       3.951  -1.211  -2.538  0.00  0.00    +0.210 A 
ATOM     17  N   UNL     1       4.220  -1.394  -3.812  0.00  0.00    -0.101 NA
ATOM     18  N   UNL     1       3.355  -0.793  -4.546  0.00  0.00    -0.022 NA
ATOM     19  N   UNL     1       2.481  -0.196  -3.810  0.00  0.00    -0.043 NA
BRANCH  15  23
ATOM     20  C   UNL     1      -0.019   1.526   0.010  0.00  0.00    +0.000 C 
ATOM     21  C   UNL     1       1.417   2.055  -0.000  0.00  0.00    +0.002 C 
ATOM     22  C   UNL     1       2.133   1.562  -1.259  0.00  0.00    +0.027 C 
ATOM     23  C   UNL     1       2.154   0.032  -1.268  0.00  0.00    +0.112 C 
ATOM     24  C   UNL     1       0.718  -0.497  -1.257  0.00  0.00    +0.027 C 
ATOM     25  C   UNL     1       0.002  -0.004   0.002  0.00  0.00    +0.002 C 
ENDBRANCH  15  23
ENDBRANCH  14  16
ENDBRANCH   1  14
TORSDOF 4
