REMARK  Name = ZINC15125405
REMARK  7 active torsions:
REMARK  status: ('A' for Active; 'I' for Inactive)
REMARK    1  A    between atoms: C_1  and  C_2
REMARK    2  A    between atoms: C_3  and  N_11
REMARK    3  A    between atoms: C_7  and  N_8
REMARK    4  A    between atoms: C_12  and  C_14
REMARK    5  A    between atoms: C_14  and  N_15
REMARK    6  A    between atoms: N_15  and  C_16
REMARK    7  A    between atoms: C_20  and  C_22
REMARK                            x       y       z     vdW  Elec       q    Type
REMARK                         _______ _______ _______ _____ _____    ______ ____
ROOT
ATOM      1  N   UNL     1      -0.411   0.193  -2.476  0.00  0.00    -0.284 N 
ATOM      2  C   UNL     1      -0.694  -0.488  -3.604  0.00  0.00    +0.234 C 
ATOM      3  O   UNL     1      -0.662  -1.700  -3.606  0.00  0.00    -0.274 OA
ATOM      4  H   UNL     1      -0.384   1.162  -2.489  0.00  0.00    +0.155 HD
ENDROOT
BRANCH   1   7
ATOM      5  C   UNL     1      -1.255   1.371  -0.027  0.00  0.00    +0.048 C 
ATOM      6  C   UNL     1      -0.550   0.040  -0.070  0.00  0.00    +0.001 A 
ATOM      7  C   UNL     1      -0.155  -0.499  -1.287  0.00  0.00    +0.039 A 
ATOM      8  C   UNL     1       0.495  -1.726  -1.322  0.00  0.00    +0.024 A 
ATOM      9  C   UNL     1       0.746  -2.407  -0.147  0.00  0.00    +0.004 A 
ATOM     10  C   UNL     1       0.350  -1.868   1.064  0.00  0.00    +0.033 A 
ATOM     11  C   UNL     1      -0.292  -0.643   1.102  0.00  0.00    +0.131 A 
BRANCH  11  12
ATOM     12  N   UNL     1      -0.707  -0.067   2.401  0.00  0.00    +0.057 N 
ATOM     13  O   UNL     1      -0.803   1.131   2.527  0.00  0.00    -0.126 OA
ATOM     14  O   UNL     1      -0.951  -0.795   3.335  0.00  0.00    -0.126 OA
ENDBRANCH  11  12
ENDBRANCH   1   7
BRANCH   2  15
ATOM     15  C   UNL     1      -1.050   0.257  -4.865  0.00  0.00    +0.198 C 
BRANCH  15  16
ATOM     16  N   UNL     1      -1.312  -0.701  -5.941  0.00  0.00    -0.335 N 
ATOM     17  H   UNL     1      -1.242  -1.653  -5.771  0.00  0.00    +0.147 HD
BRANCH  16  18
ATOM     18  C   UNL     1      -1.665  -0.244  -7.214  0.00  0.00    +0.028 A 
ATOM     19  C   UNL     1      -1.761   1.120  -7.461  0.00  0.00    +0.024 A 
ATOM     20  C   UNL     1      -2.109   1.569  -8.720  0.00  0.00    +0.017 A 
ATOM     21  C   UNL     1      -2.361   0.663  -9.734  0.00  0.00    +0.030 A 
ATOM     22  C   UNL     1      -2.266  -0.696  -9.491  0.00  0.00    +0.070 A 
ATOM     23  C   UNL     1      -1.913  -1.151  -8.235  0.00  0.00    +0.036 A 
ATOM     24 BR   UNL     1      -2.837   1.282 -11.456  0.00  0.00    -0.050 Br
BRANCH  22  25
ATOM     25  C   UNL     1      -2.542  -1.680 -10.598  0.00  0.00    +0.418 C 
ATOM     26  F   UNL     1      -2.383  -2.983 -10.114  0.00  0.00    -0.166 F 
ATOM     27  F   UNL     1      -3.852  -1.509 -11.058  0.00  0.00    -0.166 F 
ATOM     28  F   UNL     1      -1.647  -1.461 -11.651  0.00  0.00    -0.166 F 
ENDBRANCH  22  25
ENDBRANCH  16  18
ENDBRANCH  15  16
ENDBRANCH   2  15
TORSDOF 6
