REMARK  Name = ZINC15786424
REMARK  7 active torsions:
REMARK  status: ('A' for Active; 'I' for Inactive)
REMARK    1  A    between atoms: C_1  and  C_2
REMARK    2  A    between atoms: C_5  and  N_8
REMARK    3  A    between atoms: N_11  and  C_28
REMARK    4  A    between atoms: C_14  and  C_16
REMARK    5  A    between atoms: N_18  and  C_19
REMARK    6  A    between atoms: C_22  and  O_26
REMARK    7  A    between atoms: O_26  and  C_27
REMARK                            x       y       z     vdW  Elec       q    Type
REMARK                         _______ _______ _______ _____ _____    ______ ____
ROOT
ATOM      1  N   UNL     1      -1.455   3.325   2.570  0.00  0.00    -0.181 N 
ATOM      2  C   UNL     1      -1.140   2.890   1.340  0.00  0.00    +0.353 A 
ATOM      3  O   UNL     1      -0.962   3.699   0.450  0.00  0.00    -0.244 OA
ATOM      4  N   UNL     1      -1.025   1.574   1.071  0.00  0.00    -0.261 N 
ATOM      5  C   UNL     1      -1.222   0.687   2.074  0.00  0.00    +0.287 A 
ATOM      6  O   UNL     1      -1.124  -0.510   1.883  0.00  0.00    -0.265 OA
ATOM      7  C   UNL     1      -1.559   1.223   3.407  0.00  0.00    +0.211 A 
ATOM      8  N   UNL     1      -1.651   2.527   3.557  0.00  0.00    -0.152 NA
ATOM      9  C   UNL     1      -0.688   1.114  -0.278  0.00  0.00    +0.157 C 
ENDROOT
BRANCH   1  14
ATOM     10  C   UNL     1      -1.908   8.910   3.453  0.00  0.00    +0.044 C 
ATOM     11  C   UNL     1      -1.788   7.426   3.219  0.00  0.00    -0.050 A 
ATOM     12  C   UNL     1      -2.428   6.844   2.140  0.00  0.00    +0.005 A 
ATOM     13  C   UNL     1      -2.320   5.485   1.922  0.00  0.00    +0.028 A 
ATOM     14  C   UNL     1      -1.567   4.702   2.788  0.00  0.00    +0.071 A 
ATOM     15  C   UNL     1      -0.929   5.289   3.874  0.00  0.00    +0.028 A 
ATOM     16  C   UNL     1      -1.037   6.650   4.083  0.00  0.00    +0.005 A 
ENDBRANCH   1  14
BRANCH   7  17
ATOM     17  C   UNL     1      -1.786   0.316   4.546  0.00  0.00    +0.274 C 
ATOM     18  O   UNL     1      -1.697  -0.887   4.393  0.00  0.00    -0.268 OA
ATOM     19  N   UNL     1      -2.093   0.820   5.758  0.00  0.00    -0.280 N 
ATOM     20  H   UNL     1      -2.106   1.780   5.895  0.00  0.00    +0.155 HD
BRANCH  19  21
ATOM     21  C   UNL     1      -2.394  -0.042   6.819  0.00  0.00    +0.035 A 
ATOM     22  C   UNL     1      -3.349   0.321   7.760  0.00  0.00    +0.027 A 
ATOM     23  C   UNL     1      -3.650  -0.532   8.803  0.00  0.00    +0.049 A 
ATOM     24  C   UNL     1      -2.990  -1.747   8.919  0.00  0.00    +0.138 A 
ATOM     25  C   UNL     1      -2.030  -2.108   7.983  0.00  0.00    +0.084 A 
ATOM     26  C   UNL     1      -1.733  -1.258   6.935  0.00  0.00    +0.047 A 
ATOM     27 CL   UNL     1      -1.205  -3.628   8.129  0.00  0.00    -0.080 Cl
BRANCH  24  28
ATOM     28  O   UNL     1      -3.282  -2.583   9.951  0.00  0.00    -0.494 OA
ATOM     29  C   UNL     1      -4.279  -2.148  10.877  0.00  0.00    +0.277 C 
ENDBRANCH  24  28
ENDBRANCH  19  21
ENDBRANCH   7  17
TORSDOF 4
