REMARK  Name = ZINC04150125
REMARK  6 active torsions:
REMARK  status: ('A' for Active; 'I' for Inactive)
REMARK    1  A    between atoms: C_1  and  C_2
REMARK    2  A    between atoms: C_8  and  C_15
REMARK    3  A    between atoms: C_8  and  C_16
REMARK    4  A    between atoms: C_9  and  C_13
REMARK    5  A    between atoms: C_10  and  N_12
REMARK    6  A    between atoms: C_20  and  N_22
REMARK                            x       y       z     vdW  Elec       q    Type
REMARK                         _______ _______ _______ _____ _____    ______ ____
ROOT
ATOM      1  C   UNL     1      -0.018   1.503   0.010  0.00  0.00    +0.063 C 
ATOM      2  C   UNL     1       0.002  -0.004   0.002  0.00  0.00    +0.051 C 
ATOM      3  N   UNL     1       0.008  -0.776  -1.037  0.00  0.00    -0.155 NA
ATOM      4  N   UNL     1       0.058  -2.128  -0.698  0.00  0.00    -0.115 NA
ATOM      5  C   UNL     1       0.132  -2.303   0.571  0.00  0.00    +0.227 C 
ATOM      6  C   UNL     1       0.026  -0.917   1.204  0.00  0.00    +0.138 C 
ATOM      7  C   UNL     1       1.312  -0.734   2.018  0.00  0.00    +0.049 C 
ATOM      8  C   UNL     1       1.615  -2.017   2.745  0.00  0.00    +0.098 C 
ATOM      9  C   UNL     1       1.131  -3.225   2.392  0.00  0.00    +0.200 C 
ATOM     10  O   UNL     1       0.289  -3.404   1.336  0.00  0.00    -0.425 OA
ATOM     11  C   UNL     1       2.469  -0.392   1.077  0.00  0.00    +0.023 C 
ENDROOT
BRANCH   7  12
ATOM     12  C   UNL     1       1.123   0.380   3.016  0.00  0.00    -0.033 A 
ATOM     13  C   UNL     1      -0.084   1.049   3.085  0.00  0.00    +0.005 A 
ATOM     14  C   UNL     1      -0.257   2.070   4.000  0.00  0.00    +0.003 A 
ATOM     15  C   UNL     1       0.778   2.422   4.847  0.00  0.00    +0.033 A 
ATOM     16  C   UNL     1       1.985   1.752   4.779  0.00  0.00    +0.126 A 
ATOM     17  C   UNL     1       2.156   0.728   3.866  0.00  0.00    +0.037 A 
BRANCH  16  18
ATOM     18  N   UNL     1       3.093   2.130   5.685  0.00  0.00    +0.056 N 
ATOM     19  O   UNL     1       2.942   3.023   6.485  0.00  0.00    -0.126 OA
ATOM     20  O   UNL     1       4.149   1.544   5.625  0.00  0.00    -0.126 OA
ENDBRANCH  16  18
ENDBRANCH   7  12
BRANCH   9  21
ATOM     21  N   UNL     1       1.497  -4.322   3.132  0.00  0.00    -0.328 N 
ATOM     22  H   UNL     1       2.092  -4.218   3.892  0.00  0.00    +0.145 HD
ATOM     23  H   UNL     1       1.160  -5.200   2.897  0.00  0.00    +0.145 HD
ENDBRANCH   9  21
BRANCH   8  24
ATOM     24  C   UNL     1       2.476  -1.950   3.888  0.00  0.00    +0.101 C 
ATOM     25  N   UNL     1       3.159  -1.897   4.794  0.00  0.00    -0.191 NA
ENDBRANCH   8  24
TORSDOF 4
