REMARK  Name = ZINC38132055
REMARK  6 active torsions:
REMARK  status: ('A' for Active; 'I' for Inactive)
REMARK    1  A    between atoms: C_1  and  N_2
REMARK    2  A    between atoms: N_2  and  C_3
REMARK    3  A    between atoms: C_3  and  C_5
REMARK    4  A    between atoms: C_3  and  C_15
REMARK    5  A    between atoms: C_5  and  C_6
REMARK    6  A    between atoms: C_11  and  N_12
REMARK                            x       y       z     vdW  Elec       q    Type
REMARK                         _______ _______ _______ _____ _____    ______ ____
ROOT
ATOM      1  C   UNL     1      -1.379  -0.479   0.162  0.00  0.00    -0.037 C 
ENDROOT
BRANCH   1   2
ATOM      2  C   UNL     1      -1.493  -1.934   0.538  0.00  0.00    -0.058 A 
ATOM      3  C   UNL     1      -0.681  -2.871  -0.074  0.00  0.00    +0.022 A 
ATOM      4  C   UNL     1      -0.785  -4.207   0.271  0.00  0.00    +0.043 A 
ATOM      5  C   UNL     1      -1.701  -4.605   1.228  0.00  0.00    +0.040 A 
ATOM      6  C   UNL     1      -2.513  -3.667   1.839  0.00  0.00    +0.043 A 
ATOM      7  C   UNL     1      -2.405  -2.330   1.498  0.00  0.00    +0.022 A 
ATOM      8 CL   UNL     1      -3.664  -4.165   3.040  0.00  0.00    -0.083 Cl
ATOM      9 CL   UNL     1       0.234  -5.383  -0.498  0.00  0.00    -0.083 Cl
ENDBRANCH   1   2
BRANCH   1  11
ATOM     10  C   UNL     1       0.159   1.317  -0.242  0.00  0.00    -0.100 C 
ATOM     11  N   UNL     1       0.035  -0.131  -0.026  0.00  0.00    +0.382 N 
ATOM     12  H   UNL     1       0.399  -0.623  -0.828  0.00  0.00    -0.085 HD
ATOM     13  H   UNL     1       0.558  -0.394   0.795  0.00  0.00    -0.085 HD
ENDBRANCH   1  11
BRANCH   1  14
ATOM     14  C   UNL     1      -2.144  -0.228  -1.140  0.00  0.00    +0.026 C 
BRANCH  14  15
ATOM     15  C   UNL     1      -3.607  -0.520  -0.927  0.00  0.00    -0.018 A 
ATOM     16  C   UNL     1      -4.146  -1.710  -1.379  0.00  0.00    +0.006 A 
ATOM     17  C   UNL     1      -5.488  -1.978  -1.184  0.00  0.00    +0.000 A 
ATOM     18  C   UNL     1      -6.291  -1.057  -0.538  0.00  0.00    +0.002 A 
ATOM     19  C   UNL     1      -5.751   0.133  -0.086  0.00  0.00    +0.033 A 
ATOM     20  C   UNL     1      -4.408   0.399  -0.277  0.00  0.00    +0.129 A 
BRANCH  20  21
ATOM     21  N   UNL     1      -3.829   1.671   0.212  0.00  0.00    +0.057 N 
ATOM     22  O   UNL     1      -4.505   2.431   0.865  0.00  0.00    -0.126 OA
ATOM     23  O   UNL     1      -2.680   1.949  -0.041  0.00  0.00    -0.126 OA
ENDBRANCH  20  21
ENDBRANCH  14  15
ENDBRANCH   1  14
TORSDOF 5
