REMARK  Name = ZINC20701352
REMARK  4 active torsions:
REMARK  status: ('A' for Active; 'I' for Inactive)
REMARK    1  A    between atoms: C_6  and  S_7
REMARK    2  A    between atoms: S_7  and  N_10
REMARK    3  A    between atoms: C_22  and  C_25
REMARK    4  A    between atoms: C_30  and  O_31
REMARK                            x       y       z     vdW  Elec       q    Type
REMARK                         _______ _______ _______ _____ _____    ______ ____
ROOT
ATOM      1  C   UNL     1      -0.550  -1.472  -3.063  0.00  0.00    +0.030 A 
ATOM      2  C   UNL     1      -1.217  -2.622  -3.433  0.00  0.00    +0.025 A 
ATOM      3  C   UNL     1      -2.496  -2.548  -3.971  0.00  0.00    +0.031 A 
ATOM      4  C   UNL     1      -3.095  -1.294  -4.139  0.00  0.00    -0.018 A 
ATOM      5  C   UNL     1      -2.425  -0.153  -3.757  0.00  0.00    +0.034 A 
ATOM      6  C   UNL     1      -1.154  -0.238  -3.216  0.00  0.00    +0.106 A 
ATOM      7  C   UNL     1      -4.440  -1.257  -4.754  0.00  0.00    +0.049 C 
ATOM      8  C   UNL     1      -5.417  -0.153  -4.509  0.00  0.00    -0.023 C 
ATOM      9  C   UNL     1      -6.649  -0.644  -4.548  0.00  0.00    -0.030 C 
ATOM     10  C   UNL     1      -6.605  -2.149  -4.819  0.00  0.00    +0.033 C 
ATOM     11  C   UNL     1      -5.218  -2.519  -4.275  0.00  0.00    +0.029 C 
ATOM     12  C   UNL     1      -4.513  -3.699  -4.920  0.00  0.00    +0.109 C 
ATOM     13  N   UNL     1      -3.160  -3.729  -4.324  0.00  0.00    -0.336 N 
ATOM     14  H   UNL     1      -2.657  -4.692  -4.150  0.00  0.00    +0.147 HD
ENDROOT
BRANCH  12  15
ATOM     15  C   UNL     1      -4.420  -3.498  -6.411  0.00  0.00    +0.017 A 
ATOM     16  C   UNL     1      -3.314  -2.875  -6.957  0.00  0.00    +0.029 A 
ATOM     17  C   UNL     1      -3.228  -2.690  -8.325  0.00  0.00    +0.043 A 
ATOM     18  C   UNL     1      -4.249  -3.128  -9.150  0.00  0.00    +0.043 A 
ATOM     19  C   UNL     1      -5.357  -3.752  -8.608  0.00  0.00    +0.084 A 
ATOM     20  C   UNL     1      -5.442  -3.943  -7.236  0.00  0.00    +0.140 A 
ATOM     21 CL   UNL     1      -6.638  -4.302  -9.643  0.00  0.00    -0.080 Cl
ATOM     22 CL   UNL     1      -1.838  -1.907  -9.008  0.00  0.00    -0.083 Cl
BRANCH  20  23
ATOM     23  O   UNL     1      -6.528  -4.562  -6.701  0.00  0.00    -0.505 OA
ATOM     24  H   UNL     1      -7.338  -4.915  -7.356  0.00  0.00    +0.292 HD
ENDBRANCH  20  23
ENDBRANCH  12  15
BRANCH   6  25
ATOM     25  S   UNL     1      -0.304   1.227  -2.730  0.00  0.00    +0.061 S 
ATOM     26  O   UNL     1      -0.864   2.292  -3.486  0.00  0.00    -0.153 OA
ATOM     27  O   UNL     1       1.083   0.919  -2.759  0.00  0.00    -0.153 OA
BRANCH  25  28
ATOM     28  N   UNL     1      -0.692   1.515  -1.146  0.00  0.00    -0.177 NA
ATOM     29  C   UNL     1       0.042   1.006   0.022  0.00  0.00    +0.109 C 
ATOM     30  C   UNL     1      -0.693   1.508   1.283  0.00  0.00    +0.018 C 
ATOM     31  C   UNL     1      -2.126   1.799   0.752  0.00  0.00    +0.018 C 
ATOM     32  C   UNL     1      -1.829   2.326  -0.674  0.00  0.00    +0.109 C 
ENDBRANCH  25  28
ENDBRANCH   6  25
TORSDOF 4
