REMARK  Name = ZINC39666488
REMARK  10 active torsions:
REMARK  status: ('A' for Active; 'I' for Inactive)
REMARK    1  A    between atoms: C_1  and  C_2
REMARK    2  A    between atoms: C_2  and  O_3
REMARK    3  A    between atoms: O_3  and  C_4
REMARK    4  A    between atoms: C_9  and  C_10
REMARK    5  A    between atoms: C_14  and  C_23
REMARK    6  A    between atoms: N_25  and  C_26
REMARK    7  A    between atoms: C_26  and  C_27
REMARK    8  A    between atoms: C_27  and  C_29
REMARK    9  A    between atoms: C_27  and  O_30
REMARK   10  A    between atoms: O_30  and  C_31
REMARK                            x       y       z     vdW  Elec       q    Type
REMARK                         _______ _______ _______ _____ _____    ______ ____
ROOT
ATOM      1  C   UNL     1       0.699  -2.473  -2.460  0.00  0.00    +0.250 C 
ATOM      2  O   UNL     1       0.682  -1.281  -2.221  0.00  0.00    -0.270 OA
ATOM      3  N   UNL     1       1.617  -2.977  -3.309  0.00  0.00    -0.296 N 
ATOM      4  C   UNL     1       1.748  -4.376  -3.778  0.00  0.00    +0.121 C 
ATOM      5  C   UNL     1       2.129  -4.254  -5.271  0.00  0.00    +0.100 C 
ATOM      6  C   UNL     1       2.769  -2.861  -5.399  0.00  0.00    -0.004 C 
ATOM      7  C   UNL     1       2.719  -2.255  -3.989  0.00  0.00    +0.115 C 
ATOM      8  C   UNL     1       1.967  -1.998  -6.367  0.00  0.00    -0.010 C 
ATOM      9  C   UNL     1       2.655  -0.638  -6.522  0.00  0.00    -0.082 C 
ATOM     10  N   UNL     1       4.021  -0.834  -7.025  0.00  0.00    +0.379 N 
ATOM     11  C   UNL     1       4.812  -1.587  -6.045  0.00  0.00    -0.082 C 
ATOM     12  C   UNL     1       4.215  -2.986  -5.870  0.00  0.00    -0.010 C 
ATOM     13  H   UNL     1       3.987  -1.346  -7.893  0.00  0.00    -0.086 HD
ATOM     14  H   UNL     1       4.451   0.065  -7.184  0.00  0.00    -0.086 HD
ENDROOT
BRANCH   1  20
ATOM     15  C   UNL     1      -1.480  -2.847  -1.306  0.00  0.00    +0.133 A 
ATOM     16  C   UNL     1      -2.401  -3.698  -0.714  0.00  0.00    +0.046 A 
ATOM     17  C   UNL     1      -2.139  -5.050  -0.628  0.00  0.00    +0.004 A 
ATOM     18  C   UNL     1      -0.956  -5.568  -1.131  0.00  0.00    +0.001 A 
ATOM     19  C   UNL     1      -0.030  -4.737  -1.723  0.00  0.00    +0.017 A 
ATOM     20  C   UNL     1      -0.286  -3.367  -1.822  0.00  0.00    +0.078 A 
BRANCH  15  21
ATOM     21  O   UNL     1      -1.737  -1.517  -1.391  0.00  0.00    -0.491 OA
BRANCH  21  23
ATOM     22  C   UNL     1      -3.087   0.455  -1.031  0.00  0.00    +0.048 C 
ATOM     23  C   UNL     1      -2.975  -1.060  -0.844  0.00  0.00    +0.226 C 
ENDBRANCH  21  23
ENDBRANCH  15  21
ENDBRANCH   1  20
BRANCH   5  24
ATOM     24  C   UNL     1       0.899  -4.349  -6.136  0.00  0.00    +0.218 C 
ATOM     25  O   UNL     1      -0.161  -3.919  -5.733  0.00  0.00    -0.275 OA
ATOM     26  N   UNL     1       0.976  -4.913  -7.357  0.00  0.00    -0.312 N 
ATOM     27  H   UNL     1       1.837  -5.189  -7.711  0.00  0.00    +0.149 HD
BRANCH  26  28
ATOM     28  C   UNL     1      -0.239  -5.110  -8.152  0.00  0.00    +0.148 C 
BRANCH  28  29
ATOM     29  C   UNL     1       0.106  -5.876  -9.431  0.00  0.00    +0.187 C 
ATOM     30  C   UNL     1      -1.148  -6.017 -10.295  0.00  0.00    +0.053 C 
BRANCH  29  31
ATOM     31  O   UNL     1       0.599  -7.173  -9.091  0.00  0.00    -0.486 OA
BRANCH  31  32
ATOM     32  C   UNL     1       1.397  -7.789 -10.003  0.00  0.00    +0.139 A 
ATOM     33  C   UNL     1       1.673  -7.171 -11.214  0.00  0.00    +0.047 A 
ATOM     34  C   UNL     1       2.485  -7.799 -12.139  0.00  0.00    +0.004 A 
ATOM     35  C   UNL     1       3.020  -9.043 -11.860  0.00  0.00    +0.002 A 
ATOM     36  C   UNL     1       2.746  -9.662 -10.655  0.00  0.00    +0.023 A 
ATOM     37  C   UNL     1       1.940  -9.036  -9.723  0.00  0.00    +0.083 A 
ATOM     38 CL   UNL     1       1.602  -9.810  -8.206  0.00  0.00    -0.080 Cl
ENDBRANCH  31  32
ENDBRANCH  29  31
ENDBRANCH  28  29
ENDBRANCH  26  28
ENDBRANCH   5  24
TORSDOF 8
