REMARK  Name = ZINC17096414
REMARK  4 active torsions:
REMARK  status: ('A' for Active; 'I' for Inactive)
REMARK    1  A    between atoms: C_1  and  C_2
REMARK    2  A    between atoms: C_4  and  C_29
REMARK    3  A    between atoms: C_14  and  C_17
REMARK    4  A    between atoms: C_22  and  C_23
REMARK                            x       y       z     vdW  Elec       q    Type
REMARK                         _______ _______ _______ _____ _____    ______ ____
ROOT
ATOM      1  C   UNL     1       8.842  -0.287  -2.773  0.00  0.00    +0.044 C 
ATOM      2  C   UNL     1       8.174  -1.096  -3.854  0.00  0.00    -0.037 A 
ATOM      3  C   UNL     1       8.873  -1.999  -4.634  0.00  0.00    +0.036 A 
ATOM      4  C   UNL     1       8.261  -2.741  -5.628  0.00  0.00    +0.145 A 
ATOM      5  N   UNL     1       6.965  -2.635  -5.894  0.00  0.00    -0.235 NA
ATOM      6  C   UNL     1       6.257  -1.790  -5.177  0.00  0.00    +0.112 A 
ATOM      7  C   UNL     1       6.787  -0.978  -4.136  0.00  0.00    +0.032 A 
ATOM      8  C   UNL     1       5.842  -0.106  -3.467  0.00  0.00    +0.058 A 
ATOM      9  C   UNL     1       4.524  -0.179  -3.909  0.00  0.00    +0.097 A 
ATOM     10  S   UNL     1       4.540  -1.371  -5.214  0.00  0.00    -0.062 S 
ATOM     11  C   UNL     1       3.470   0.577  -3.366  0.00  0.00    +0.254 C 
ATOM     12  O   UNL     1       2.369   0.629  -3.884  0.00  0.00    -0.270 OA
ATOM     13  N   UNL     1       3.768   1.244  -2.218  0.00  0.00    -0.289 N 
ATOM     14  C   UNL     1       5.027   0.975  -1.526  0.00  0.00    +0.193 C 
ATOM     15  N   UNL     1       6.156   0.799  -2.440  0.00  0.00    -0.321 N 
ATOM     16  H   UNL     1       3.147   1.897  -1.860  0.00  0.00    +0.151 HD
ATOM     17  H   UNL     1       6.457   1.685  -2.817  0.00  0.00    +0.148 HD
ENDROOT
BRANCH  14  18
ATOM     18  C   UNL     1       4.869  -0.277  -0.702  0.00  0.00    +0.036 A 
ATOM     19  C   UNL     1       5.826  -1.202  -0.470  0.00  0.00    +0.112 A 
ATOM     20  N   UNL     1       5.291  -2.169   0.305  0.00  0.00    -0.284 N 
ATOM     21  H   UNL     1       5.764  -2.986   0.635  0.00  0.00    +0.188 HD
ATOM     22  N   UNL     1       3.957  -1.831   0.567  0.00  0.00    -0.174 NA
ATOM     23  C   UNL     1       3.699  -0.689  -0.035  0.00  0.00    +0.099 A 
BRANCH  23  24
ATOM     24  C   UNL     1       2.402   0.033  -0.020  0.00  0.00    +0.002 A 
ATOM     25  C   UNL     1       1.205  -0.680  -0.013  0.00  0.00    +0.010 A 
ATOM     26  C   UNL     1       0.002  -0.004   0.002  0.00  0.00    +0.001 A 
ATOM     27  C   UNL     1      -0.017   1.379   0.010  0.00  0.00    +0.000 A 
ATOM     28  C   UNL     1       1.169   2.092   0.002  0.00  0.00    +0.001 A 
ATOM     29  C   UNL     1       2.377   1.426  -0.013  0.00  0.00    +0.010 A 
ENDBRANCH  23  24
ENDBRANCH  14  18
BRANCH   4  30
ATOM     30  C   UNL     1       9.093  -3.703  -6.436  0.00  0.00    +0.434 C 
ATOM     31  F   UNL     1       8.308  -4.260  -7.451  0.00  0.00    -0.164 F 
ATOM     32  F   UNL     1      10.175  -3.021  -7.003  0.00  0.00    -0.164 F 
ATOM     33  F   UNL     1       9.569  -4.721  -5.603  0.00  0.00    -0.164 F 
ENDBRANCH   4  30
TORSDOF 3
