REMARK  Name = ZINC13112549
REMARK  12 active torsions:
REMARK  status: ('A' for Active; 'I' for Inactive)
REMARK    1  A    between atoms: C_1  and  C_2
REMARK    2  A    between atoms: C_3  and  C_21
REMARK    3  A    between atoms: C_4  and  O_13
REMARK    4  A    between atoms: N_5  and  C_7
REMARK    5  A    between atoms: O_13  and  C_14
REMARK    6  A    between atoms: C_21  and  N_56
REMARK    7  A    between atoms: C_22  and  C_23
REMARK    8  A    between atoms: C_22  and  N_56
REMARK    9  A    between atoms: C_23  and  C_24
REMARK   10  A    between atoms: C_24  and  C_25
REMARK   11  A    between atoms: C_26  and  C_32
REMARK   12  A    between atoms: C_27  and  N_31
REMARK                            x       y       z     vdW  Elec       q    Type
REMARK                         _______ _______ _______ _____ _____    ______ ____
ROOT
ATOM      1  C   UNL     1       7.944  -1.465  -4.782  0.00  0.00    +0.068 C 
ATOM      2  C   UNL     1       8.190  -0.034  -5.184  0.00  0.00    +0.065 A 
ATOM      3  C   UNL     1       8.149   1.073  -4.331  0.00  0.00    +0.020 A 
ATOM      4  C   UNL     1       8.430   2.180  -5.069  0.00  0.00    +0.225 A 
ATOM      5  N   UNL     1       8.636   1.775  -6.351  0.00  0.00    -0.200 N 
ATOM      6  N   UNL     1       8.475   0.384  -6.391  0.00  0.00    -0.168 NA
ENDROOT
BRANCH   5   7
ATOM      7  C   UNL     1       8.951   2.601  -7.438  0.00  0.00    +0.069 A 
ATOM      8  C   UNL     1       8.313   3.825  -7.590  0.00  0.00    +0.028 A 
ATOM      9  C   UNL     1       8.631   4.640  -8.659  0.00  0.00    +0.002 A 
ATOM     10  C   UNL     1       9.575   4.233  -9.584  0.00  0.00    +0.000 A 
ATOM     11  C   UNL     1      10.208   3.012  -9.439  0.00  0.00    +0.002 A 
ATOM     12  C   UNL     1       9.899   2.195  -8.369  0.00  0.00    +0.028 A 
ENDBRANCH   5   7
BRANCH   4  13
ATOM     13  O   UNL     1       8.494   3.456  -4.611  0.00  0.00    -0.438 OA
BRANCH  13  14
ATOM     14  C   UNL     1       9.694   3.915  -4.168  0.00  0.00    +0.131 A 
ATOM     15  C   UNL     1      10.828   3.125  -4.289  0.00  0.00    +0.049 A 
ATOM     16  C   UNL     1      12.048   3.596  -3.844  0.00  0.00    +0.042 A 
ATOM     17  C   UNL     1      12.137   4.851  -3.267  0.00  0.00    +0.124 A 
ATOM     18  C   UNL     1      11.006   5.639  -3.139  0.00  0.00    +0.042 A 
ATOM     19  C   UNL     1       9.785   5.173  -3.589  0.00  0.00    +0.049 A 
ATOM     20  F   UNL     1      13.331   5.308  -2.828  0.00  0.00    -0.205 F 
ENDBRANCH  13  14
ENDBRANCH   4  13
BRANCH   3  21
ATOM     21  C   UNL     1       7.852   1.044  -2.854  0.00  0.00    -0.040 C 
BRANCH  21  22
ATOM     22  N   UNL     1       6.400   1.200  -2.649  0.00  0.00    +0.382 N 
ATOM     23  H   UNL     1       5.907   0.431  -3.119  0.00  0.00    -0.085 HD
ATOM     24  H   UNL     1       6.096   2.095  -3.049  0.00  0.00    -0.085 HD
BRANCH  22  25
ATOM     25  C   UNL     1       6.080   1.175  -1.210  0.00  0.00    -0.082 C 
BRANCH  25  26
ATOM     26  C   UNL     1       4.569   1.338  -1.029  0.00  0.00    -0.013 C 
BRANCH  26  27
ATOM     27  C   UNL     1       4.228   1.313   0.463  0.00  0.00    +0.057 C 
BRANCH  27  28
ATOM     28  C   UNL     1       2.741   1.474   0.640  0.00  0.00    +0.082 A 
ATOM     29  C   UNL     1       1.793   0.425   0.690  0.00  0.00    +0.113 A 
ATOM     30  C   UNL     1       0.544   1.013   0.864  0.00  0.00    +0.129 A 
ATOM     31  N   UNL     1       0.736   2.347   0.916  0.00  0.00    -0.263 N 
ATOM     32  H   UNL     1       0.022   3.037   1.035  0.00  0.00    +0.190 HD
ATOM     33  N   UNL     1       2.104   2.603   0.775  0.00  0.00    -0.176 NA
BRANCH  30  34
ATOM     34  N   UNL     1      -0.667   0.354   0.965  0.00  0.00    -0.342 N 
ATOM     35  H   UNL     1      -1.486   0.860   1.086  0.00  0.00    +0.144 HD
ATOM     36  H   UNL     1      -0.697  -0.614   0.916  0.00  0.00    +0.144 HD
ENDBRANCH  30  34
BRANCH  29  37
ATOM     37  C   UNL     1       2.068  -0.977   0.582  0.00  0.00    +0.104 C 
ATOM     38  N   UNL     1       2.285  -2.088   0.495  0.00  0.00    -0.191 NA
ENDBRANCH  29  37
ENDBRANCH  27  28
ENDBRANCH  26  27
ENDBRANCH  25  26
ENDBRANCH  22  25
ENDBRANCH  21  22
ENDBRANCH   3  21
TORSDOF 11
