REMARK  Name = ZINC43644428
REMARK  6 active torsions:
REMARK  status: ('A' for Active; 'I' for Inactive)
REMARK    1  A    between atoms: C_1  and  C_2
REMARK    2  A    between atoms: C_2  and  N_3
REMARK    3  A    between atoms: C_5  and  N_8
REMARK    4  A    between atoms: N_11  and  C_12
REMARK    5  A    between atoms: C_12  and  C_14
REMARK    6  A    between atoms: C_12  and  C_15
REMARK                            x       y       z     vdW  Elec       q    Type
REMARK                         _______ _______ _______ _____ _____    ______ ____
ROOT
ATOM      1  C   UNL     1      -7.627  -3.485  -0.839  0.00  0.00    +0.102 C 
ATOM      2  C   UNL     1      -8.489  -2.346  -1.388  0.00  0.00    +0.033 C 
ENDROOT
BRANCH   1   3
ATOM      3  C   UNL     1      -8.200  -4.807  -1.280  0.00  0.00    -0.025 A 
ATOM      4  C   UNL     1      -7.943  -5.279  -2.554  0.00  0.00    +0.009 A 
ATOM      5  C   UNL     1      -8.465  -6.492  -2.965  0.00  0.00    +0.048 A 
ATOM      6  C   UNL     1      -9.247  -7.236  -2.099  0.00  0.00    +0.142 A 
ATOM      7  C   UNL     1      -9.506  -6.760  -0.815  0.00  0.00    +0.076 A 
ATOM      8  C   UNL     1      -8.976  -5.547  -0.407  0.00  0.00    +0.032 A 
ATOM      9  N   UNL     1     -10.302  -7.522   0.051  0.00  0.00    -0.280 N 
ATOM     10  C   UNL     1     -10.536  -8.819  -0.245  0.00  0.00    +0.255 C 
ATOM     11  O   UNL     1     -11.247  -9.489   0.473  0.00  0.00    -0.272 OA
ATOM     12  C   UNL     1      -9.909  -9.430  -1.473  0.00  0.00    +0.325 C 
ATOM     13  O   UNL     1      -9.767  -8.431  -2.487  0.00  0.00    -0.481 OA
ATOM     14  H   UNL     1     -10.679  -7.124   0.852  0.00  0.00    +0.155 HD
ENDBRANCH   1   3
BRANCH   1  18
ATOM     15  N   UNL     1      -4.122  -2.428  -1.183  0.00  0.00    -0.267 N 
ATOM     16  C   UNL     1      -5.379  -2.551  -0.715  0.00  0.00    +0.304 C 
ATOM     17  O   UNL     1      -5.720  -1.941   0.280  0.00  0.00    -0.252 OA
ATOM     18  N   UNL     1      -6.260  -3.351  -1.349  0.00  0.00    -0.293 N 
ATOM     19  H   UNL     1      -3.850  -2.915  -1.977  0.00  0.00    +0.156 HD
ATOM     20  H   UNL     1      -5.988  -3.838  -2.142  0.00  0.00    +0.151 HD
BRANCH  15  23
ATOM     21  N   UNL     1      -1.372  -0.511   0.012  0.00  0.00    -0.270 N 
ATOM     22  C   UNL     1      -1.911  -1.378  -0.884  0.00  0.00    +0.131 A 
ATOM     23  C   UNL     1      -3.202  -1.592  -0.521  0.00  0.00    +0.072 A 
ATOM     24  C   UNL     1      -3.456  -0.833   0.630  0.00  0.00    +0.157 A 
ATOM     25  N   UNL     1      -2.362  -0.193   0.952  0.00  0.00    -0.178 NA
BRANCH  21  27
ATOM     26  C   UNL     1      -0.019   1.526   0.010  0.00  0.00    +0.029 C 
ATOM     27  C   UNL     1       0.002  -0.004   0.002  0.00  0.00    +0.140 C 
ENDBRANCH  21  27
ENDBRANCH  15  23
ENDBRANCH   1  18
TORSDOF 4
