REMARK  Name = ZINC20915330
REMARK  10 active torsions:
REMARK  status: ('A' for Active; 'I' for Inactive)
REMARK    1  A    between atoms: C_4  and  N_29
REMARK    2  A    between atoms: C_5  and  N_7
REMARK    3  A    between atoms: C_8  and  C_10
REMARK    4  A    between atoms: C_10  and  C_11
REMARK    5  A    between atoms: C_11  and  S_12
REMARK    6  A    between atoms: S_12  and  C_13
REMARK    7  A    between atoms: N_17  and  N_18
REMARK    8  A    between atoms: N_19  and  N_20
REMARK    9  A    between atoms: C_21  and  C_22
REMARK   10  A    between atoms: C_26  and  O_28
REMARK                            x       y       z     vdW  Elec       q    Type
REMARK                         _______ _______ _______ _____ _____    ______ ____
ROOT
ATOM      1  C   UNL     1      -3.943   9.679   0.150  0.00  0.00    +0.210 A 
ATOM      2  N   UNL     1      -4.576   8.530   0.133  0.00  0.00    -0.119 NA
ATOM      3  N   UNL     1      -3.618   7.508   0.119  0.00  0.00    -0.109 NA
ATOM      4  C   UNL     1      -2.431   8.065   0.136  0.00  0.00    +0.254 A 
ATOM      5  N   UNL     1      -2.602   9.422   0.152  0.00  0.00    -0.211 N 
ATOM      6  N   UNL     1      -1.216   7.396   0.132  0.00  0.00    -0.204 N 
ATOM      7  H   UNL     1      -0.274   7.965   0.142  0.00  0.00    +0.177 HD
ENDROOT
BRANCH   5   8
ATOM      8  N   UNL     1      -1.605  10.356   0.168  0.00  0.00    -0.294 N 
ATOM      9  H   UNL     1      -0.552  10.037   0.168  0.00  0.00    +0.163 HD
ATOM     10  H   UNL     1      -1.856  11.427   0.181  0.00  0.00    +0.163 HD
ENDBRANCH   5   8
BRANCH   6  11
ATOM     11  N   UNL     1      -1.187   5.996   0.114  0.00  0.00    -0.188 NA
ATOM     12  C   UNL     1      -0.049   5.369   0.111  0.00  0.00    +0.138 C 
BRANCH  12  13
ATOM     13  C   UNL     1      -0.019   3.895   0.092  0.00  0.00    -0.002 A 
ATOM     14  C   UNL     1      -1.214   3.169   0.078  0.00  0.00    +0.010 A 
ATOM     15  C   UNL     1      -1.181   1.791   0.055  0.00  0.00    +0.004 A 
ATOM     16  C   UNL     1       0.030   1.123   0.056  0.00  0.00    +0.045 A 
ATOM     17  C   UNL     1       1.222   1.835   0.070  0.00  0.00    +0.117 A 
ATOM     18  C   UNL     1       1.202   3.219   0.088  0.00  0.00    +0.054 A 
BRANCH  17  19
ATOM     19  O   UNL     1       2.409   1.173   0.066  0.00  0.00    -0.507 OA
ATOM     20  H   UNL     1       3.353   1.737   0.078  0.00  0.00    +0.292 HD
ENDBRANCH  17  19
ENDBRANCH  12  13
ENDBRANCH   6  11
BRANCH   1  21
ATOM     21  S   UNL     1      -4.692  11.273   0.166  0.00  0.00    -0.084 S 
BRANCH  21  22
ATOM     22  C   UNL     1      -6.472  10.922   0.155  0.00  0.00    +0.086 C 
BRANCH  22  23
ATOM     23  C   UNL     1      -7.252  12.239   0.168  0.00  0.00    +0.107 C 
BRANCH  23  25
ATOM     24  N   UNL     1      -9.617  12.962   0.167  0.00  0.00    -0.284 N 
ATOM     25  C   UNL     1      -8.730  11.947   0.159  0.00  0.00    +0.218 C 
ATOM     26  O   UNL     1      -9.122  10.800   0.143  0.00  0.00    -0.275 OA
ATOM     27  H   UNL     1      -9.264  14.000   0.254  0.00  0.00    +0.155 HD
BRANCH  24  32
ATOM     28  C   UNL     1     -12.873  11.299   0.560  0.00  0.00    +0.002 A 
ATOM     29  C   UNL     1     -13.695  12.166  -0.136  0.00  0.00    +0.002 A 
ATOM     30  C   UNL     1     -13.167  13.297  -0.731  0.00  0.00    +0.034 A 
ATOM     31  C   UNL     1     -11.815  13.563  -0.633  0.00  0.00    +0.147 A 
ATOM     32  C   UNL     1     -10.987  12.695   0.065  0.00  0.00    +0.064 A 
ATOM     33  C   UNL     1     -11.520  11.557   0.657  0.00  0.00    +0.025 A 
BRANCH  31  34
ATOM     34  N   UNL     1     -11.250  14.774  -1.271  0.00  0.00    +0.058 N 
ATOM     35  O   UNL     1     -11.989  15.586  -1.797  0.00  0.00    -0.126 OA
ATOM     36  O   UNL     1     -10.046  14.957  -1.270  0.00  0.00    -0.126 OA
ENDBRANCH  31  34
ENDBRANCH  24  32
ENDBRANCH  23  25
ENDBRANCH  22  23
ENDBRANCH  21  22
ENDBRANCH   1  21
TORSDOF 10
