REMARK  Name = ZINC39449532
REMARK  7 active torsions:
REMARK  status: ('A' for Active; 'I' for Inactive)
REMARK    1  A    between atoms: C_1  and  C_2
REMARK    2  A    between atoms: C_2  and  C_3
REMARK    3  A    between atoms: C_2  and  S_4
REMARK    4  A    between atoms: S_4  and  N_7
REMARK    5  A    between atoms: C_15  and  O_18
REMARK    6  A    between atoms: C_20  and  C_25
REMARK    7  A    between atoms: C_30  and  O_31
REMARK                            x       y       z     vdW  Elec       q    Type
REMARK                         _______ _______ _______ _____ _____    ______ ____
ROOT
ATOM      1  N   UNL     1       0.019  -0.136   2.768  0.00  0.00    -0.174 N 
ATOM      2  C   UNL     1       0.237   1.116   3.331  0.00  0.00    +0.134 A 
ATOM      3  C   UNL     1      -0.482   1.532   4.437  0.00  0.00    +0.083 A 
ATOM      4  C   UNL     1      -1.496   0.646   5.024  0.00  0.00    +0.099 A 
ATOM      5  C   UNL     1      -1.699  -0.620   4.431  0.00  0.00    +0.072 A 
ATOM      6  C   UNL     1      -0.896  -0.992   3.257  0.00  0.00    +0.281 A 
ATOM      7  O   UNL     1      -1.057  -2.078   2.730  0.00  0.00    -0.265 OA
ATOM      8  C   UNL     1      -2.655  -1.480   4.970  0.00  0.00    +0.062 A 
ATOM      9  C   UNL     1      -3.372  -1.044   6.077  0.00  0.00    +0.136 A 
ATOM     10  C   UNL     1      -3.117   0.219   6.606  0.00  0.00    +0.156 A 
ATOM     11  N   UNL     1      -2.209   1.013   6.081  0.00  0.00    -0.249 NA
ATOM     12  N   UNL     1      -0.238   2.775   4.989  0.00  0.00    -0.333 N 
ATOM     13  C   UNL     1       1.096   3.368   4.808  0.00  0.00    +0.112 C 
ATOM     14  C   UNL     1       1.427   3.356   3.312  0.00  0.00    +0.108 C 
ATOM     15  C   UNL     1       1.208   1.970   2.764  0.00  0.00    +0.185 C 
ATOM     16  O   UNL     1       1.874   1.582   1.824  0.00  0.00    -0.290 OA
ATOM     17  H   UNL     1      -0.929   3.244   5.483  0.00  0.00    +0.147 HD
ENDROOT
BRANCH  13  18
ATOM     18  C   UNL     1       2.119   2.560   5.564  0.00  0.00    +0.014 A 
ATOM     19  C   UNL     1       1.924   1.206   5.757  0.00  0.00    +0.009 A 
ATOM     20  C   UNL     1       2.862   0.463   6.450  0.00  0.00    +0.001 A 
ATOM     21  C   UNL     1       3.997   1.073   6.951  0.00  0.00    +0.004 A 
ATOM     22  C   UNL     1       4.197   2.427   6.760  0.00  0.00    +0.046 A 
ATOM     23  C   UNL     1       3.259   3.173   6.060  0.00  0.00    +0.122 A 
BRANCH  23  24
ATOM     24  O   UNL     1       3.456   4.503   5.866  0.00  0.00    -0.506 OA
ATOM     25  H   UNL     1       3.091   5.061   6.566  0.00  0.00    +0.292 HD
ENDBRANCH  23  24
ENDBRANCH  13  18
BRANCH   1  26
ATOM     26  S   UNL     1       0.912  -0.587   1.448  0.00  0.00    +0.060 S 
ATOM     27  O   UNL     1       0.804   0.507   0.547  0.00  0.00    -0.153 OA
ATOM     28  O   UNL     1       0.413  -1.869   1.093  0.00  0.00    -0.153 OA
BRANCH  26  30
ATOM     29  C   UNL     1       2.651  -1.691   3.247  0.00  0.00    +0.033 C 
ATOM     30  C   UNL     1       2.613  -0.726   2.061  0.00  0.00    +0.148 C 
ATOM     31  C   UNL     1       3.516  -1.255   0.944  0.00  0.00    +0.033 C 
ENDBRANCH  26  30
ENDBRANCH   1  26
BRANCH   9  32
ATOM     32  O   UNL     1      -4.316  -1.844   6.639  0.00  0.00    -0.505 OA
ATOM     33  H   UNL     1      -3.976  -2.423   7.335  0.00  0.00    +0.292 HD
ENDBRANCH   9  32
TORSDOF 5
