REMARK  Name = ZINC40744480
REMARK  10 active torsions:
REMARK  status: ('A' for Active; 'I' for Inactive)
REMARK    1  A    between atoms: C_1  and  C_2
REMARK    2  A    between atoms: C_7  and  C_8
REMARK    3  A    between atoms: C_8  and  O_9
REMARK    4  A    between atoms: O_9  and  C_10
REMARK    5  A    between atoms: C_15  and  C_16
REMARK    6  A    between atoms: C_16  and  N_17
REMARK    7  A    between atoms: N_17  and  C_18
REMARK    8  A    between atoms: C_18  and  C_19
REMARK    9  A    between atoms: C_19  and  N_20
REMARK   10  A    between atoms: C_21  and  C_23
REMARK                            x       y       z     vdW  Elec       q    Type
REMARK                         _______ _______ _______ _____ _____    ______ ____
ROOT
ATOM      1  N   UNL     1       1.461  -3.153   5.420  0.00  0.00    +0.383 N 
ATOM      2  H   UNL     1       1.772  -2.695   4.576  0.00  0.00    -0.085 HD
ATOM      3  H   UNL     1       2.076  -2.910   6.181  0.00  0.00    -0.085 HD
ENDROOT
BRANCH   1   4
ATOM      4  C   UNL     1       0.094  -2.720   5.737  0.00  0.00    -0.043 C 
BRANCH   4  10
ATOM      5  C   UNL     1       0.053  -0.377   4.844  0.00  0.00    +0.122 A 
ATOM      6  C   UNL     1       0.031   0.997   5.035  0.00  0.00    +0.046 A 
ATOM      7  C   UNL     1       0.035   1.516   6.315  0.00  0.00    +0.004 A 
ATOM      8  C   UNL     1       0.062   0.667   7.406  0.00  0.00    +0.000 A 
ATOM      9  C   UNL     1       0.086  -0.703   7.218  0.00  0.00    +0.005 A 
ATOM     10  C   UNL     1       0.075  -1.226   5.940  0.00  0.00    -0.023 A 
BRANCH   5  11
ATOM     11  O   UNL     1       0.048  -0.889   3.585  0.00  0.00    -0.487 OA
BRANCH  11  12
ATOM     12  C   UNL     1       0.025   0.045   2.504  0.00  0.00    +0.264 C 
BRANCH  12  19
ATOM     13  C   UNL     1      -0.018   1.503   0.010  0.00  0.00    +0.044 C 
ATOM     14  C   UNL     1       0.002  -0.004   0.002  0.00  0.00    -0.044 A 
ATOM     15  C   UNL     1       0.006  -0.689  -1.199  0.00  0.00    +0.004 A 
ATOM     16  C   UNL     1       0.025  -2.071  -1.207  0.00  0.00    +0.000 A 
ATOM     17  C   UNL     1       0.040  -2.768  -0.013  0.00  0.00    +0.000 A 
ATOM     18  C   UNL     1       0.037  -2.084   1.188  0.00  0.00    +0.007 A 
ATOM     19  C   UNL     1       0.023  -0.702   1.195  0.00  0.00    -0.007 A 
ENDBRANCH  12  19
ENDBRANCH  11  12
ENDBRANCH   5  11
ENDBRANCH   4  10
ENDBRANCH   1   4
BRANCH   1  20
ATOM     20  C   UNL     1       1.479  -4.609   5.221  0.00  0.00    -0.063 C 
BRANCH  20  21
ATOM     21  C   UNL     1       2.903  -5.061   4.891  0.00  0.00    +0.085 C 
BRANCH  21  22
ATOM     22  N   UNL     1       2.922  -6.512   4.693  0.00  0.00    -0.312 N 
ATOM     23  C   UNL     1       4.077  -7.137   4.391  0.00  0.00    +0.269 C 
ATOM     24  O   UNL     1       5.104  -6.496   4.282  0.00  0.00    -0.268 OA
ATOM     25  H   UNL     1       2.102  -7.024   4.780  0.00  0.00    +0.149 HD
BRANCH  23  26
ATOM     26  C   UNL     1       4.096  -8.604   4.191  0.00  0.00    +0.209 A 
ATOM     27  C   UNL     1       5.276  -9.413   3.865  0.00  0.00    +0.192 A 
ATOM     28  N   UNL     1       4.904 -10.660   3.766  0.00  0.00    -0.033 NA
ATOM     29  O   UNL     1       3.511 -10.720   4.015  0.00  0.00    -0.240 OA
ATOM     30  N   UNL     1       3.064  -9.403   4.280  0.00  0.00    -0.042 NA
ATOM     31  N   UNL     1       6.567  -8.933   3.691  0.00  0.00    -0.339 N 
ATOM     32  H   UNL     1       6.749  -7.985   3.785  0.00  0.00    +0.144 HD
ATOM     33  H   UNL     1       7.287  -9.546   3.476  0.00  0.00    +0.144 HD
ENDBRANCH  23  26
ENDBRANCH  21  22
ENDBRANCH  20  21
ENDBRANCH   1  20
TORSDOF 9
