REMARK  Name = ZINC39685889
REMARK  16 active torsions:
REMARK  status: ('A' for Active; 'I' for Inactive)
REMARK    1  A    between atoms: C_1  and  C_2
REMARK    2  A    between atoms: C_2  and  C_3
REMARK    3  A    between atoms: C_2  and  C_4
REMARK    4  A    between atoms: C_4  and  C_6
REMARK    5  A    between atoms: C_4  and  N_13
REMARK    6  A    between atoms: N_8  and  C_9
REMARK    7  A    between atoms: C_9  and  C_10
REMARK    8  A    between atoms: C_9  and  C_11
REMARK    9  A    between atoms: C_9  and  C_12
REMARK   10  A    between atoms: C_14  and  C_16
REMARK   11  A    between atoms: C_27  and  C_29
REMARK   12  A    between atoms: C_29  and  C_31
REMARK   13  A    between atoms: C_29  and  O_34
REMARK   14  A    between atoms: C_31  and  C_32
REMARK   15  A    between atoms: C_31  and  C_33
REMARK   16  A    between atoms: O_34  and  C_35
REMARK                            x       y       z     vdW  Elec       q    Type
REMARK                         _______ _______ _______ _____ _____    ______ ____
ROOT
ATOM      1  C   UNL     1      -1.029  -3.494   0.322  0.00  0.00    +0.100 C 
ATOM      2  C   UNL     1       0.502  -3.698   0.277  0.00  0.00    +0.121 C 
ATOM      3  N   UNL     1       0.982  -3.216   1.594  0.00  0.00    -0.297 N 
ATOM      4  C   UNL     1      -0.043  -3.686   2.555  0.00  0.00    +0.115 C 
ATOM      5  C   UNL     1      -1.383  -3.491   1.819  0.00  0.00    -0.004 C 
ATOM      6  C   UNL     1      -2.335  -4.640   2.139  0.00  0.00    -0.010 C 
ATOM      7  C   UNL     1      -2.718  -4.581   3.620  0.00  0.00    -0.082 C 
ATOM      8  N   UNL     1      -3.360  -3.293   3.911  0.00  0.00    +0.379 N 
ATOM      9  C   UNL     1      -2.407  -2.198   3.689  0.00  0.00    -0.082 C 
ATOM     10  C   UNL     1      -2.010  -2.156   2.211  0.00  0.00    -0.010 C 
ATOM     11  C   UNL     1       2.100  -2.510   1.857  0.00  0.00    +0.257 C 
ATOM     12  O   UNL     1       2.399  -2.255   3.004  0.00  0.00    -0.272 OA
ATOM     13  H   UNL     1      -4.157  -3.171   3.305  0.00  0.00    -0.086 HD
ATOM     14  H   UNL     1      -3.666  -3.281   4.872  0.00  0.00    -0.086 HD
ENDROOT
BRANCH   1  16
ATOM     15  N   UNL     1      -2.628  -2.009  -0.843  0.00  0.00    -0.303 N 
ATOM     16  C   UNL     1      -1.402  -2.177  -0.308  0.00  0.00    +0.219 C 
ATOM     17  O   UNL     1      -0.600  -1.268  -0.333  0.00  0.00    -0.275 OA
ATOM     18  H   UNL     1      -3.269  -2.736  -0.823  0.00  0.00    +0.149 HD
BRANCH  15  19
ATOM     19  C   UNL     1      -2.990  -0.728  -1.456  0.00  0.00    +0.161 C 
BRANCH  19  20
ATOM     20  C   UNL     1      -4.487  -0.558  -1.416  0.00  0.00    +0.234 C 
ATOM     21  O   UNL     1      -5.201  -1.518  -1.219  0.00  0.00    -0.274 OA
ATOM     22  N   UNL     1      -5.032   0.661  -1.598  0.00  0.00    -0.309 N 
ATOM     23  H   UNL     1      -4.460   1.440  -1.682  0.00  0.00    +0.149 HD
BRANCH  22  24
ATOM     24  C   UNL     1      -6.487   0.809  -1.670  0.00  0.00    +0.026 C 
ATOM     25  C   UNL     1      -7.115   0.315  -0.365  0.00  0.00    +0.031 C 
ATOM     26  C   UNL     1      -6.840   2.284  -1.879  0.00  0.00    +0.031 C 
ATOM     27  C   UNL     1      -7.027  -0.015  -2.840  0.00  0.00    +0.031 C 
ENDBRANCH  22  24
ENDBRANCH  19  20
BRANCH  19  29
ATOM     28  C   UNL     1      -0.985  -0.786  -2.945  0.00  0.00    +0.009 C 
ATOM     29  C   UNL     1      -2.513  -0.705  -2.909  0.00  0.00    +0.012 C 
ATOM     30  C   UNL     1      -3.105  -1.899  -3.659  0.00  0.00    +0.009 C 
ENDBRANCH  19  29
ENDBRANCH  15  19
ENDBRANCH   1  16
BRANCH  11  31
ATOM     31  C   UNL     1       2.977  -2.038   0.727  0.00  0.00    +0.261 C 
BRANCH  31  32
ATOM     32  C   UNL     1       3.960  -3.147   0.346  0.00  0.00    +0.033 C 
ATOM     33  C   UNL     1       3.184  -4.364  -0.160  0.00  0.00    +0.011 C 
ATOM     34  C   UNL     1       4.895  -2.644  -0.756  0.00  0.00    +0.011 C 
ENDBRANCH  31  32
BRANCH  31  35
ATOM     35  O   UNL     1       3.704  -0.878   1.139  0.00  0.00    -0.479 OA
BRANCH  35  36
ATOM     36  C   UNL     1       3.906   0.088   0.205  0.00  0.00    +0.122 A 
ATOM     37  C   UNL     1       3.387  -0.061  -1.073  0.00  0.00    +0.045 A 
ATOM     38  C   UNL     1       3.595   0.922  -2.020  0.00  0.00    +0.004 A 
ATOM     39  C   UNL     1       4.319   2.054  -1.696  0.00  0.00    +0.000 A 
ATOM     40  C   UNL     1       4.838   2.205  -0.423  0.00  0.00    +0.004 A 
ATOM     41  C   UNL     1       4.628   1.227   0.530  0.00  0.00    +0.045 A 
ENDBRANCH  35  36
ENDBRANCH  31  35
ENDBRANCH  11  31
TORSDOF 9
