REMARK  Name = ZINC18094186
REMARK  6 active torsions:
REMARK  status: ('A' for Active; 'I' for Inactive)
REMARK    1  A    between atoms: C_1  and  C_2
REMARK    2  A    between atoms: C_8  and  S_10
REMARK    3  A    between atoms: S_10  and  C_11
REMARK    4  A    between atoms: C_11  and  C_12
REMARK    5  A    between atoms: N_14  and  C_15
REMARK    6  A    between atoms: N_14  and  C_21
REMARK                            x       y       z     vdW  Elec       q    Type
REMARK                         _______ _______ _______ _____ _____    ______ ____
ROOT
ATOM      1  C   UNL     1      -1.142   2.071   0.224  0.00  0.00    +0.234 C 
ATOM      2  O   UNL     1      -2.231   1.538   0.208  0.00  0.00    -0.274 OA
ATOM      3  N   UNL     1      -0.026   1.328   0.080  0.00  0.00    -0.240 N 
ENDROOT
BRANCH   3   4
ATOM      4  C   UNL     1      -0.127  -0.041  -0.196  0.00  0.00    +0.041 A 
ATOM      5  C   UNL     1      -0.629  -0.909   0.764  0.00  0.00    +0.024 A 
ATOM      6  C   UNL     1      -0.733  -2.258   0.486  0.00  0.00    +0.002 A 
ATOM      7  C   UNL     1      -0.327  -2.746  -0.742  0.00  0.00    +0.000 A 
ATOM      8  C   UNL     1       0.179  -1.885  -1.698  0.00  0.00    +0.002 A 
ATOM      9  C   UNL     1       0.280  -0.534  -1.429  0.00  0.00    +0.024 A 
ENDBRANCH   3   4
BRANCH   3  10
ATOM     10  C   UNL     1       1.234   1.927   0.202  0.00  0.00    +0.041 A 
ATOM     11  C   UNL     1       1.666   2.839  -0.752  0.00  0.00    +0.024 A 
ATOM     12  C   UNL     1       2.906   3.432  -0.626  0.00  0.00    +0.002 A 
ATOM     13  C   UNL     1       3.724   3.110   0.442  0.00  0.00    +0.000 A 
ATOM     14  C   UNL     1       3.299   2.197   1.390  0.00  0.00    +0.002 A 
ATOM     15  C   UNL     1       2.057   1.605   1.273  0.00  0.00    +0.024 A 
ENDBRANCH   3  10
BRANCH   1  16
ATOM     16  C   UNL     1      -1.035   3.563   0.404  0.00  0.00    +0.174 C 
BRANCH  16  17
ATOM     17  S   UNL     1      -2.695   4.277   0.520  0.00  0.00    -0.078 S 
BRANCH  17  25
ATOM     18  C   UNL     1       0.798   7.992   0.913  0.00  0.00    +0.066 C 
ATOM     19  C   UNL     1      -0.661   7.614   0.892  0.00  0.00    +0.046 A 
ATOM     20  C   UNL     1      -1.617   8.579   1.026  0.00  0.00    +0.093 A 
ATOM     21  C   UNL     1      -2.971   8.203   1.004  0.00  0.00    +0.252 A 
ATOM     22  O   UNL     1      -3.851   9.040   1.121  0.00  0.00    -0.268 OA
ATOM     23  N   UNL     1      -3.279   6.897   0.850  0.00  0.00    -0.302 N 
ATOM     24  H   UNL     1      -4.207   6.615   0.832  0.00  0.00    +0.171 HD
ATOM     25  C   UNL     1      -2.283   5.978   0.720  0.00  0.00    +0.170 A 
ATOM     26  N   UNL     1      -1.014   6.339   0.748  0.00  0.00    -0.228 NA
ENDBRANCH  17  25
ENDBRANCH  16  17
ENDBRANCH   1  16
TORSDOF 5
