REMARK  Name = ZINC07635406
REMARK  6 active torsions:
REMARK  status: ('A' for Active; 'I' for Inactive)
REMARK    1  A    between atoms: C_1  and  C_2
REMARK    2  A    between atoms: C_2  and  C_4
REMARK    3  A    between atoms: C_2  and  S_18
REMARK    4  A    between atoms: C_4  and  C_6
REMARK    5  A    between atoms: C_6  and  C_16
REMARK    6  A    between atoms: S_18  and  C_19
REMARK                            x       y       z     vdW  Elec       q    Type
REMARK                         _______ _______ _______ _____ _____    ______ ____
ROOT
ATOM      1  C   UNL     1       2.412   0.976   0.700  0.00  0.00    +0.131 C 
ATOM      2  C   UNL     1       3.711   1.516   0.726  0.00  0.00    +0.114 C 
ATOM      3  N   UNL     1       4.091   2.678   0.136  0.00  0.00    -0.300 N 
ATOM      4  C   UNL     1       5.445   2.872   0.386  0.00  0.00    +0.054 A 
ATOM      5  C   UNL     1       6.340   3.872   0.033  0.00  0.00    +0.025 A 
ATOM      6  C   UNL     1       7.659   3.786   0.432  0.00  0.00    +0.002 A 
ATOM      7  C   UNL     1       8.093   2.707   1.183  0.00  0.00    +0.002 A 
ATOM      8  C   UNL     1       7.211   1.706   1.539  0.00  0.00    +0.025 A 
ATOM      9  C   UNL     1       5.882   1.783   1.143  0.00  0.00    +0.054 A 
ATOM     10  N   UNL     1       4.784   0.954   1.341  0.00  0.00    -0.300 N 
ATOM     11  H   UNL     1       3.516   3.272  -0.372  0.00  0.00    +0.153 HD
ATOM     12  H   UNL     1       4.784   0.118   1.833  0.00  0.00    +0.153 HD
ENDROOT
BRANCH   1  13
ATOM     13  C   UNL     1       1.382   1.655   0.028  0.00  0.00    +0.189 C 
ATOM     14  O   UNL     1       1.613   2.709  -0.532  0.00  0.00    -0.290 OA
BRANCH  13  16
ATOM     15  C   UNL     1      -0.760   1.493   1.266  0.00  0.00    +0.028 C 
ATOM     16  C   UNL     1      -0.009   1.076  -0.000  0.00  0.00    +0.120 C 
BRANCH  16  17
ATOM     17  S   UNL     1      -0.892   1.695  -1.459  0.00  0.00    -0.114 S 
BRANCH  17  18
ATOM     18  C   UNL     1      -2.400   0.783  -1.463  0.00  0.00    +0.009 A 
ATOM     19  C   UNL     1      -2.449  -0.477  -2.047  0.00  0.00    +0.017 A 
ATOM     20  C   UNL     1      -3.630  -1.192  -2.045  0.00  0.00    +0.039 A 
ATOM     21  C   UNL     1      -4.768  -0.650  -1.471  0.00  0.00    +0.123 A 
ATOM     22  C   UNL     1      -4.723   0.607  -0.893  0.00  0.00    +0.039 A 
ATOM     23  C   UNL     1      -3.542   1.324  -0.888  0.00  0.00    +0.017 A 
ATOM     24  F   UNL     1      -5.923  -1.350  -1.474  0.00  0.00    -0.205 F 
ENDBRANCH  17  18
ENDBRANCH  16  17
ENDBRANCH  13  16
ENDBRANCH   1  13
BRANCH   1  25
ATOM     25  C   UNL     1       2.140  -0.266   1.359  0.00  0.00    +0.106 C 
ATOM     26  N   UNL     1       1.924  -1.252   1.881  0.00  0.00    -0.191 NA
ENDBRANCH   1  25
TORSDOF 5
