REMARK  Name = ZINC20101775
REMARK  5 active torsions:
REMARK  status: ('A' for Active; 'I' for Inactive)
REMARK    1  A    between atoms: C_1  and  O_2
REMARK    2  A    between atoms: O_2  and  C_3
REMARK    3  A    between atoms: C_3  and  C_4
REMARK    4  A    between atoms: C_4  and  N_5
REMARK    5  A    between atoms: C_10  and  C_23
REMARK                            x       y       z     vdW  Elec       q    Type
REMARK                         _______ _______ _______ _____ _____    ______ ____
ROOT
ATOM      1  N   UNL     1       1.182   2.700   1.187  0.00  0.00    -0.269 NA
ATOM      2  C   UNL     1       1.347   1.500   0.347  0.00  0.00    +0.193 C 
ATOM      3  N   UNL     1       0.144   0.665   0.501  0.00  0.00    -0.304 N 
ATOM      4  C   UNL     1      -1.083   1.286   0.387  0.00  0.00    +0.189 C 
ATOM      5  N   UNL     1      -2.128   0.622  -0.006  0.00  0.00    -0.222 NA
ATOM      6  C   UNL     1      -3.418   1.278  -0.262  0.00  0.00    +0.277 C 
ATOM      7  N   UNL     1      -3.546   2.423   0.645  0.00  0.00    -0.282 N 
ATOM      8  C   UNL     1      -4.632   3.046   1.174  0.00  0.00    +0.072 A 
ATOM      9  C   UNL     1      -6.000   2.815   1.082  0.00  0.00    +0.028 A 
ATOM     10  C   UNL     1      -6.836   3.680   1.768  0.00  0.00    +0.002 A 
ATOM     11  C   UNL     1      -6.345   4.734   2.519  0.00  0.00    +0.002 A 
ATOM     12  C   UNL     1      -4.990   4.986   2.629  0.00  0.00    +0.030 A 
ATOM     13  C   UNL     1      -4.125   4.125   1.945  0.00  0.00    +0.091 A 
ATOM     14  N   UNL     1      -2.779   4.090   1.855  0.00  0.00    -0.214 NA
ATOM     15  C   UNL     1      -2.417   3.091   1.120  0.00  0.00    +0.209 A 
ATOM     16  N   UNL     1      -1.169   2.625   0.747  0.00  0.00    -0.230 N 
ATOM     17  C   UNL     1       0.013   3.477   0.743  0.00  0.00    +0.204 C 
ATOM     18  H   UNL     1       0.243  -0.412   0.699  0.00  0.00    +0.150 HD
ENDROOT
BRANCH   6  19
ATOM     19  C   UNL     1      -4.540   0.303  -0.014  0.00  0.00    +0.150 A 
ATOM     20  C   UNL     1      -5.656   0.183  -0.755  0.00  0.00    +0.049 A 
ATOM     21  C   UNL     1      -6.427  -0.848  -0.171  0.00  0.00    +0.041 A 
ATOM     22  C   UNL     1      -5.740  -1.290   0.898  0.00  0.00    +0.195 A 
ATOM     23  O   UNL     1      -4.598  -0.589   0.988  0.00  0.00    -0.464 OA
ENDBRANCH   6  19
BRANCH   1  24
ATOM     24  C   UNL     1       2.398   3.524   1.172  0.00  0.00    +0.115 C 
BRANCH  24  25
ATOM     25  C   UNL     1       2.156   4.805   1.973  0.00  0.00    +0.175 C 
BRANCH  25  27
ATOM     26  C   UNL     1       1.653   5.602   4.177  0.00  0.00    +0.194 C 
ATOM     27  O   UNL     1       1.895   4.471   3.338  0.00  0.00    -0.382 OA
ENDBRANCH  25  27
ENDBRANCH  24  25
ENDBRANCH   1  24
TORSDOF 4
