REMARK  Name = ZINC40719648
REMARK  12 active torsions:
REMARK  status: ('A' for Active; 'I' for Inactive)
REMARK    1  A    between atoms: C_1  and  C_2
REMARK    2  A    between atoms: C_2  and  C_3
REMARK    3  A    between atoms: C_2  and  O_4
REMARK    4  A    between atoms: O_4  and  C_5
REMARK    5  A    between atoms: C_6  and  C_13
REMARK    6  A    between atoms: C_13  and  N_14
REMARK    7  A    between atoms: N_14  and  C_15
REMARK    8  A    between atoms: C_15  and  C_16
REMARK    9  A    between atoms: C_16  and  N_17
REMARK   10  A    between atoms: N_17  and  C_18
REMARK   11  A    between atoms: C_18  and  C_19
REMARK   12  A    between atoms: C_19  and  O_20
REMARK                            x       y       z     vdW  Elec       q    Type
REMARK                         _______ _______ _______ _____ _____    ______ ____
ROOT
ATOM      1  C   UNL     1      -1.542  -1.646  -0.697  0.00  0.00    +0.136 A 
ATOM      2  C   UNL     1      -1.845  -1.579  -2.049  0.00  0.00    -0.021 A 
ATOM      3  C   UNL     1      -2.130  -2.734  -2.751  0.00  0.00    +0.020 A 
ATOM      4  C   UNL     1      -2.113  -3.959  -2.106  0.00  0.00    +0.019 A 
ATOM      5  C   UNL     1      -1.811  -4.029  -0.758  0.00  0.00    +0.034 A 
ATOM      6  C   UNL     1      -1.520  -2.876  -0.053  0.00  0.00    +0.061 A 
ATOM      7 BR   UNL     1      -1.100  -2.973   1.788  0.00  0.00    -0.046 Br
ATOM      8 BR   UNL     1      -2.503  -5.538  -3.070  0.00  0.00    -0.050 Br
ENDROOT
BRANCH   1   9
ATOM      9  O   UNL     1      -1.261  -0.511  -0.005  0.00  0.00    -0.488 OA
BRANCH   9  11
ATOM     10  C   UNL     1       0.128   1.466  -0.066  0.00  0.00    +0.051 C 
ATOM     11  C   UNL     1       0.096  -0.063  -0.016  0.00  0.00    +0.167 C 
ATOM     12  C   UNL     1       0.803  -0.546   1.252  0.00  0.00    +0.051 C 
ENDBRANCH   9  11
ENDBRANCH   1   9
BRANCH   2  13
ATOM     13  C   UNL     1      -1.865  -0.246  -2.752  0.00  0.00    -0.043 C 
BRANCH  13  14
ATOM     14  N   UNL     1      -0.497   0.121  -3.144  0.00  0.00    +0.383 N 
ATOM     15  H   UNL     1       0.062   0.265  -2.317  0.00  0.00    -0.085 HD
ATOM     16  H   UNL     1      -0.096  -0.621  -3.697  0.00  0.00    -0.085 HD
BRANCH  14  17
ATOM     17  C   UNL     1      -0.530   1.359  -3.934  0.00  0.00    -0.067 C 
BRANCH  17  18
ATOM     18  C   UNL     1       0.894   1.740  -4.343  0.00  0.00    +0.062 C 
BRANCH  18  19
ATOM     19  N   UNL     1       0.861   2.978  -5.133  0.00  0.00    -0.316 NA
ATOM     20  H   UNL     1       0.255   2.880  -5.934  0.00  0.00    +0.122 HD
BRANCH  19  21
ATOM     21  C   UNL     1       2.214   3.376  -5.544  0.00  0.00    +0.108 C 
BRANCH  21  22
ATOM     22  C   UNL     1       2.140   4.666  -6.364  0.00  0.00    +0.171 C 
BRANCH  22  23
ATOM     23  O   UNL     1       1.668   5.730  -5.535  0.00  0.00    -0.394 OA
ATOM     24  H   UNL     1       1.595   6.581  -5.989  0.00  0.00    +0.209 HD
ENDBRANCH  22  23
ENDBRANCH  21  22
ENDBRANCH  19  21
ENDBRANCH  18  19
ENDBRANCH  17  18
ENDBRANCH  14  17
ENDBRANCH  13  14
ENDBRANCH   2  13
TORSDOF 10
