REMARK  Name = ZINC11619436
REMARK  7 active torsions:
REMARK  status: ('A' for Active; 'I' for Inactive)
REMARK    1  A    between atoms: C_1  and  O_2
REMARK    2  A    between atoms: O_2  and  C_3
REMARK    3  A    between atoms: C_15  and  N_16
REMARK    4  A    between atoms: N_16  and  C_17
REMARK    5  A    between atoms: C_17  and  C_18
REMARK    6  A    between atoms: N_20  and  C_21
REMARK    7  A    between atoms: C_21  and  C_27
REMARK                            x       y       z     vdW  Elec       q    Type
REMARK                         _______ _______ _______ _____ _____    ______ ____
ROOT
ATOM      1  C   UNL     1      -5.991   2.202   0.042  0.00  0.00    +0.142 A 
ATOM      2  C   UNL     1      -7.288   1.728   0.045  0.00  0.00    +0.059 A 
ATOM      3  C   UNL     1      -7.522   0.355   0.039  0.00  0.00    +0.031 A 
ATOM      4  C   UNL     1      -8.743  -0.473   0.039  0.00  0.00    +0.028 A 
ATOM      5  C   UNL     1     -10.104  -0.187   0.048  0.00  0.00    +0.012 A 
ATOM      6  C   UNL     1     -11.020  -1.218   0.046  0.00  0.00    +0.001 A 
ATOM      7  C   UNL     1     -10.585  -2.534   0.036  0.00  0.00    +0.004 A 
ATOM      8  C   UNL     1      -9.238  -2.829   0.028  0.00  0.00    +0.047 A 
ATOM      9  C   UNL     1      -8.301  -1.803   0.030  0.00  0.00    +0.136 A 
ATOM     10  O   UNL     1      -6.949  -1.805   0.024  0.00  0.00    -0.455 OA
ATOM     11  C   UNL     1      -6.451  -0.548   0.029  0.00  0.00    +0.138 A 
ATOM     12  C   UNL     1      -5.150  -0.060   0.020  0.00  0.00    +0.073 A 
ATOM     13  C   UNL     1      -4.921   1.305   0.033  0.00  0.00    +0.073 A 
ENDROOT
BRANCH   1  15
ATOM     14  C   UNL     1      -6.898   4.401   0.059  0.00  0.00    +0.277 C 
ATOM     15  O   UNL     1      -5.756   3.542   0.049  0.00  0.00    -0.493 OA
ENDBRANCH   1  15
BRANCH  13  16
ATOM     16  N   UNL     1      -3.608   1.789   0.029  0.00  0.00    -0.332 N 
ATOM     17  H   UNL     1      -3.444   2.745   0.033  0.00  0.00    +0.147 HD
BRANCH  16  18
ATOM     18  C   UNL     1      -2.482   0.853   0.018  0.00  0.00    +0.197 C 
BRANCH  18  19
ATOM     19  C   UNL     1      -1.187   1.624   0.017  0.00  0.00    +0.231 C 
ATOM     20  O   UNL     1      -1.204   2.837   0.023  0.00  0.00    -0.274 OA
ATOM     21  N   UNL     1      -0.011   0.966   0.007  0.00  0.00    -0.296 N 
ATOM     22  H   UNL     1       0.002  -0.004   0.002  0.00  0.00    +0.150 HD
BRANCH  21  23
ATOM     23  C   UNL     1       1.248   1.716  -0.001  0.00  0.00    +0.121 C 
ATOM     24  C   UNL     1       1.305   2.603  -1.246  0.00  0.00    +0.041 C 
ATOM     25  C   UNL     1       2.619   3.386  -1.254  0.00  0.00    +0.003 C 
ATOM     26  C   UNL     1       3.795   2.408  -1.271  0.00  0.00    +0.000 C 
ATOM     27  C   UNL     1       3.738   1.520  -0.025  0.00  0.00    +0.003 C 
ATOM     28  C   UNL     1       2.424   0.737  -0.017  0.00  0.00    +0.041 C 
BRANCH  23  29
ATOM     29  C   UNL     1       1.325   2.556   1.205  0.00  0.00    +0.088 C 
ATOM     30  N   UNL     1       1.386   3.205   2.136  0.00  0.00    -0.194 NA
ENDBRANCH  23  29
ENDBRANCH  21  23
ENDBRANCH  18  19
ENDBRANCH  16  18
ENDBRANCH  13  16
TORSDOF 6
