REMARK  Name = ZINC65529571
REMARK  7 active torsions:
REMARK  status: ('A' for Active; 'I' for Inactive)
REMARK    1  A    between atoms: C_1  and  C_2
REMARK    2  A    between atoms: C_4  and  N_8
REMARK    3  A    between atoms: N_5  and  C_7
REMARK    4  A    between atoms: N_11  and  C_12
REMARK    5  A    between atoms: N_11  and  C_13
REMARK    6  A    between atoms: N_16  and  C_19
REMARK    7  A    between atoms: C_22  and  C_25
REMARK                            x       y       z     vdW  Elec       q    Type
REMARK                         _______ _______ _______ _____ _____    ______ ____
ROOT
ATOM      1  C   UNL     1       0.033  -4.031  -5.134  0.00  0.00    +0.074 C 
ATOM      2  C   UNL     1      -1.206  -4.719  -5.715  0.00  0.00    +0.004 C 
ATOM      3  C   UNL     1      -1.167  -4.622  -7.242  0.00  0.00    -0.077 C 
ATOM      4  N   UNL     1       0.043  -5.281  -7.747  0.00  0.00    +0.382 N 
ATOM      5  C   UNL     1       1.234  -4.582  -7.252  0.00  0.00    -0.077 C 
ATOM      6  C   UNL     1       1.289  -4.678  -5.726  0.00  0.00    +0.004 C 
ATOM      7  H   UNL     1       0.060  -6.239  -7.431  0.00  0.00    -0.081 HD
ENDROOT
BRANCH   4   8
ATOM      8  C   UNL     1       0.036  -5.254  -9.216  0.00  0.00    -0.069 C 
ATOM      9  C   UNL     1       1.297  -5.940  -9.745  0.00  0.00    -0.015 C 
ATOM     10  C   UNL     1       1.290  -5.912 -11.274  0.00  0.00    +0.002 C 
ATOM     11  C   UNL     1       0.053  -6.648 -11.793  0.00  0.00    -0.014 C 
ATOM     12  C   UNL     1      -1.208  -5.961 -11.264  0.00  0.00    +0.002 C 
ATOM     13  C   UNL     1      -1.201  -5.990  -9.734  0.00  0.00    -0.015 C 
ATOM     14  C   UNL     1       0.084  -8.100 -11.310  0.00  0.00    +0.007 C 
ENDBRANCH   4   8
BRANCH   1  18
ATOM     15  N   UNL     1       0.039  -3.240  -1.543  0.00  0.00    -0.254 N 
ATOM     16  C   UNL     1       0.031  -3.097  -2.884  0.00  0.00    +0.308 C 
ATOM     17  O   UNL     1       0.014  -1.986  -3.376  0.00  0.00    -0.252 OA
ATOM     18  N   UNL     1       0.041  -4.186  -3.677  0.00  0.00    -0.285 N 
ATOM     19  C   UNL     1       0.062  -5.525  -3.084  0.00  0.00    +0.134 C 
ATOM     20  H   UNL     1       0.052  -4.127  -1.150  0.00  0.00    +0.158 HD
BRANCH  15  24
ATOM     21  C   UNL     1      -0.018   1.503   0.010  0.00  0.00    +0.067 C 
ATOM     22  C   UNL     1       0.002  -0.004   0.002  0.00  0.00    +0.062 A 
ATOM     23  C   UNL     1       0.008  -0.816  -1.135  0.00  0.00    +0.068 A 
ATOM     24  C   UNL     1       0.027  -2.113  -0.722  0.00  0.00    +0.124 A 
ATOM     25  N   UNL     1       0.034  -2.110   0.631  0.00  0.00    -0.253 N 
ATOM     26  N   UNL     1       0.023  -0.776   1.058  0.00  0.00    -0.175 NA
ATOM     27  C   UNL     1       0.053  -3.292   1.495  0.00  0.00    +0.174 C 
ENDBRANCH  15  24
ENDBRANCH   1  18
TORSDOF 3
