REMARK  Name = ZINC02261936
REMARK  5 active torsions:
REMARK  status: ('A' for Active; 'I' for Inactive)
REMARK    1  A    between atoms: C_4  and  C_7
REMARK    2  A    between atoms: C_7  and  N_8
REMARK    3  A    between atoms: C_10  and  C_17
REMARK    4  A    between atoms: N_18  and  N_19
REMARK    5  A    between atoms: C_20  and  C_22
REMARK                            x       y       z     vdW  Elec       q    Type
REMARK                         _______ _______ _______ _____ _____    ______ ____
ROOT
ATOM      1  N   UNL     1       2.159   4.118   0.003  0.00  0.00    -0.342 N 
ATOM      2  C   UNL     1       1.617   5.369   0.014  0.00  0.00    +0.096 A 
ATOM      3  C   UNL     1       0.259   5.280   0.027  0.00  0.00    +0.020 A 
ATOM      4  C   UNL     1      -0.068   3.843   0.022  0.00  0.00    +0.009 A 
ATOM      5  C   UNL     1       1.162   3.165   0.007  0.00  0.00    +0.050 A 
ATOM      6  C   UNL     1       1.175   1.774   0.000  0.00  0.00    +0.026 A 
ATOM      7  C   UNL     1      -0.013   1.076   0.008  0.00  0.00    +0.002 A 
ATOM      8  C   UNL     1      -1.227   1.746   0.017  0.00  0.00    +0.001 A 
ATOM      9  C   UNL     1      -1.261   3.123   0.030  0.00  0.00    +0.010 A 
ENDROOT
BRANCH   3  10
ATOM     10  C   UNL     1      -0.695   6.400   0.041  0.00  0.00    +0.140 C 
ATOM     11  N   UNL     1      -1.973   6.164   0.052  0.00  0.00    -0.187 NA
BRANCH  11  12
ATOM     12  N   UNL     1      -2.882   7.230   0.066  0.00  0.00    -0.200 N 
ATOM     13  C   UNL     1      -4.207   6.986   0.077  0.00  0.00    +0.299 C 
ATOM     14  O   UNL     1      -4.615   5.839   0.075  0.00  0.00    -0.265 OA
ATOM     15  H   UNL     1      -2.557   8.144   0.067  0.00  0.00    +0.178 HD
BRANCH  13  16
ATOM     16  C   UNL     1      -5.160   8.104   0.091  0.00  0.00    +0.192 A 
ATOM     17  C   UNL     1      -6.513   7.978   0.103  0.00  0.00    +0.063 A 
ATOM     18  C   UNL     1      -7.046   9.340   0.115  0.00  0.00    +0.021 A 
ATOM     19  C   UNL     1      -8.334   9.881   0.130  0.00  0.00    +0.011 A 
ATOM     20  C   UNL     1      -8.498  11.238   0.139  0.00  0.00    +0.001 A 
ATOM     21  C   UNL     1      -7.395  12.080   0.132  0.00  0.00    +0.004 A 
ATOM     22  C   UNL     1      -6.116  11.566   0.118  0.00  0.00    +0.047 A 
ATOM     23  C   UNL     1      -5.924  10.189   0.109  0.00  0.00    +0.136 A 
ATOM     24  O   UNL     1      -4.824   9.411   0.101  0.00  0.00    -0.450 OA
ENDBRANCH  13  16
ENDBRANCH  11  12
ENDBRANCH   3  10
BRANCH   1  25
ATOM     25  C   UNL     1       3.595   3.828  -0.011  0.00  0.00    +0.157 C 
BRANCH  25  29
ATOM     26  C   UNL     1       4.886   3.220  -4.037  0.00  0.00    +0.000 A 
ATOM     27  C   UNL     1       4.912   4.488  -3.487  0.00  0.00    +0.000 A 
ATOM     28  C   UNL     1       4.494   4.684  -2.184  0.00  0.00    +0.005 A 
ATOM     29  C   UNL     1       4.050   3.613  -1.432  0.00  0.00    -0.028 A 
ATOM     30  C   UNL     1       4.029   2.345  -1.980  0.00  0.00    +0.005 A 
ATOM     31  C   UNL     1       4.442   2.149  -3.285  0.00  0.00    +0.000 A 
ENDBRANCH  25  29
ENDBRANCH   1  25
TORSDOF 5
