REMARK  Name = ZINC12361931
REMARK  5 active torsions:
REMARK  status: ('A' for Active; 'I' for Inactive)
REMARK    1  A    between atoms: C_2  and  C_3
REMARK    2  A    between atoms: C_3  and  N_4
REMARK    3  A    between atoms: C_14  and  C_32
REMARK    4  A    between atoms: C_15  and  N_31
REMARK    5  A    between atoms: N_16  and  C_23
REMARK                            x       y       z     vdW  Elec       q    Type
REMARK                         _______ _______ _______ _____ _____    ______ ____
ROOT
ATOM      1  N   UNL     1       0.112   5.197   0.293  0.00  0.00    -0.258 N 
ATOM      2  C   UNL     1      -0.030   3.914   0.789  0.00  0.00    +0.042 A 
ATOM      3  C   UNL     1      -1.175   3.266   1.256  0.00  0.00    +0.024 A 
ATOM      4  C   UNL     1      -1.028   1.960   1.697  0.00  0.00    +0.002 A 
ATOM      5  C   UNL     1       0.194   1.319   1.690  0.00  0.00    +0.000 A 
ATOM      6  C   UNL     1       1.342   1.953   1.227  0.00  0.00    +0.007 A 
ATOM      7  C   UNL     1       1.203   3.250   0.783  0.00  0.00    -0.001 A 
ATOM      8  C   UNL     1       2.198   4.221   0.231  0.00  0.00    +0.144 C 
ATOM      9  C   UNL     1       1.387   5.466  -0.060  0.00  0.00    +0.241 C 
ATOM     10  O   UNL     1       1.804   6.507  -0.522  0.00  0.00    -0.273 OA
ATOM     11  C   UNL     1       3.275   4.525   1.233  0.00  0.00    +0.089 C 
ATOM     12  C   UNL     1       4.560   4.125   1.072  0.00  0.00    +0.108 C 
ATOM     13  N   UNL     1       4.975   3.413  -0.040  0.00  0.00    -0.257 N 
ATOM     14  C   UNL     1       4.122   3.334  -1.107  0.00  0.00    +0.066 C 
ATOM     15  C   UNL     1       2.816   3.700  -1.039  0.00  0.00    +0.082 C 
ATOM     16  C   UNL     1       2.217   3.506  -2.292  0.00  0.00    +0.339 C 
ATOM     17  O   UNL     1       1.051   3.747  -2.544  0.00  0.00    -0.245 OA
ATOM     18  O   UNL     1       3.105   3.016  -3.182  0.00  0.00    -0.455 OA
ATOM     19  C   UNL     1       4.367   2.869  -2.513  0.00  0.00    +0.284 C 
ENDROOT
BRANCH  13  20
ATOM     20  C   UNL     1       6.229   2.793  -0.072  0.00  0.00    +0.042 A 
ATOM     21  C   UNL     1       7.326   3.468  -0.591  0.00  0.00    +0.044 A 
ATOM     22  C   UNL     1       8.565   2.855  -0.617  0.00  0.00    +0.044 A 
ATOM     23  C   UNL     1       8.710   1.565  -0.136  0.00  0.00    +0.040 A 
ATOM     24  C   UNL     1       7.617   0.888   0.377  0.00  0.00    +0.044 A 
ATOM     25  C   UNL     1       6.378   1.499   0.410  0.00  0.00    +0.044 A 
ATOM     26 CL   UNL     1       7.804  -0.729   0.980  0.00  0.00    -0.083 Cl
ATOM     27 CL   UNL     1       9.938   3.701  -1.259  0.00  0.00    -0.083 Cl
ENDBRANCH  13  20
BRANCH  12  28
ATOM     28  N   UNL     1       5.481   4.436   2.043  0.00  0.00    -0.345 N 
ATOM     29  H   UNL     1       5.228   5.006   2.787  0.00  0.00    +0.144 HD
ATOM     30  H   UNL     1       6.384   4.086   1.986  0.00  0.00    +0.144 HD
ENDBRANCH  12  28
BRANCH  11  31
ATOM     31  C   UNL     1       2.929   5.267   2.408  0.00  0.00    +0.100 C 
ATOM     32  N   UNL     1       2.655   5.857   3.340  0.00  0.00    -0.191 NA
ENDBRANCH  11  31
BRANCH   1  33
ATOM     33  C   UNL     1      -0.991   6.153   0.165  0.00  0.00    +0.202 C 
BRANCH  33  35
ATOM     34  C   UNL     1      -2.115   5.889  -2.215  0.00  0.00    +0.005 C 
ATOM     35  C   UNL     1      -1.616   6.006  -1.159  0.00  0.00    -0.086 C 
ENDBRANCH  33  35
ENDBRANCH   1  33
TORSDOF 5
