REMARK  Name = ZINC46544587
REMARK  12 active torsions:
REMARK  status: ('A' for Active; 'I' for Inactive)
REMARK    1  A    between atoms: C_1  and  C_2
REMARK    2  A    between atoms: C_2  and  C_3
REMARK    3  A    between atoms: C_3  and  C_4
REMARK    4  A    between atoms: C_4  and  N_5
REMARK    5  A    between atoms: C_6  and  N_33
REMARK    6  A    between atoms: C_7  and  N_14
REMARK    7  A    between atoms: N_14  and  C_15
REMARK    8  A    between atoms: C_15  and  C_16
REMARK    9  A    between atoms: C_16  and  C_17
REMARK   10  A    between atoms: C_17  and  C_18
REMARK   11  A    between atoms: C_17  and  C_19
REMARK   12  A    between atoms: C_20  and  C_22
REMARK                            x       y       z     vdW  Elec       q    Type
REMARK                         _______ _______ _______ _____ _____    ______ ____
ROOT
ATOM      1  N   UNL     1       0.545  -2.977  -6.063  0.00  0.00    -0.264 N 
ATOM      2  C   UNL     1      -0.651  -2.353  -6.082  0.00  0.00    +0.227 C 
ATOM      3  O   UNL     1      -1.295  -2.242  -5.059  0.00  0.00    -0.275 OA
ENDROOT
BRANCH   2   4
ATOM      4  C   UNL     1      -1.189  -1.793  -7.374  0.00  0.00    +0.106 C 
ATOM      5  C   UNL     1      -2.156  -0.652  -7.064  0.00  0.00    +0.018 C 
ATOM      6  C   UNL     1      -2.854  -0.243  -8.367  0.00  0.00    +0.006 C 
ATOM      7  C   UNL     1      -3.804  -1.367  -8.778  0.00  0.00    +0.035 C 
ATOM      8  C   UNL     1      -3.086  -2.691  -8.785  0.00  0.00    -0.043 A 
ATOM      9  C   UNL     1      -1.887  -2.887  -8.137  0.00  0.00    -0.032 A 
ATOM     10  C   UNL     1      -1.281  -4.136  -8.177  0.00  0.00    +0.004 A 
ATOM     11  C   UNL     1      -1.868  -5.179  -8.864  0.00  0.00    +0.000 A 
ATOM     12  C   UNL     1      -3.070  -4.980  -9.518  0.00  0.00    +0.000 A 
ATOM     13  C   UNL     1      -3.673  -3.741  -9.478  0.00  0.00    +0.004 A 
ENDBRANCH   2   4
BRANCH   1  16
ATOM     14  N   UNL     1       1.986  -3.072  -2.684  0.00  0.00    -0.280 N 
ATOM     15  C   UNL     1       1.477  -2.576  -3.861  0.00  0.00    +0.127 A 
ATOM     16  C   UNL     1       1.071  -3.455  -4.844  0.00  0.00    +0.140 A 
ATOM     17  C   UNL     1       1.192  -4.838  -4.610  0.00  0.00    +0.277 A 
ATOM     18  O   UNL     1       0.842  -5.637  -5.462  0.00  0.00    -0.266 OA
ATOM     19  N   UNL     1       1.697  -5.272  -3.439  0.00  0.00    -0.273 N 
ATOM     20  H   UNL     1       1.781  -6.225  -3.277  0.00  0.00    +0.173 HD
ATOM     21  C   UNL     1       2.092  -4.400  -2.495  0.00  0.00    +0.331 A 
ATOM     22  O   UNL     1       2.550  -4.819  -1.449  0.00  0.00    -0.246 OA
BRANCH  15  23
ATOM     23  N   UNL     1       1.373  -1.219  -4.056  0.00  0.00    -0.343 N 
ATOM     24  H   UNL     1       1.563  -0.608  -3.327  0.00  0.00    +0.144 HD
ATOM     25  H   UNL     1       1.109  -0.873  -4.923  0.00  0.00    +0.144 HD
ENDBRANCH  15  23
BRANCH  14  26
ATOM     26  C   UNL     1       2.420  -2.150  -1.632  0.00  0.00    +0.128 C 
BRANCH  26  27
ATOM     27  C   UNL     1       3.897  -1.804  -1.835  0.00  0.00    +0.021 C 
BRANCH  27  29
ATOM     28  C   UNL     1       5.827  -0.494  -0.939  0.00  0.00    +0.004 C 
ATOM     29  C   UNL     1       4.350  -0.840  -0.736  0.00  0.00    -0.002 C 
ENDBRANCH  27  29
ENDBRANCH  26  27
ENDBRANCH  14  26
ENDBRANCH   1  16
BRANCH   1  30
ATOM     30  C   UNL     1       1.297  -3.158  -7.307  0.00  0.00    +0.114 C 
BRANCH  30  31
ATOM     31  C   UNL     1       2.323  -2.032  -7.450  0.00  0.00    +0.022 C 
BRANCH  31  32
ATOM     32  C   UNL     1       3.015  -2.144  -8.810  0.00  0.00    -0.016 C 
ATOM     33  C   UNL     1       3.904  -0.918  -9.032  0.00  0.00    +0.007 C 
ATOM     34  C   UNL     1       3.874  -3.410  -8.843  0.00  0.00    +0.007 C 
ENDBRANCH  31  32
ENDBRANCH  30  31
ENDBRANCH   1  30
TORSDOF 9
