REMARK  Name = ZINC39327001
REMARK  12 active torsions:
REMARK  status: ('A' for Active; 'I' for Inactive)
REMARK    1  A    between atoms: C_1  and  C_2
REMARK    2  A    between atoms: C_2  and  O_3
REMARK    3  A    between atoms: O_3  and  C_4
REMARK    4  A    between atoms: C_4  and  C_6
REMARK    5  A    between atoms: C_7  and  C_36
REMARK    6  A    between atoms: C_11  and  N_23
REMARK    7  A    between atoms: C_12  and  C_14
REMARK    8  A    between atoms: C_19  and  C_22
REMARK    9  A    between atoms: C_24  and  C_26
REMARK   10  A    between atoms: C_29  and  C_32
REMARK   11  A    between atoms: C_32  and  O_34
REMARK   12  A    between atoms: O_34  and  C_35
REMARK                            x       y       z     vdW  Elec       q    Type
REMARK                         _______ _______ _______ _____ _____    ______ ____
ROOT
ATOM      1  C   UNL     1       1.249  -2.358  -2.582  0.00  0.00    +0.065 C 
ATOM      2  C   UNL     1       1.589  -3.654  -2.541  0.00  0.00    +0.016 C 
ATOM      3  N   UNL     1       2.405  -4.218  -3.492  0.00  0.00    -0.312 N 
ATOM      4  C   UNL     1       3.073  -3.362  -4.332  0.00  0.00    +0.076 A 
ATOM      5  C   UNL     1       2.810  -2.015  -4.469  0.00  0.00    +0.014 A 
ATOM      6  C   UNL     1       3.599  -1.314  -5.363  0.00  0.00    +0.050 A 
ATOM      7  C   UNL     1       4.595  -1.993  -6.067  0.00  0.00    +0.097 A 
ATOM      8  S   UNL     1       4.410  -3.661  -5.451  0.00  0.00    -0.067 S 
ATOM      9  C   UNL     1       1.681  -1.397  -3.650  0.00  0.00    +0.091 C 
ATOM     10  C   UNL     1       1.063  -4.515  -1.421  0.00  0.00    +0.061 C 
ATOM     11  H   UNL     1       2.505  -5.180  -3.567  0.00  0.00    +0.152 HD
ENDROOT
BRANCH   7  12
ATOM     12  C   UNL     1       5.508  -1.494  -7.017  0.00  0.00    +0.258 C 
ATOM     13  O   UNL     1       5.488  -0.314  -7.320  0.00  0.00    -0.269 OA
ATOM     14  N   UNL     1       6.404  -2.322  -7.591  0.00  0.00    -0.263 N 
ATOM     15  C   UNL     1       7.307  -1.828  -8.530  0.00  0.00    +0.168 A 
ATOM     16  C   UNL     1       7.401  -0.488  -8.970  0.00  0.00    +0.091 A 
ATOM     17  C   UNL     1       8.391  -0.415  -9.876  0.00  0.00    +0.136 A 
ATOM     18  O   UNL     1       8.918  -1.641 -10.022  0.00  0.00    -0.358 OA
ATOM     19  N   UNL     1       8.222  -2.522  -9.158  0.00  0.00    -0.063 NA
ATOM     20  C   UNL     1       8.834   0.829 -10.603  0.00  0.00    +0.089 C 
ATOM     21  H   UNL     1       6.419  -3.261  -7.350  0.00  0.00    +0.157 HD
ENDBRANCH   7  12
BRANCH   9  22
ATOM     22  C   UNL     1       0.512  -1.091  -4.551  0.00  0.00    -0.035 A 
ATOM     23  C   UNL     1      -0.111  -2.114  -5.244  0.00  0.00    +0.005 A 
ATOM     24  C   UNL     1      -1.181  -1.840  -6.070  0.00  0.00    +0.015 A 
ATOM     25  C   UNL     1      -1.636  -0.527  -6.206  0.00  0.00    +0.059 A 
ATOM     26  C   UNL     1      -1.003   0.501  -5.504  0.00  0.00    +0.015 A 
ATOM     27  C   UNL     1       0.063   0.212  -4.677  0.00  0.00    +0.005 A 
BRANCH  25  28
ATOM     28  C   UNL     1      -2.781  -0.226  -7.090  0.00  0.00    +0.339 C 
ATOM     29  O   UNL     1      -3.329  -1.122  -7.700  0.00  0.00    -0.245 OA
BRANCH  28  30
ATOM     30  O   UNL     1      -3.217   1.042  -7.219  0.00  0.00    -0.464 OA
ATOM     31  C   UNL     1      -4.329   1.260  -8.090  0.00  0.00    +0.280 C 
ENDBRANCH  28  30
ENDBRANCH  25  28
ENDBRANCH   9  22
BRANCH   6  32
ATOM     32  N   UNL     1       3.403   0.050  -5.559  0.00  0.00    -0.357 N 
ATOM     33  H   UNL     1       2.709   0.515  -5.067  0.00  0.00    +0.142 HD
ATOM     34  H   UNL     1       3.960   0.535  -6.188  0.00  0.00    +0.142 HD
ENDBRANCH   6  32
BRANCH   1  35
ATOM     35  C   UNL     1       0.421  -1.864  -1.551  0.00  0.00    +0.338 C 
ATOM     36  O   UNL     1       0.894  -1.170  -0.670  0.00  0.00    -0.245 OA
BRANCH  35  37
ATOM     37  O   UNL     1      -0.896  -2.162  -1.541  0.00  0.00    -0.462 OA
BRANCH  37  39
ATOM     38  C   UNL     1      -3.130  -2.069  -0.625  0.00  0.00    +0.048 C 
ATOM     39  C   UNL     1      -1.674  -1.628  -0.468  0.00  0.00    +0.229 C 
ENDBRANCH  37  39
ENDBRANCH  35  37
ENDBRANCH   1  35
TORSDOF 8
