REMARK  Name = ZINC36569843
REMARK  10 active torsions:
REMARK  status: ('A' for Active; 'I' for Inactive)
REMARK    1  A    between atoms: C_1  and  C_2
REMARK    2  A    between atoms: C_2  and  C_3
REMARK    3  A    between atoms: C_3  and  N_4
REMARK    4  A    between atoms: N_4  and  C_7
REMARK    5  A    between atoms: C_7  and  C_9
REMARK    6  A    between atoms: C_7  and  C_18
REMARK    7  A    between atoms: C_10  and  O_17
REMARK    8  A    between atoms: C_12  and  O_16
REMARK    9  A    between atoms: C_14  and  O_15
REMARK   10  A    between atoms: N_20  and  C_21
REMARK                            x       y       z     vdW  Elec       q    Type
REMARK                         _______ _______ _______ _____ _____    ______ ____
ROOT
ATOM      1  C   UNL     1      -1.348  -2.606  -1.441  0.00  0.00    +0.199 C 
ENDROOT
BRANCH   1   2
ATOM      2  C   UNL     1      -0.030  -2.267  -2.087  0.00  0.00    +0.065 A 
ATOM      3  C   UNL     1       1.133  -2.264  -1.331  0.00  0.00    +0.129 A 
ATOM      4  C   UNL     1       2.346  -1.951  -1.926  0.00  0.00    +0.091 A 
ATOM      5  C   UNL     1       2.397  -1.642  -3.277  0.00  0.00    +0.124 A 
ATOM      6  C   UNL     1       1.234  -1.646  -4.033  0.00  0.00    +0.091 A 
ATOM      7  C   UNL     1       0.022  -1.963  -3.439  0.00  0.00    +0.129 A 
BRANCH   7   8
ATOM      8  O   UNL     1      -1.117  -1.971  -4.181  0.00  0.00    -0.506 OA
ATOM      9  H   UNL     1      -1.574  -1.120  -4.209  0.00  0.00    +0.292 HD
ENDBRANCH   7   8
BRANCH   5  10
ATOM     10  O   UNL     1       3.585  -1.335  -3.859  0.00  0.00    -0.507 OA
ATOM     11  H   UNL     1       4.056  -2.099  -4.218  0.00  0.00    +0.292 HD
ENDBRANCH   5  10
BRANCH   3  12
ATOM     12  O   UNL     1       1.083  -2.566  -0.007  0.00  0.00    -0.506 OA
ATOM     13  H   UNL     1       1.272  -3.494   0.192  0.00  0.00    +0.292 HD
ENDBRANCH   3  12
ENDBRANCH   1   2
BRANCH   1  14
ATOM     14  C   UNL     1      -2.456  -2.459  -2.452  0.00  0.00    +0.239 C 
ATOM     15  O   UNL     1      -3.143  -1.460  -2.457  0.00  0.00    -0.273 OA
ATOM     16  N   UNL     1      -2.683  -3.437  -3.351  0.00  0.00    -0.311 N 
ATOM     17  H   UNL     1      -2.133  -4.237  -3.347  0.00  0.00    +0.149 HD
BRANCH  16  18
ATOM     18  C   UNL     1      -3.760  -3.294  -4.333  0.00  0.00    +0.073 C 
ATOM     19  C   UNL     1      -5.080  -3.758  -3.715  0.00  0.00    +0.022 C 
ATOM     20  C   UNL     1      -6.205  -3.608  -4.741  0.00  0.00    +0.002 C 
ATOM     21  C   UNL     1      -5.890  -4.463  -5.971  0.00  0.00    +0.000 C 
ATOM     22  C   UNL     1      -4.570  -3.999  -6.590  0.00  0.00    +0.002 C 
ATOM     23  C   UNL     1      -3.445  -4.149  -5.563  0.00  0.00    +0.022 C 
ENDBRANCH  16  18
ENDBRANCH   1  14
BRANCH   1  24
ATOM     24  N   UNL     1      -1.589  -1.698  -0.317  0.00  0.00    -0.288 N 
ATOM     25  C   UNL     1      -1.805  -2.196   0.917  0.00  0.00    +0.329 C 
ATOM     26  O   UNL     1      -1.800  -3.395   1.097  0.00  0.00    -0.279 OA
BRANCH  24  27
ATOM     27  C   UNL     1      -1.595  -0.249  -0.534  0.00  0.00    +0.108 C 
BRANCH  27  29
ATOM     28  C   UNL     1      -0.258   1.848  -0.298  0.00  0.00    +0.005 C 
ATOM     29  C   UNL     1      -0.215   0.322  -0.204  0.00  0.00    +0.016 C 
ENDBRANCH  27  29
ENDBRANCH  24  27
ENDBRANCH   1  24
TORSDOF 9
