REMARK  Name = ZINC21320614
REMARK  11 active torsions:
REMARK  status: ('A' for Active; 'I' for Inactive)
REMARK    1  A    between atoms: C_1  and  C_2
REMARK    2  A    between atoms: C_5  and  C_8
REMARK    3  A    between atoms: C_8  and  N_9
REMARK    4  A    between atoms: C_10  and  C_12
REMARK    5  A    between atoms: C_12  and  S_13
REMARK    6  A    between atoms: S_13  and  C_14
REMARK    7  A    between atoms: N_18  and  N_19
REMARK    8  A    between atoms: N_20  and  N_21
REMARK    9  A    between atoms: C_22  and  C_23
REMARK   10  A    between atoms: C_28  and  O_29
REMARK   11  A    between atoms: O_29  and  C_30
REMARK                            x       y       z     vdW  Elec       q    Type
REMARK                         _______ _______ _______ _____ _____    ______ ____
ROOT
ATOM      1  C   UNL     1      -1.108   1.831  -6.445  0.00  0.00    +0.210 A 
ATOM      2  N   UNL     1      -2.188   2.566  -6.322  0.00  0.00    -0.119 NA
ATOM      3  N   UNL     1      -2.643   2.884  -7.608  0.00  0.00    -0.109 NA
ATOM      4  C   UNL     1      -1.833   2.326  -8.475  0.00  0.00    +0.254 A 
ATOM      5  N   UNL     1      -0.863   1.660  -7.778  0.00  0.00    -0.211 N 
ATOM      6  N   UNL     1      -1.940   2.398  -9.856  0.00  0.00    -0.204 N 
ATOM      7  H   UNL     1      -1.201   1.890 -10.493  0.00  0.00    +0.177 HD
ENDROOT
BRANCH   5   8
ATOM      8  N   UNL     1       0.171   0.950  -8.319  0.00  0.00    -0.294 N 
ATOM      9  H   UNL     1       0.275   0.877  -9.412  0.00  0.00    +0.163 HD
ATOM     10  H   UNL     1       0.899   0.452  -7.663  0.00  0.00    +0.163 HD
ENDBRANCH   5   8
BRANCH   6  11
ATOM     11  N   UNL     1      -2.990   3.119 -10.440  0.00  0.00    -0.187 NA
ATOM     12  C   UNL     1      -3.090   3.187 -11.733  0.00  0.00    +0.142 C 
BRANCH  12  13
ATOM     13  C   UNL     1      -4.195   3.945 -12.348  0.00  0.00    +0.037 A 
ATOM     14  C   UNL     1      -4.303   4.025 -13.738  0.00  0.00    +0.028 A 
ATOM     15  C   UNL     1      -5.343   4.732 -14.307  0.00  0.00    +0.019 A 
ATOM     16  C   UNL     1      -6.273   5.372 -13.505  0.00  0.00    +0.019 A 
ATOM     17  C   UNL     1      -6.173   5.304 -12.127  0.00  0.00    +0.047 A 
ATOM     18  C   UNL     1      -5.139   4.594 -11.540  0.00  0.00    +0.129 A 
ATOM     19 BR   UNL     1      -5.493   4.835 -16.189  0.00  0.00    -0.050 Br
BRANCH  18  20
ATOM     20  O   UNL     1      -5.040   4.527 -10.187  0.00  0.00    -0.494 OA
ATOM     21  C   UNL     1      -6.038   5.213  -9.429  0.00  0.00    +0.277 C 
ENDBRANCH  18  20
ENDBRANCH  12  13
ENDBRANCH   6  11
BRANCH   1  22
ATOM     22  S   UNL     1      -0.148   1.173  -5.122  0.00  0.00    -0.075 S 
BRANCH  22  23
ATOM     23  C   UNL     1      -0.997   1.758  -3.630  0.00  0.00    +0.173 C 
BRANCH  23  25
ATOM     24  N   UNL     1      -0.721   1.571  -1.179  0.00  0.00    -0.311 N 
ATOM     25  C   UNL     1      -0.268   1.258  -2.409  0.00  0.00    +0.224 C 
ATOM     26  O   UNL     1       0.726   0.575  -2.534  0.00  0.00    -0.275 OA
ATOM     27  H   UNL     1      -1.623   2.191  -1.066  0.00  0.00    +0.149 HD
BRANCH  24  28
ATOM     28  C   UNL     1      -0.013   1.086   0.008  0.00  0.00    +0.139 C 
BRANCH  28  33
ATOM     29  C   UNL     1      -2.717   2.949   4.763  0.00  0.00    +0.044 C 
ATOM     30  C   UNL     1      -2.012   2.463   3.523  0.00  0.00    -0.050 A 
ATOM     31  C   UNL     1      -2.366   1.254   2.955  0.00  0.00    +0.003 A 
ATOM     32  C   UNL     1      -1.719   0.808   1.818  0.00  0.00    +0.005 A 
ATOM     33  C   UNL     1      -0.718   1.572   1.248  0.00  0.00    -0.030 A 
ATOM     34  C   UNL     1      -0.360   2.779   1.819  0.00  0.00    +0.005 A 
ATOM     35  C   UNL     1      -1.010   3.227   2.953  0.00  0.00    +0.003 A 
ENDBRANCH  28  33
ENDBRANCH  24  28
ENDBRANCH  23  25
ENDBRANCH  22  23
ENDBRANCH   1  22
TORSDOF 9
