REMARK  Name = ZINC22819857
REMARK  11 active torsions:
REMARK  status: ('A' for Active; 'I' for Inactive)
REMARK    1  A    between atoms: C_1  and  C_2
REMARK    2  A    between atoms: C_2  and  C_4
REMARK    3  A    between atoms: C_2  and  S_17
REMARK    4  A    between atoms: C_4  and  C_6
REMARK    5  A    between atoms: C_7  and  N_16
REMARK    6  A    between atoms: N_8  and  C_15
REMARK    7  A    between atoms: N_11  and  C_14
REMARK    8  A    between atoms: S_17  and  C_18
REMARK    9  A    between atoms: C_21  and  C_29
REMARK   10  A    between atoms: N_22  and  C_23
REMARK   11  A    between atoms: C_29  and  N_30
REMARK                            x       y       z     vdW  Elec       q    Type
REMARK                         _______ _______ _______ _____ _____    ______ ____
ROOT
ATOM      1  C   UNL     1       6.129   1.344   1.837  0.00  0.00    +0.197 A 
ATOM      2  N   UNL     1       6.402   0.165   1.330  0.00  0.00    -0.122 NA
ATOM      3  N   UNL     1       5.396  -0.621   1.482  0.00  0.00    -0.135 NA
ATOM      4  C   UNL     1       4.424   0.006   2.082  0.00  0.00    +0.122 A 
ATOM      5  N   UNL     1       4.856   1.281   2.335  0.00  0.00    -0.276 N 
ENDROOT
BRANCH   5   6
ATOM      6  C   UNL     1       4.142   2.307   2.971  0.00  0.00    +0.050 A 
ATOM      7  C   UNL     1       3.058   2.897   2.336  0.00  0.00    +0.026 A 
ATOM      8  C   UNL     1       2.354   3.904   2.967  0.00  0.00    +0.002 A 
ATOM      9  C   UNL     1       2.735   4.331   4.226  0.00  0.00    +0.000 A 
ATOM     10  C   UNL     1       3.817   3.748   4.859  0.00  0.00    +0.002 A 
ATOM     11  C   UNL     1       4.522   2.737   4.235  0.00  0.00    +0.026 A 
ENDBRANCH   5   6
BRANCH   1  12
ATOM     12  S   UNL     1       7.199   2.744   1.872  0.00  0.00    -0.075 S 
BRANCH  12  14
ATOM     13  C   UNL     1       8.300   1.709  -0.404  0.00  0.00    +0.028 C 
ATOM     14  C   UNL     1       8.652   2.049   1.046  0.00  0.00    +0.122 C 
BRANCH  14  15
ATOM     15  C   UNL     1       9.772   3.057   1.069  0.00  0.00    +0.185 C 
ATOM     16  O   UNL     1       9.521   4.242   1.156  0.00  0.00    -0.291 OA
BRANCH  15  17
ATOM     17  C   UNL     1      11.113   2.623   0.988  0.00  0.00    +0.121 A 
ATOM     18  C   UNL     1      12.178   3.527   1.145  0.00  0.00    +0.116 A 
ATOM     19  N   UNL     1      13.458   3.059   1.063  0.00  0.00    -0.284 N 
ATOM     20  C   UNL     1      13.714   1.763   0.827  0.00  0.00    +0.333 A 
ATOM     21  O   UNL     1      14.871   1.397   0.758  0.00  0.00    -0.246 OA
ATOM     22  N   UNL     1      12.738   0.855   0.663  0.00  0.00    -0.263 N 
ATOM     23  C   UNL     1      11.440   1.215   0.730  0.00  0.00    +0.269 A 
ATOM     24  O   UNL     1      10.557   0.390   0.580  0.00  0.00    -0.267 OA
ATOM     25  C   UNL     1      13.088  -0.545   0.407  0.00  0.00    +0.157 C 
ATOM     26  C   UNL     1      14.575   3.992   1.231  0.00  0.00    +0.155 C 
BRANCH  18  27
ATOM     27  N   UNL     1      11.937   4.845   1.380  0.00  0.00    -0.344 N 
ATOM     28  H   UNL     1      12.777   5.544   1.502  0.00  0.00    +0.144 HD
ATOM     29  H   UNL     1      10.902   5.212   1.448  0.00  0.00    +0.144 HD
ENDBRANCH  18  27
ENDBRANCH  15  17
ENDBRANCH  14  15
ENDBRANCH  12  14
ENDBRANCH   1  12
BRANCH   4  30
ATOM     30  C   UNL     1       3.077  -0.568   2.438  0.00  0.00    -0.001 C 
BRANCH  30  31
ATOM     31  N   UNL     1       3.101  -1.049   3.826  0.00  0.00    +0.384 N 
ATOM     32  C   UNL     1       1.739  -1.263   4.332  0.00  0.00    -0.078 C 
ATOM     33  C   UNL     1       1.797  -1.622   5.819  0.00  0.00    -0.019 C 
ATOM     34  C   UNL     1       2.634  -2.891   6.001  0.00  0.00    -0.004 C 
ATOM     35  C   UNL     1       4.032  -2.658   5.421  0.00  0.00    -0.019 C 
ATOM     36  C   UNL     1       3.909  -2.269   3.946  0.00  0.00    -0.078 C 
ATOM     37  H   UNL     1       3.571  -0.273   4.447  0.00  0.00    -0.081 HD
ENDBRANCH  30  31
ENDBRANCH   4  30
TORSDOF 8
