REMARK  Name = ZINC15941628
REMARK  12 active torsions:
REMARK  status: ('A' for Active; 'I' for Inactive)
REMARK    1  A    between atoms: C_1  and  C_2
REMARK    2  A    between atoms: C_2  and  O_3
REMARK    3  A    between atoms: O_3  and  C_4
REMARK    4  A    between atoms: C_7  and  C_13
REMARK    5  A    between atoms: C_9  and  O_10
REMARK    6  A    between atoms: O_10  and  C_11
REMARK    7  A    between atoms: C_11  and  C_12
REMARK    8  A    between atoms: C_13  and  C_14
REMARK    9  A    between atoms: C_14  and  N_15
REMARK   10  A    between atoms: C_16  and  C_18
REMARK   11  A    between atoms: N_23  and  S_25
REMARK   12  A    between atoms: S_25  and  N_28
REMARK                            x       y       z     vdW  Elec       q    Type
REMARK                         _______ _______ _______ _____ _____    ______ ____
ROOT
ATOM      1  N   UNL     1       0.006  -8.012  -2.791  0.00  0.00    -0.315 N 
ATOM      2  C   UNL     1      -0.956  -8.689  -3.449  0.00  0.00    +0.217 C 
ATOM      3  O   UNL     1      -1.915  -8.098  -3.898  0.00  0.00    -0.275 OA
ATOM      4  H   UNL     1       0.772  -8.485  -2.431  0.00  0.00    +0.149 HD
ENDROOT
BRANCH   2   5
ATOM      5  C   UNL     1      -0.841 -10.181  -3.625  0.00  0.00    +0.091 C 
ATOM      6  C   UNL     1       0.436 -10.506  -4.404  0.00  0.00    +0.015 C 
ATOM      7  C   UNL     1       0.571 -12.023  -4.556  0.00  0.00    +0.018 C 
ATOM      8  C   UNL     1      -0.626 -12.562  -5.345  0.00  0.00    +0.110 C 
ATOM      9  N   UNL     1      -1.863 -12.130  -4.680  0.00  0.00    -0.166 NA
ATOM     10  C   UNL     1      -2.055 -10.699  -4.403  0.00  0.00    +0.123 C 
BRANCH   9  11
ATOM     11  S   UNL     1      -3.021 -13.234  -4.251  0.00  0.00    +0.100 S 
ATOM     12  O   UNL     1      -4.250 -12.524  -4.173  0.00  0.00    -0.141 OA
ATOM     13  O   UNL     1      -2.843 -14.359  -5.101  0.00  0.00    -0.141 OA
BRANCH  11  14
ATOM     14  N   UNL     1      -2.669 -13.740  -2.714  0.00  0.00    -0.162 NA
ATOM     15  C   UNL     1      -1.790 -14.898  -2.481  0.00  0.00    +0.138 C 
ATOM     16  C   UNL     1      -0.711 -14.490  -1.472  0.00  0.00    +0.177 C 
ATOM     17  O   UNL     1      -1.336 -13.924  -0.317  0.00  0.00    -0.377 OA
ATOM     18  C   UNL     1      -2.075 -12.728  -0.579  0.00  0.00    +0.177 C 
ATOM     19  C   UNL     1      -3.220 -13.043  -1.542  0.00  0.00    +0.138 C 
ENDBRANCH  11  14
ENDBRANCH   9  11
ENDBRANCH   2   5
BRANCH   1  20
ATOM     20  C   UNL     1      -0.106  -6.561  -2.619  0.00  0.00    +0.109 C 
BRANCH  20  21
ATOM     21  C   UNL     1       1.107  -6.044  -1.844  0.00  0.00    +0.054 C 
BRANCH  21  25
ATOM     22  C   UNL     1       0.777  -1.811  -1.336  0.00  0.00    +0.162 A 
ATOM     23  C   UNL     1       0.243  -2.669  -0.388  0.00  0.00    +0.050 A 
ATOM     24  C   UNL     1       0.352  -4.037  -0.555  0.00  0.00    +0.007 A 
ATOM     25  C   UNL     1       0.992  -4.552  -1.667  0.00  0.00    -0.042 A 
ATOM     26  C   UNL     1       1.526  -3.702  -2.616  0.00  0.00    +0.053 A 
ATOM     27  C   UNL     1       1.416  -2.330  -2.458  0.00  0.00    +0.162 A 
BRANCH  22  28
ATOM     28  O   UNL     1       0.671  -0.465  -1.174  0.00  0.00    -0.489 OA
BRANCH  28  30
ATOM     29  C   UNL     1      -0.019   1.526   0.010  0.00  0.00    +0.048 C 
ATOM     30  C   UNL     1       0.002  -0.004   0.002  0.00  0.00    +0.226 C 
ENDBRANCH  28  30
ENDBRANCH  22  28
BRANCH  27  31
ATOM     31  O   UNL     1       1.936  -1.492  -3.394  0.00  0.00    -0.489 OA
BRANCH  31  32
ATOM     32  C   UNL     1       2.578  -2.095  -4.520  0.00  0.00    +0.226 C 
ATOM     33  C   UNL     1       3.096  -1.002  -5.457  0.00  0.00    +0.048 C 
ENDBRANCH  31  32
ENDBRANCH  27  31
ENDBRANCH  21  25
ENDBRANCH  20  21
ENDBRANCH   1  20
TORSDOF 10
