REMARK  Name = ZINC20635769
REMARK  4 active torsions:
REMARK  status: ('A' for Active; 'I' for Inactive)
REMARK    1  A    between atoms: C_1  and  C_2
REMARK    2  A    between atoms: C_5  and  N_9
REMARK    3  A    between atoms: C_10  and  C_12
REMARK    4  A    between atoms: C_20  and  N_30
REMARK                            x       y       z     vdW  Elec       q    Type
REMARK                         _______ _______ _______ _____ _____    ______ ____
ROOT
ATOM      1  C   UNL     1       0.310  -6.351   1.119  0.00  0.00    +0.121 C 
ATOM      2  C   UNL     1      -0.922  -6.965   0.451  0.00  0.00    +0.113 C 
ATOM      3  C   UNL     1      -2.110  -6.845   1.369  0.00  0.00    +0.219 C 
ATOM      4  O   UNL     1      -3.205  -6.609   0.904  0.00  0.00    -0.275 OA
ATOM      5  N   UNL     1      -1.971  -6.996   2.697  0.00  0.00    -0.270 N 
ATOM      6  C   UNL     1      -0.714  -7.156   3.265  0.00  0.00    +0.136 A 
ATOM      7  C   UNL     1       0.425  -6.860   2.529  0.00  0.00    +0.045 A 
ATOM      8  C   UNL     1       1.670  -7.043   3.120  0.00  0.00    +0.127 A 
ATOM      9  N   UNL     1       1.726  -7.478   4.378  0.00  0.00    -0.199 NA
ATOM     10  C   UNL     1       0.617  -7.727   5.059  0.00  0.00    +0.221 A 
ATOM     11  N   UNL     1      -0.583  -7.569   4.522  0.00  0.00    -0.199 NA
ATOM     12  N   UNL     1       0.716  -8.167   6.367  0.00  0.00    -0.295 N 
ATOM     13  C   UNL     1      -0.488  -8.463   7.160  0.00  0.00    +0.136 C 
ATOM     14  C   UNL     1      -0.328  -9.855   7.781  0.00  0.00    +0.179 C 
ATOM     15  O   UNL     1       0.920  -9.921   8.474  0.00  0.00    -0.377 OA
ATOM     16  C   UNL     1       2.066  -9.751   7.635  0.00  0.00    +0.179 C 
ATOM     17  C   UNL     1       2.028  -8.359   7.005  0.00  0.00    +0.136 C 
ATOM     18  H   UNL     1      -2.757  -6.994   3.266  0.00  0.00    +0.156 HD
ENDROOT
BRANCH   1  20
ATOM     19  N   UNL     1       0.059  -4.170  -0.022  0.00  0.00    -0.285 N 
ATOM     20  C   UNL     1       0.176  -4.850   1.136  0.00  0.00    +0.225 C 
ATOM     21  O   UNL     1       0.174  -4.254   2.192  0.00  0.00    -0.275 OA
ATOM     22  H   UNL     1      -0.006  -4.651  -0.862  0.00  0.00    +0.155 HD
BRANCH  19  27
ATOM     23  C   UNL     1      -0.050   1.502   0.013  0.00  0.00    +0.045 C 
ATOM     24  C   UNL     1      -0.021  -0.004   0.004  0.00  0.00    -0.032 A 
ATOM     25  C   UNL     1       0.591  -0.677  -1.038  0.00  0.00    +0.006 A 
ATOM     26  C   UNL     1       0.620  -2.057  -1.049  0.00  0.00    +0.023 A 
ATOM     27  C   UNL     1       0.032  -2.772  -0.013  0.00  0.00    +0.035 A 
ATOM     28  C   UNL     1      -0.582  -2.095   1.032  0.00  0.00    +0.043 A 
ATOM     29  C   UNL     1      -0.603  -0.713   1.041  0.00  0.00    +0.046 A 
ATOM     30 CL   UNL     1      -1.365   0.135   2.350  0.00  0.00    -0.083 Cl
ENDBRANCH  19  27
ENDBRANCH   1  20
BRANCH   8  31
ATOM     31  N   UNL     1       2.832  -6.777   2.413  0.00  0.00    -0.343 N 
ATOM     32  H   UNL     1       2.781  -6.460   1.498  0.00  0.00    +0.144 HD
ATOM     33  H   UNL     1       3.696  -6.907   2.834  0.00  0.00    +0.144 HD
ENDBRANCH   8  31
TORSDOF 3
