REMARK  Name = ZINC36013832
REMARK  13 active torsions:
REMARK  status: ('A' for Active; 'I' for Inactive)
REMARK    1  A    between atoms: C_1  and  C_2
REMARK    2  A    between atoms: C_2  and  N_3
REMARK    3  A    between atoms: C_4  and  C_25
REMARK    4  A    between atoms: C_5  and  C_20
REMARK    5  A    between atoms: C_6  and  C_11
REMARK    6  A    between atoms: C_14  and  C_17
REMARK    7  A    between atoms: C_17  and  C_18
REMARK    8  A    between atoms: C_17  and  C_19
REMARK    9  A    between atoms: C_20  and  O_22
REMARK   10  A    between atoms: O_22  and  C_23
REMARK   11  A    between atoms: C_23  and  C_24
REMARK   12  A    between atoms: C_25  and  N_26
REMARK   13  A    between atoms: C_33  and  C_35
REMARK                            x       y       z     vdW  Elec       q    Type
REMARK                         _______ _______ _______ _____ _____    ______ ____
ROOT
ATOM      1  N   UNL     1      -2.019  -1.215   0.550  0.00  0.00    -0.261 N 
ATOM      2  C   UNL     1      -1.930  -2.041   1.635  0.00  0.00    +0.010 C 
ATOM      3  C   UNL     1      -2.578  -3.225   1.664  0.00  0.00    +0.076 C 
ATOM      4  C   UNL     1      -3.406  -3.606   0.453  0.00  0.00    +0.143 C 
ATOM      5  N   UNL     1      -3.436  -2.646  -0.663  0.00  0.00    -0.288 N 
ATOM      6  C   UNL     1      -2.739  -1.499  -0.542  0.00  0.00    +0.307 C 
ATOM      7  O   UNL     1      -2.760  -0.699  -1.457  0.00  0.00    -0.252 OA
ATOM      8  H   UNL     1      -3.948  -2.834  -1.465  0.00  0.00    +0.151 HD
ENDROOT
BRANCH   4   9
ATOM      9  C   UNL     1      -2.881  -4.916  -0.075  0.00  0.00    -0.022 A 
ATOM     10  C   UNL     1      -1.742  -4.939  -0.859  0.00  0.00    +0.006 A 
ATOM     11  C   UNL     1      -1.260  -6.140  -1.344  0.00  0.00    +0.004 A 
ATOM     12  C   UNL     1      -1.917  -7.319  -1.044  0.00  0.00    -0.045 A 
ATOM     13  C   UNL     1      -3.055  -7.297  -0.260  0.00  0.00    +0.004 A 
ATOM     14  C   UNL     1      -3.534  -6.096   0.229  0.00  0.00    +0.006 A 
BRANCH  12  15
ATOM     15  C   UNL     1      -1.392  -8.629  -1.574  0.00  0.00    +0.013 C 
ATOM     16  C   UNL     1      -1.051  -9.553  -0.402  0.00  0.00    +0.012 C 
ATOM     17  C   UNL     1      -2.459  -9.289  -2.450  0.00  0.00    +0.012 C 
ENDBRANCH  12  15
ENDBRANCH   4   9
BRANCH   1  19
ATOM     18  C   UNL     1      -2.241   1.177   1.010  0.00  0.00    +0.025 C 
ATOM     19  C   UNL     1      -1.290   0.055   0.587  0.00  0.00    +0.111 C 
ENDBRANCH   1  19
BRANCH   3  20
ATOM     20  C   UNL     1      -2.486  -4.082   2.786  0.00  0.00    +0.339 C 
ATOM     21  O   UNL     1      -1.762  -3.788   3.718  0.00  0.00    -0.245 OA
BRANCH  20  22
ATOM     22  O   UNL     1      -3.203  -5.224   2.823  0.00  0.00    -0.462 OA
BRANCH  22  23
ATOM     23  C   UNL     1      -3.062  -6.041   3.987  0.00  0.00    +0.229 C 
ATOM     24  C   UNL     1      -3.944  -7.284   3.848  0.00  0.00    +0.048 C 
ENDBRANCH  22  23
ENDBRANCH  20  22
ENDBRANCH   3  20
BRANCH   2  25
ATOM     25  C   UNL     1      -1.096  -1.623   2.818  0.00  0.00    -0.026 C 
BRANCH  25  26
ATOM     26  N   UNL     1       0.214  -2.284   2.751  0.00  0.00    +0.384 N 
ATOM     27  C   UNL     1       0.905  -2.068   4.021  0.00  0.00    -0.077 C 
ATOM     28  C   UNL     1       1.833  -3.233   4.289  0.00  0.00    +0.000 C 
ATOM     29  C   UNL     1       3.239  -2.901   3.757  0.00  0.00    +0.106 C 
ATOM     30  N   UNL     1       3.164  -2.191   2.464  0.00  0.00    -0.303 N 
ATOM     31  C   UNL     1       2.229  -2.569   1.425  0.00  0.00    +0.089 C 
ATOM     32  C   UNL     1       0.898  -1.804   1.612  0.00  0.00    -0.059 C 
ATOM     33  C   UNL     1       3.995  -1.153   2.244  0.00  0.00    +0.219 C 
ATOM     34  O   UNL     1       3.886  -0.493   1.232  0.00  0.00    -0.275 OA
ATOM     35  H   UNL     1       0.064  -3.275   2.638  0.00  0.00    -0.081 HD
BRANCH  33  36
ATOM     36  C   UNL     1       5.061  -0.814   3.254  0.00  0.00    +0.075 C 
ATOM     37  C   UNL     1       4.453   0.012   4.406  0.00  0.00    +0.013 C 
ATOM     38  C   UNL     1       5.561   1.033   4.768  0.00  0.00    +0.001 C 
ATOM     39  C   UNL     1       6.153   1.399   3.384  0.00  0.00    +0.001 C 
ATOM     40  C   UNL     1       6.142   0.068   2.603  0.00  0.00    +0.013 C 
ENDBRANCH  33  36
ENDBRANCH  25  26
ENDBRANCH   2  25
TORSDOF 9
