REMARK  Name = ZINC08700353
REMARK  6 active torsions:
REMARK  status: ('A' for Active; 'I' for Inactive)
REMARK    1  A    between atoms: C_1  and  C_2
REMARK    2  A    between atoms: C_2  and  C_3
REMARK    3  A    between atoms: C_2  and  C_4
REMARK    4  A    between atoms: C_5  and  C_17
REMARK    5  A    between atoms: C_6  and  C_9
REMARK    6  A    between atoms: C_17  and  O_18
REMARK                            x       y       z     vdW  Elec       q    Type
REMARK                         _______ _______ _______ _____ _____    ______ ____
ROOT
ATOM      1  C   UNL     1      -0.707   7.421   0.014  0.00  0.00    +0.146 A 
ATOM      2  C   UNL     1      -1.216   6.170  -0.052  0.00  0.00    +0.048 A 
ATOM      3  C   UNL     1      -0.069   5.330   0.014  0.00  0.00    +0.122 A 
ATOM      4  N   UNL     1       0.963   6.130   0.114  0.00  0.00    -0.078 NA
ATOM      5  O   UNL     1       0.624   7.291   0.110  0.00  0.00    -0.358 OA
ENDROOT
BRANCH   3   6
ATOM      6  C   UNL     1      -0.047   3.846  -0.018  0.00  0.00    +0.041 A 
ATOM      7  C   UNL     1      -0.588   3.161  -1.105  0.00  0.00    +0.052 A 
ATOM      8  C   UNL     1      -0.564   1.780  -1.129  0.00  0.00    +0.021 A 
ATOM      9  C   UNL     1      -0.005   1.077  -0.077  0.00  0.00    +0.003 A 
ATOM     10  C   UNL     1       0.527   1.751   1.007  0.00  0.00    +0.021 A 
ATOM     11  C   UNL     1       0.514   3.132   1.040  0.00  0.00    +0.052 A 
ATOM     12 CL   UNL     1       1.190   3.976   2.398  0.00  0.00    -0.083 Cl
ATOM     13 CL   UNL     1      -1.288   4.042  -2.427  0.00  0.00    -0.083 Cl
ENDBRANCH   3   6
BRANCH   1  15
ATOM     14  C   UNL     1      -1.226   9.492   1.276  0.00  0.00    +0.015 C 
ATOM     15  C   UNL     1      -1.485   8.711  -0.014  0.00  0.00    +0.052 C 
ATOM     16  C   UNL     1      -1.041   9.548  -1.215  0.00  0.00    +0.015 C 
ENDBRANCH   1  15
BRANCH   2  17
ATOM     17  C   UNL     1      -2.661   5.760  -0.169  0.00  0.00    +0.196 C 
BRANCH  17  18
ATOM     18  O   UNL     1      -3.256   5.733   1.130  0.00  0.00    -0.390 OA
ATOM     19  H   UNL     1      -4.188   5.477   1.131  0.00  0.00    +0.210 HD
ENDBRANCH  17  18
ENDBRANCH   2  17
TORSDOF 4
