REMARK  Name = ZINC64028533
REMARK  2 active torsions:
REMARK  status: ('A' for Active; 'I' for Inactive)
REMARK    1  A    between atoms: C_4  and  C_10
REMARK    2  A    between atoms: C_16  and  C_18
REMARK                            x       y       z     vdW  Elec       q    Type
REMARK                         _______ _______ _______ _____ _____    ______ ____
ROOT
ATOM      1  C   UNL     1       4.173   3.126  -0.058  0.00  0.00    -0.043 C 
ATOM      2  C   UNL     1       3.298   4.122  -0.140  0.00  0.00    -0.004 C 
ATOM      3  C   UNL     1       3.698   5.571  -0.151  0.00  0.00    +0.135 C 
ATOM      4  N   UNL     1       5.119   5.681   0.207  0.00  0.00    -0.294 N 
ATOM      5  C   UNL     1       6.050   4.722  -0.411  0.00  0.00    +0.113 C 
ATOM      6  C   UNL     1       5.657   3.317   0.056  0.00  0.00    +0.054 C 
ATOM      7  C   UNL     1       5.554   6.625   1.066  0.00  0.00    +0.241 C 
ATOM      8  O   UNL     1       6.746   6.755   1.275  0.00  0.00    -0.271 OA
ENDROOT
BRANCH   1  12
ATOM      9  C   UNL     1       6.165  -0.914   0.520  0.00  0.00    +0.020 A 
ATOM     10  C   UNL     1       5.764   0.382   0.377  0.00  0.00    +0.013 A 
ATOM     11  C   UNL     1       4.397   0.635   0.120  0.00  0.00    +0.022 A 
ATOM     12  C   UNL     1       3.676   1.807  -0.073  0.00  0.00    -0.015 C 
ATOM     13  C   UNL     1       2.246   1.371  -0.303  0.00  0.00    +0.150 C 
ATOM     14  N   UNL     1       2.252  -0.093  -0.221  0.00  0.00    -0.365 N 
ATOM     15  C   UNL     1       3.475  -0.511   0.019  0.00  0.00    +0.135 A 
ATOM     16  N   UNL     1       3.974  -1.755   0.177  0.00  0.00    -0.238 NA
ATOM     17  C   UNL     1       5.245  -1.956   0.415  0.00  0.00    +0.113 A 
ATOM     18  H   UNL     1       1.474  -0.663  -0.327  0.00  0.00    +0.161 HD
ENDBRANCH   1  12
BRANCH   7  19
ATOM     19  C   UNL     1       4.625   7.463   1.724  0.00  0.00    +0.087 C 
ATOM     20  C   UNL     1       5.062   8.480   2.495  0.00  0.00    +0.028 C 
ATOM     21  N   UNL     1       6.377   8.822   2.726  0.00  0.00    -0.319 N 
ATOM     22  C   UNL     1       6.389   9.498   4.023  0.00  0.00    +0.223 C 
ATOM     23  N   UNL     1       5.136  10.313   4.021  0.00  0.00    -0.303 N 
ATOM     24  C   UNL     1       4.198   9.461   3.261  0.00  0.00    +0.157 C 
ATOM     25  C   UNL     1       5.300  11.556   4.608  0.00  0.00    +0.080 C 
ATOM     26  C   UNL     1       6.503  12.105   4.750  0.00  0.00    +0.059 C 
ATOM     27  S   UNL     1       7.623  10.859   4.059  0.00  0.00    -0.090 S 
ATOM     28  H   UNL     1       7.137   8.649   2.148  0.00  0.00    +0.148 HD
ENDBRANCH   7  19
TORSDOF 2
