REMARK  Name = ZINC51614146
REMARK  8 active torsions:
REMARK  status: ('A' for Active; 'I' for Inactive)
REMARK    1  A    between atoms: C_1  and  O_2
REMARK    2  A    between atoms: O_2  and  C_3
REMARK    3  A    between atoms: C_3  and  C_5
REMARK    4  A    between atoms: C_7  and  N_12
REMARK    5  A    between atoms: N_15  and  C_16
REMARK    6  A    between atoms: C_16  and  C_17
REMARK    7  A    between atoms: N_19  and  C_20
REMARK    8  A    between atoms: C_20  and  C_21
REMARK                            x       y       z     vdW  Elec       q    Type
REMARK                         _______ _______ _______ _____ _____    ______ ____
ROOT
ATOM      1  N   UNL     1      -0.422  -5.016   0.823  0.00  0.00    -0.269 N 
ATOM      2  C   UNL     1      -0.455  -6.358   0.700  0.00  0.00    +0.304 C 
ATOM      3  O   UNL     1       0.090  -6.895  -0.246  0.00  0.00    -0.252 OA
ATOM      4  N   UNL     1      -1.091  -7.104   1.624  0.00  0.00    -0.291 N 
ATOM      5  H   UNL     1      -0.789  -4.593   1.615  0.00  0.00    +0.156 HD
ATOM      6  H   UNL     1      -1.526  -6.676   2.378  0.00  0.00    +0.151 HD
ENDROOT
BRANCH   1   9
ATOM      7  C   UNL     1       0.599  -3.849  -2.523  0.00  0.00    +0.079 A 
ATOM      8  C   UNL     1       0.036  -4.633  -1.514  0.00  0.00    +0.039 A 
ATOM      9  C   UNL     1       0.142  -4.233  -0.192  0.00  0.00    +0.036 A 
ATOM     10  C   UNL     1       0.806  -3.055   0.128  0.00  0.00    +0.025 A 
ATOM     11  C   UNL     1       1.363  -2.277  -0.869  0.00  0.00    +0.022 A 
ATOM     12  C   UNL     1       1.270  -2.669  -2.191  0.00  0.00    +0.055 A 
ATOM     13 CL   UNL     1       1.979  -1.693  -3.439  0.00  0.00    -0.083 Cl
BRANCH   7  14
ATOM     14  C   UNL     1       0.491  -4.269  -3.934  0.00  0.00    +0.340 C 
ATOM     15  O   UNL     1       0.986  -3.587  -4.810  0.00  0.00    -0.245 OA
BRANCH  14  17
ATOM     16  C   UNL     1      -0.223  -5.751  -5.637  0.00  0.00    +0.280 C 
ATOM     17  O   UNL     1      -0.157  -5.407  -4.251  0.00  0.00    -0.464 OA
ENDBRANCH  14  17
ENDBRANCH   7  14
ENDBRANCH   1   9
BRANCH   4  18
ATOM     18  C   UNL     1      -1.127  -8.562   1.489  0.00  0.00    +0.201 C 
BRANCH  18  19
ATOM     19  C   UNL     1      -1.895  -9.155   2.643  0.00  0.00    +0.231 C 
ATOM     20  O   UNL     1      -2.365  -8.430   3.494  0.00  0.00    -0.274 OA
ATOM     21  N   UNL     1      -2.058 -10.490   2.730  0.00  0.00    -0.303 N 
ATOM     22  H   UNL     1      -1.681 -11.069   2.050  0.00  0.00    +0.150 HD
BRANCH  21  23
ATOM     23  C   UNL     1      -2.804 -11.065   3.852  0.00  0.00    +0.193 C 
BRANCH  23  24
ATOM     24  C   UNL     1      -2.840 -12.530   3.717  0.00  0.00    -0.087 C 
ATOM     25  C   UNL     1      -2.868 -13.699   3.609  0.00  0.00    +0.005 C 
ENDBRANCH  23  24
ENDBRANCH  21  23
ENDBRANCH  18  19
ENDBRANCH   4  18
TORSDOF 7
