REMARK  Name = ZINC16632951
REMARK  17 active torsions:
REMARK  status: ('A' for Active; 'I' for Inactive)
REMARK    1  A    between atoms: C_1  and  C_2
REMARK    2  A    between atoms: C_2  and  C_3
REMARK    3  A    between atoms: C_2  and  C_4
REMARK    4  A    between atoms: C_4  and  N_5
REMARK    5  A    between atoms: C_6  and  N_33
REMARK    6  A    between atoms: C_7  and  N_14
REMARK    7  A    between atoms: N_14  and  C_15
REMARK    8  A    between atoms: C_15  and  C_16
REMARK    9  A    between atoms: C_16  and  C_17
REMARK   10  A    between atoms: C_16  and  C_18
REMARK   11  A    between atoms: C_19  and  C_21
REMARK   12  A    between atoms: C_21  and  N_67
REMARK   13  A    between atoms: C_22  and  N_67
REMARK   14  A    between atoms: C_23  and  C_24
REMARK   15  A    between atoms: C_23  and  N_67
REMARK   16  A    between atoms: C_24  and  O_25
REMARK   17  A    between atoms: O_25  and  C_26
REMARK                            x       y       z     vdW  Elec       q    Type
REMARK                         _______ _______ _______ _____ _____    ______ ____
ROOT
ATOM      1  N   UNL     1       1.131   8.912   3.357  0.00  0.00    -0.266 N 
ATOM      2  C   UNL     1       1.126   7.694   2.777  0.00  0.00    +0.203 C 
ATOM      3  O   UNL     1       0.925   6.703   3.449  0.00  0.00    -0.277 OA
ENDROOT
BRANCH   1   6
ATOM      4  N   UNL     1      -0.179   9.777   6.679  0.00  0.00    -0.280 N 
ATOM      5  C   UNL     1      -0.080   9.681   5.311  0.00  0.00    +0.127 A 
ATOM      6  C   UNL     1       1.002   9.028   4.757  0.00  0.00    +0.140 A 
ATOM      7  C   UNL     1       1.972   8.474   5.614  0.00  0.00    +0.277 A 
ATOM      8  O   UNL     1       2.936   7.887   5.152  0.00  0.00    -0.266 OA
ATOM      9  N   UNL     1       1.831   8.600   6.948  0.00  0.00    -0.273 N 
ATOM     10  H   UNL     1       2.523   8.214   7.557  0.00  0.00    +0.173 HD
ATOM     11  C   UNL     1       0.769   9.240   7.469  0.00  0.00    +0.331 A 
ATOM     12  O   UNL     1       0.664   9.336   8.677  0.00  0.00    -0.246 OA
BRANCH   5  13
ATOM     13  N   UNL     1      -1.048  10.229   4.504  0.00  0.00    -0.343 N 
ATOM     14  H   UNL     1      -1.037  10.059   3.549  0.00  0.00    +0.144 HD
ATOM     15  H   UNL     1      -1.742  10.787   4.889  0.00  0.00    +0.144 HD
ENDBRANCH   5  13
BRANCH   4  16
ATOM     16  C   UNL     1      -1.323  10.467   7.280  0.00  0.00    +0.131 C 
BRANCH  16  18
ATOM     17  C   UNL     1      -3.598  10.158   8.264  0.00  0.00    +0.009 C 
ATOM     18  C   UNL     1      -2.452   9.465   7.524  0.00  0.00    +0.003 C 
ATOM     19  C   UNL     1      -2.960   8.932   6.183  0.00  0.00    +0.009 C 
ENDBRANCH  16  18
ENDBRANCH   4  16
ENDBRANCH   1   6
BRANCH   1  20
ATOM     20  C   UNL     1       1.271  10.115   2.533  0.00  0.00    +0.117 C 
BRANCH  20  21
ATOM     21  C   UNL     1       2.756  10.402   2.297  0.00  0.00    +0.001 C 
ATOM     22  C   UNL     1       2.901  11.558   1.305  0.00  0.00    +0.009 C 
ATOM     23  C   UNL     1       3.419  10.781   3.622  0.00  0.00    +0.009 C 
ENDBRANCH  20  21
ENDBRANCH   1  20
BRANCH   2  24
ATOM     24  C   UNL     1       1.370   7.563   1.296  0.00  0.00    +0.019 C 
BRANCH  24  26
ATOM     25  C   UNL     1      -0.239   5.771   1.046  0.00  0.00    -0.095 C 
ATOM     26  N   UNL     1       1.183   6.150   0.905  0.00  0.00    +0.386 N 
ATOM     27  H   UNL     1       1.749   5.556   1.521  0.00  0.00    -0.081 HD
BRANCH  26  28
ATOM     28  C   UNL     1       1.622   5.950  -0.492  0.00  0.00    -0.037 C 
BRANCH  28  29
ATOM     29  C   UNL     1       3.150   5.879  -0.520  0.00  0.00    +0.210 C 
BRANCH  29  30
ATOM     30  O   UNL     1       3.585   4.711   0.178  0.00  0.00    -0.494 OA
BRANCH  30  31
ATOM     31  C   UNL     1       4.926   4.496   0.247  0.00  0.00    +0.120 A 
ATOM     32  C   UNL     1       5.418   3.381   0.910  0.00  0.00    +0.047 A 
ATOM     33  C   UNL     1       6.780   3.165   0.979  0.00  0.00    +0.023 A 
ATOM     34  C   UNL     1       7.654   4.060   0.387  0.00  0.00    +0.041 A 
ATOM     35  C   UNL     1       7.166   5.173  -0.274  0.00  0.00    +0.023 A 
ATOM     36  C   UNL     1       5.804   5.393  -0.344  0.00  0.00    +0.047 A 
ATOM     37 CL   UNL     1       9.366   3.786   0.475  0.00  0.00    -0.084 Cl
ENDBRANCH  30  31
ENDBRANCH  29  30
ENDBRANCH  28  29
ENDBRANCH  26  28
ENDBRANCH  24  26
ENDBRANCH   2  24
TORSDOF 12
