REMARK  Name = ZINC40657706
REMARK  7 active torsions:
REMARK  status: ('A' for Active; 'I' for Inactive)
REMARK    1  A    between atoms: C_1  and  C_2
REMARK    2  A    between atoms: C_7  and  C_8
REMARK    3  A    between atoms: N_10  and  N_11
REMARK    4  A    between atoms: C_13  and  N_29
REMARK    5  A    between atoms: C_14  and  N_18
REMARK    6  A    between atoms: N_18  and  N_19
REMARK    7  A    between atoms: C_20  and  C_22
REMARK                            x       y       z     vdW  Elec       q    Type
REMARK                         _______ _______ _______ _____ _____    ______ ____
ROOT
ATOM      1  N   UNL     1       0.574   0.035   4.838  0.00  0.00    -0.246 N 
ATOM      2  C   UNL     1       0.803  -0.661   6.015  0.00  0.00    +0.171 A 
ATOM      3  C   UNL     1       0.907   0.015   7.227  0.00  0.00    +0.208 A 
ATOM      4  C   UNL     1       1.137  -0.731   8.379  0.00  0.00    +0.171 A 
ATOM      5  N   UNL     1       1.249  -2.054   8.281  0.00  0.00    -0.217 NA
ATOM      6  C   UNL     1       1.144  -2.657   7.115  0.00  0.00    +0.225 A 
ATOM      7  N   UNL     1       0.922  -1.988   6.002  0.00  0.00    -0.217 NA
ATOM      8  H   UNL     1       0.489   1.002   4.856  0.00  0.00    +0.172 HD
ENDROOT
BRANCH   1  11
ATOM      9  C   UNL     1       0.243   0.022   2.481  0.00  0.00    +0.260 C 
ATOM     10  O   UNL     1       0.136   1.232   2.502  0.00  0.00    -0.269 OA
ATOM     11  N   UNL     1       0.466  -0.656   3.624  0.00  0.00    -0.231 N 
ATOM     12  H   UNL     1       0.551  -1.622   3.607  0.00  0.00    +0.173 HD
BRANCH   9  19
ATOM     13  C   UNL     1      -0.513   1.452   0.082  0.00  0.00    +0.044 C 
ATOM     14  C   UNL     1      -0.235  -0.028   0.036  0.00  0.00    -0.038 A 
ATOM     15  C   UNL     1      -0.335  -0.714  -1.157  0.00  0.00    +0.004 A 
ATOM     16  C   UNL     1      -0.080  -2.073  -1.200  0.00  0.00    +0.000 A 
ATOM     17  C   UNL     1       0.275  -2.754  -0.049  0.00  0.00    +0.001 A 
ATOM     18  C   UNL     1       0.377  -2.081   1.150  0.00  0.00    +0.013 A 
ATOM     19  C   UNL     1       0.128  -0.708   1.200  0.00  0.00    +0.041 A 
ENDBRANCH   9  19
ENDBRANCH   1  11
BRANCH   3  20
ATOM     20  N   UNL     1       0.777   1.488   7.288  0.00  0.00    +0.063 N 
ATOM     21  O   UNL     1      -0.309   1.992   7.456  0.00  0.00    -0.126 OA
ATOM     22  O   UNL     1       1.756   2.187   7.171  0.00  0.00    -0.126 OA
ENDBRANCH   3  20
BRANCH   4  23
ATOM     23  N   UNL     1       1.249  -0.104   9.611  0.00  0.00    -0.246 N 
ATOM     24  H   UNL     1       1.167   0.860   9.674  0.00  0.00    +0.172 HD
BRANCH  23  25
ATOM     25  N   UNL     1       1.480  -0.865  10.765  0.00  0.00    -0.231 N 
ATOM     26  C   UNL     1       1.589  -0.256  11.962  0.00  0.00    +0.261 C 
ATOM     27  O   UNL     1       1.486   0.953  12.041  0.00  0.00    -0.269 OA
ATOM     28  H   UNL     1       1.562  -1.829  10.702  0.00  0.00    +0.173 HD
BRANCH  26  29
ATOM     29  C   UNL     1       1.833  -1.058  13.179  0.00  0.00    +0.052 A 
ATOM     30  C   UNL     1       1.958  -2.445  13.091  0.00  0.00    +0.014 A 
ATOM     31  C   UNL     1       2.186  -3.188  14.231  0.00  0.00    +0.001 A 
ATOM     32  C   UNL     1       2.292  -2.561  15.460  0.00  0.00    +0.001 A 
ATOM     33  C   UNL     1       2.169  -1.186  15.556  0.00  0.00    +0.016 A 
ATOM     34  C   UNL     1       1.946  -0.430  14.422  0.00  0.00    +0.030 A 
ATOM     35 BR   UNL     1       1.787   1.450  14.552  0.00  0.00    -0.050 Br
ENDBRANCH  26  29
ENDBRANCH  23  25
ENDBRANCH   4  23
TORSDOF 6
