REMARK  Name = ZINC36603236
REMARK  12 active torsions:
REMARK  status: ('A' for Active; 'I' for Inactive)
REMARK    1  A    between atoms: C_1  and  C_2
REMARK    2  A    between atoms: C_5  and  C_7
REMARK    3  A    between atoms: C_7  and  N_8
REMARK    4  A    between atoms: N_8  and  C_9
REMARK    5  A    between atoms: C_9  and  C_11
REMARK    6  A    between atoms: C_9  and  C_20
REMARK    7  A    between atoms: C_12  and  O_19
REMARK    8  A    between atoms: C_14  and  O_18
REMARK    9  A    between atoms: C_16  and  O_17
REMARK   10  A    between atoms: N_22  and  C_23
REMARK   11  A    between atoms: C_29  and  C_31
REMARK   12  A    between atoms: C_31  and  C_32
REMARK                            x       y       z     vdW  Elec       q    Type
REMARK                         _______ _______ _______ _____ _____    ______ ____
ROOT
ATOM      1  C   UNL     1       3.137  -3.222  -2.016  0.00  0.00    +0.200 C 
ENDROOT
BRANCH   1   2
ATOM      2  C   UNL     1       4.377  -3.754  -1.345  0.00  0.00    +0.065 A 
ATOM      3  C   UNL     1       5.371  -4.356  -2.102  0.00  0.00    +0.129 A 
ATOM      4  C   UNL     1       6.513  -4.845  -1.485  0.00  0.00    +0.091 A 
ATOM      5  C   UNL     1       6.660  -4.732  -0.111  0.00  0.00    +0.124 A 
ATOM      6  C   UNL     1       5.667  -4.129   0.646  0.00  0.00    +0.091 A 
ATOM      7  C   UNL     1       4.527  -3.636   0.028  0.00  0.00    +0.129 A 
BRANCH   7   8
ATOM      8  O   UNL     1       3.556  -3.041   0.769  0.00  0.00    -0.506 OA
ATOM      9  H   UNL     1       2.880  -3.652   1.094  0.00  0.00    +0.292 HD
ENDBRANCH   7   8
BRANCH   5  10
ATOM     10  O   UNL     1       7.779  -5.212   0.494  0.00  0.00    -0.507 OA
ATOM     11  H   UNL     1       8.496  -4.568   0.562  0.00  0.00    +0.292 HD
ENDBRANCH   5  10
BRANCH   3  12
ATOM     12  O   UNL     1       5.226  -4.467  -3.449  0.00  0.00    -0.506 OA
ATOM     13  H   UNL     1       5.645  -3.753  -3.950  0.00  0.00    +0.292 HD
ENDBRANCH   3  12
ENDBRANCH   1   2
BRANCH   1  14
ATOM     14  C   UNL     1       3.198  -1.717  -2.064  0.00  0.00    +0.239 C 
ATOM     15  O   UNL     1       2.364  -1.058  -1.481  0.00  0.00    -0.273 OA
ATOM     16  N   UNL     1       4.179  -1.105  -2.756  0.00  0.00    -0.311 N 
ATOM     17  H   UNL     1       4.846  -1.632  -3.223  0.00  0.00    +0.149 HD
BRANCH  16  18
ATOM     18  C   UNL     1       4.238   0.358  -2.803  0.00  0.00    +0.073 C 
ATOM     19  C   UNL     1       3.330   0.870  -3.923  0.00  0.00    +0.022 C 
ATOM     20  C   UNL     1       3.391   2.398  -3.972  0.00  0.00    +0.002 C 
ATOM     21  C   UNL     1       4.831   2.842  -4.241  0.00  0.00    +0.000 C 
ATOM     22  C   UNL     1       5.739   2.330  -3.121  0.00  0.00    +0.002 C 
ATOM     23  C   UNL     1       5.678   0.802  -3.072  0.00  0.00    +0.022 C 
ENDBRANCH  16  18
ENDBRANCH   1  14
BRANCH   1  24
ATOM     24  N   UNL     1       1.955  -3.639  -1.258  0.00  0.00    -0.278 N 
ATOM     25  C   UNL     1       1.569  -4.930  -1.267  0.00  0.00    +0.221 C 
ATOM     26  O   UNL     1       2.200  -5.747  -1.904  0.00  0.00    -0.275 OA
BRANCH  24  27
ATOM     27  C   UNL     1       1.193  -2.652  -0.489  0.00  0.00    +0.183 C 
BRANCH  27  32
ATOM     28  C   UNL     1      -1.084   0.628  -3.570  0.00  0.00    +0.086 C 
ATOM     29  C   UNL     1      -0.835  -0.589  -2.717  0.00  0.00    +0.102 A 
ATOM     30  C   UNL     1      -1.695  -1.605  -2.525  0.00  0.00    +0.045 A 
ATOM     31  C   UNL     1      -1.057  -2.524  -1.661  0.00  0.00    +0.046 A 
ATOM     32  C   UNL     1       0.155  -2.015  -1.377  0.00  0.00    +0.122 A 
ATOM     33  O   UNL     1       0.287  -0.846  -2.024  0.00  0.00    -0.463 OA
ENDBRANCH  27  32
ENDBRANCH  24  27
BRANCH  25  34
ATOM     34  C   UNL     1       0.353  -5.359  -0.487  0.00  0.00    +0.131 C 
BRANCH  34  35
ATOM     35  C   UNL     1       0.139  -6.840  -0.663  0.00  0.00    -0.039 A 
ATOM     36  C   UNL     1      -0.642  -7.307  -1.703  0.00  0.00    +0.004 A 
ATOM     37  C   UNL     1      -0.838  -8.666  -1.865  0.00  0.00    +0.000 A 
ATOM     38  C   UNL     1      -0.252  -9.558  -0.987  0.00  0.00    +0.000 A 
ATOM     39  C   UNL     1       0.531  -9.091   0.053  0.00  0.00    +0.000 A 
ATOM     40  C   UNL     1       0.730  -7.733   0.212  0.00  0.00    +0.004 A 
ENDBRANCH  34  35
ENDBRANCH  25  34
ENDBRANCH   1  24
TORSDOF 11
