REMARK  Name = ZINC14461131
REMARK  5 active torsions:
REMARK  status: ('A' for Active; 'I' for Inactive)
REMARK    1  A    between atoms: C_6  and  O_7
REMARK    2  A    between atoms: O_7  and  C_8
REMARK    3  A    between atoms: C_8  and  C_9
REMARK    4  A    between atoms: C_22  and  C_25
REMARK    5  A    between atoms: C_30  and  O_31
REMARK                            x       y       z     vdW  Elec       q    Type
REMARK                         _______ _______ _______ _____ _____    ______ ____
ROOT
ATOM      1  C   UNL     1      -5.168   5.310  -0.300  0.00  0.00    +0.047 A 
ATOM      2  C   UNL     1      -4.663   4.171  -0.896  0.00  0.00    +0.027 A 
ATOM      3  C   UNL     1      -4.039   3.199  -0.125  0.00  0.00    +0.032 A 
ATOM      4  C   UNL     1      -3.918   3.358   1.247  0.00  0.00    -0.016 A 
ATOM      5  C   UNL     1      -4.427   4.505   1.839  0.00  0.00    +0.051 A 
ATOM      6  C   UNL     1      -5.048   5.476   1.071  0.00  0.00    +0.121 A 
ATOM      7  C   UNL     1      -3.256   2.336   2.116  0.00  0.00    +0.049 C 
ATOM      8  C   UNL     1      -1.883   2.800   2.539  0.00  0.00    -0.023 C 
ATOM      9  C   UNL     1      -1.054   1.786   2.581  0.00  0.00    -0.030 C 
ATOM     10  C   UNL     1      -1.770   0.481   2.191  0.00  0.00    +0.033 C 
ATOM     11  C   UNL     1      -2.998   1.002   1.388  0.00  0.00    +0.029 C 
ATOM     12  C   UNL     1      -2.526   1.272  -0.044  0.00  0.00    +0.108 C 
ATOM     13  N   UNL     1      -3.546   2.063  -0.739  0.00  0.00    -0.336 N 
ATOM     14  H   UNL     1      -3.870   1.800  -1.615  0.00  0.00    +0.147 HD
ENDROOT
BRANCH  12  15
ATOM     15  C   UNL     1      -1.228   2.037  -0.012  0.00  0.00    +0.015 A 
ATOM     16  C   UNL     1      -1.240   3.413   0.112  0.00  0.00    +0.024 A 
ATOM     17  C   UNL     1      -0.049   4.117   0.135  0.00  0.00    +0.018 A 
ATOM     18  C   UNL     1       1.156   3.444   0.040  0.00  0.00    +0.019 A 
ATOM     19  C   UNL     1       1.172   2.067  -0.078  0.00  0.00    +0.047 A 
ATOM     20  C   UNL     1      -0.021   1.360  -0.101  0.00  0.00    +0.122 A 
ATOM     21 BR   UNL     1      -0.069   6.001   0.295  0.00  0.00    -0.050 Br
BRANCH  20  22
ATOM     22  O   UNL     1      -0.007   0.006  -0.217  0.00  0.00    -0.506 OA
ATOM     23  H   UNL     1       0.124  -0.459   0.620  0.00  0.00    +0.292 HD
ENDBRANCH  20  22
ENDBRANCH  12  15
BRANCH   6  24
ATOM     24  O   UNL     1      -5.541   6.596   1.664  0.00  0.00    -0.489 OA
BRANCH  24  25
ATOM     25  C   UNL     1      -6.170   7.558   0.813  0.00  0.00    +0.260 C 
BRANCH  25  26
ATOM     26  C   UNL     1      -6.658   8.740   1.653  0.00  0.00    +0.156 C 
ATOM     27  C   UNL     1      -7.295   9.819   0.742  0.00  0.00    +0.037 C 
ATOM     28  C   UNL     1      -8.243  10.530   1.745  0.00  0.00    +0.031 C 
ATOM     29  C   UNL     1      -8.689   9.365   2.656  0.00  0.00    +0.160 C 
ATOM     30  O   UNL     1      -7.713   8.323   2.534  0.00  0.00    -0.373 OA
ENDBRANCH  25  26
ENDBRANCH  24  25
ENDBRANCH   6  24
TORSDOF 5
