REMARK  Name = ZINC04911272
REMARK  12 active torsions:
REMARK  status: ('A' for Active; 'I' for Inactive)
REMARK    1  A    between atoms: C_1  and  C_2
REMARK    2  A    between atoms: C_2  and  C_3
REMARK    3  A    between atoms: C_3  and  C_4
REMARK    4  A    between atoms: C_9  and  C_10
REMARK    5  A    between atoms: C_10  and  O_12
REMARK    6  A    between atoms: O_12  and  C_13
REMARK    7  A    between atoms: C_13  and  C_14
REMARK    8  A    between atoms: C_16  and  C_21
REMARK    9  A    between atoms: C_24  and  C_27
REMARK   10  A    between atoms: C_27  and  C_28
REMARK   11  A    between atoms: C_27  and  C_29
REMARK   12  A    between atoms: C_27  and  C_30
REMARK                            x       y       z     vdW  Elec       q    Type
REMARK                         _______ _______ _______ _____ _____    ______ ____
ROOT
ATOM      1  C   UNL     1      -0.017   1.364   0.009  0.00  0.00    -0.005 A 
ATOM      2  C   UNL     1       1.319   1.782  -0.001  0.00  0.00    +0.042 A 
ATOM      3  C   UNL     1       2.121   0.641  -0.017  0.00  0.00    +0.028 A 
ATOM      4  N   UNL     1       1.319  -0.424  -0.013  0.00  0.00    -0.352 N 
ATOM      5  H   UNL     1       1.613  -1.348  -0.020  0.00  0.00    +0.166 HD
ATOM      6  C   UNL     1       0.002  -0.004   0.002  0.00  0.00    +0.128 A 
ATOM      7  C   UNL     1       3.627   0.699  -0.038  0.00  0.00    +0.062 C 
ATOM      8  C   UNL     1       4.072   2.075  -0.542  0.00  0.00    +0.032 C 
ATOM      9  C   UNL     1       3.399   3.190   0.265  0.00  0.00    +0.088 C 
ATOM     10  C   UNL     1       1.901   3.134   0.006  0.00  0.00    +0.166 C 
ATOM     11  O   UNL     1       1.234   4.130  -0.182  0.00  0.00    -0.292 OA
ENDROOT
BRANCH   8  12
ATOM     12  C   UNL     1       5.568   2.196  -0.402  0.00  0.00    -0.043 A 
ATOM     13  C   UNL     1       6.154   2.116   0.847  0.00  0.00    +0.004 A 
ATOM     14  C   UNL     1       7.527   2.221   0.975  0.00  0.00    +0.004 A 
ATOM     15  C   UNL     1       8.312   2.416  -0.146  0.00  0.00    -0.042 A 
ATOM     16  C   UNL     1       7.725   2.502  -1.395  0.00  0.00    +0.004 A 
ATOM     17  C   UNL     1       6.353   2.391  -1.523  0.00  0.00    +0.004 A 
BRANCH  15  18
ATOM     18  C   UNL     1       9.807   2.536  -0.006  0.00  0.00    -0.013 C 
ATOM     19  C   UNL     1      10.262   3.897  -0.536  0.00  0.00    +0.015 C 
ATOM     20  C   UNL     1      10.194   2.407   1.468  0.00  0.00    +0.015 C 
ATOM     21  C   UNL     1      10.485   1.424  -0.810  0.00  0.00    +0.015 C 
ENDBRANCH  15  18
ENDBRANCH   8  12
BRANCH   6  22
ATOM     22  C   UNL     1      -1.176  -0.877   0.008  0.00  0.00    +0.356 C 
ATOM     23  O   UNL     1      -2.292  -0.394   0.021  0.00  0.00    -0.243 OA
BRANCH  22  24
ATOM     24  O   UNL     1      -1.022  -2.217  -0.000  0.00  0.00    -0.460 OA
BRANCH  24  25
ATOM     25  C   UNL     1      -2.233  -3.020   0.007  0.00  0.00    +0.229 C 
ATOM     26  C   UNL     1      -1.861  -4.504  -0.005  0.00  0.00    +0.048 C 
ENDBRANCH  24  25
ENDBRANCH  22  24
ENDBRANCH   6  22
BRANCH   1  27
ATOM     27  C   UNL     1      -1.237   2.248   0.020  0.00  0.00    +0.038 C 
BRANCH  27  29
ATOM     28  C   UNL     1      -2.882   3.437   1.478  0.00  0.00    +0.004 C 
ATOM     29  C   UNL     1      -1.643   2.539   1.466  0.00  0.00    +0.001 C 
ENDBRANCH  27  29
ENDBRANCH   1  27
TORSDOF 7
