REMARK  Name = ZINC01459516
REMARK  10 active torsions:
REMARK  status: ('A' for Active; 'I' for Inactive)
REMARK    1  A    between atoms: C_1  and  C_2
REMARK    2  A    between atoms: C_3  and  C_27
REMARK    3  A    between atoms: C_4  and  C_16
REMARK    4  A    between atoms: C_9  and  C_13
REMARK    5  A    between atoms: C_9  and  C_14
REMARK    6  A    between atoms: C_18  and  O_25
REMARK    7  A    between atoms: C_19  and  O_24
REMARK    8  A    between atoms: C_20  and  O_22
REMARK    9  A    between atoms: O_22  and  C_23
REMARK   10  A    between atoms: O_25  and  C_26
REMARK                            x       y       z     vdW  Elec       q    Type
REMARK                         _______ _______ _______ _____ _____    ______ ____
ROOT
ATOM      1  C   UNL     1      -0.263   1.342  -0.482  0.00  0.00    +0.066 C 
ATOM      2  C   UNL     1      -0.163  -0.136  -0.205  0.00  0.00    +0.048 C 
ATOM      3  C   UNL     1      -1.288  -0.808   0.162  0.00  0.00    +0.047 C 
ATOM      4  C   UNL     1      -1.158  -2.296   0.434  0.00  0.00    +0.091 C 
ATOM      5  C   UNL     1       0.233  -2.877   0.262  0.00  0.00    +0.028 C 
ATOM      6  C   UNL     1       0.451  -4.186   0.477  0.00  0.00    +0.162 C 
ATOM      7  C   UNL     1       1.822  -4.787   0.316  0.00  0.00    +0.086 C 
ATOM      8  C   UNL     1       2.600  -3.994  -0.738  0.00  0.00    -0.023 C 
ATOM      9  C   UNL     1       2.665  -2.526  -0.307  0.00  0.00    +0.062 C 
ATOM     10  C   UNL     1       1.261  -2.000  -0.124  0.00  0.00    +0.049 C 
ATOM     11  N   UNL     1       1.017  -0.728  -0.334  0.00  0.00    -0.256 NA
ATOM     12  C   UNL     1       1.889  -4.100  -2.088  0.00  0.00    +0.011 C 
ATOM     13  C   UNL     1       4.019  -4.555  -0.858  0.00  0.00    +0.011 C 
ATOM     14  O   UNL     1      -0.578  -4.975   0.843  0.00  0.00    -0.292 OA
ENDROOT
BRANCH   3  15
ATOM     15  C   UNL     1      -2.530  -0.147   0.286  0.00  0.00    +0.245 C 
ATOM     16  O   UNL     1      -3.315  -0.146  -0.645  0.00  0.00    -0.270 OA
ATOM     17  N   UNL     1      -2.845   0.484   1.434  0.00  0.00    -0.298 N 
ATOM     18  C   UNL     1      -1.865   0.591   2.523  0.00  0.00    +0.108 C 
ATOM     19  C   UNL     1      -1.724   2.065   2.917  0.00  0.00    +0.019 C 
ATOM     20  C   UNL     1      -3.103   2.634   3.255  0.00  0.00    +0.003 C 
ATOM     21  C   UNL     1      -4.008   2.547   2.023  0.00  0.00    +0.019 C 
ATOM     22  C   UNL     1      -4.174   1.084   1.618  0.00  0.00    +0.108 C 
ENDBRANCH   3  15
BRANCH   4  23
ATOM     23  C   UNL     1      -2.088  -3.029  -0.498  0.00  0.00    -0.028 A 
ATOM     24  C   UNL     1      -1.867  -2.994  -1.862  0.00  0.00    +0.054 A 
ATOM     25  C   UNL     1      -2.721  -3.667  -2.722  0.00  0.00    +0.165 A 
ATOM     26  C   UNL     1      -3.801  -4.377  -2.212  0.00  0.00    +0.201 A 
ATOM     27  C   UNL     1      -4.020  -4.410  -0.840  0.00  0.00    +0.165 A 
ATOM     28  C   UNL     1      -3.158  -3.739   0.015  0.00  0.00    +0.054 A 
BRANCH  27  29
ATOM     29  O   UNL     1      -5.075  -5.104  -0.335  0.00  0.00    -0.491 OA
ATOM     30  C   UNL     1      -5.175  -5.190   1.088  0.00  0.00    +0.277 C 
ENDBRANCH  27  29
BRANCH  26  31
ATOM     31  O   UNL     1      -4.642  -5.038  -3.053  0.00  0.00    -0.501 OA
ATOM     32  H   UNL     1      -4.380  -5.952  -3.233  0.00  0.00    +0.292 HD
ENDBRANCH  26  31
BRANCH  25  33
ATOM     33  O   UNL     1      -2.503  -3.631  -4.064  0.00  0.00    -0.491 OA
ATOM     34  C   UNL     1      -1.374  -2.882  -4.518  0.00  0.00    +0.277 C 
ENDBRANCH  25  33
ENDBRANCH   4  23
TORSDOF 5
