REMARK  Name = ZINC39856286
REMARK  6 active torsions:
REMARK  status: ('A' for Active; 'I' for Inactive)
REMARK    1  A    between atoms: C_1  and  C_2
REMARK    2  A    between atoms: C_6  and  C_7
REMARK    3  A    between atoms: C_18  and  C_20
REMARK    4  A    between atoms: C_23  and  C_31
REMARK    5  A    between atoms: C_23  and  C_32
REMARK    6  A    between atoms: N_26  and  N_27
REMARK                            x       y       z     vdW  Elec       q    Type
REMARK                         _______ _______ _______ _____ _____    ______ ____
ROOT
ATOM      1  C   UNL     1      -1.050   0.453  -0.167  0.00  0.00    +0.048 C 
ATOM      2  C   UNL     1       0.072  -0.538  -0.001  0.00  0.00    +0.009 A 
ATOM      3  C   UNL     1       0.738  -1.232  -1.019  0.00  0.00    +0.042 A 
ATOM      4  C   UNL     1       1.687  -2.029  -0.424  0.00  0.00    +0.116 A 
ATOM      5  O   UNL     1       1.617  -1.839   0.892  0.00  0.00    -0.454 OA
ATOM      6  C   UNL     1       0.649  -0.937   1.173  0.00  0.00    +0.193 A 
ATOM      7  C   UNL     1       2.605  -2.935  -1.204  0.00  0.00    +0.081 C 
ATOM      8  C   UNL     1       1.997  -3.210  -2.583  0.00  0.00    -0.023 C 
ATOM      9  C   UNL     1       1.645  -1.897  -3.290  0.00  0.00    +0.064 C 
ATOM     10  C   UNL     1       0.554  -1.201  -2.488  0.00  0.00    +0.071 C 
ATOM     11  N   UNL     1      -0.462  -0.624  -3.050  0.00  0.00    -0.183 NA
ATOM     12  C   UNL     1       3.005  -3.985  -3.433  0.00  0.00    +0.011 C 
ATOM     13  C   UNL     1       0.728  -4.048  -2.416  0.00  0.00    +0.011 C 
ENDROOT
BRANCH   6  14
ATOM     14  C   UNL     1       0.278  -0.467   2.512  0.00  0.00    +0.287 C 
ATOM     15  O   UNL     1       0.141   0.724   2.723  0.00  0.00    -0.266 OA
ATOM     16  N   UNL     1       0.090  -1.354   3.509  0.00  0.00    -0.262 N 
ATOM     17  C   UNL     1       0.126  -2.732   3.253  0.00  0.00    +0.040 A 
ATOM     18  C   UNL     1       0.074  -3.177   1.937  0.00  0.00    +0.026 A 
ATOM     19  C   UNL     1       0.112  -4.529   1.663  0.00  0.00    +0.040 A 
ATOM     20  C   UNL     1       0.203  -5.442   2.701  0.00  0.00    +0.124 A 
ATOM     21  C   UNL     1       0.254  -5.000   4.011  0.00  0.00    +0.043 A 
ATOM     22  C   UNL     1       0.213  -3.644   4.293  0.00  0.00    -0.023 A 
ATOM     23  C   UNL     1       0.260  -3.198   5.730  0.00  0.00    +0.039 C 
ATOM     24  C   UNL     1       0.710  -1.740   5.824  0.00  0.00    +0.027 C 
ATOM     25  C   UNL     1      -0.151  -0.893   4.883  0.00  0.00    +0.079 C 
ATOM     26  C   UNL     1       0.241   0.581   5.011  0.00  0.00    +0.028 C 
ATOM     27  F   UNL     1       0.242  -6.766   2.434  0.00  0.00    -0.205 F 
ENDBRANCH   6  14
BRANCH  11  28
ATOM     28  N   UNL     1      -0.585  -0.626  -4.445  0.00  0.00    -0.191 N 
ATOM     29  C   UNL     1      -1.641  -0.026  -5.029  0.00  0.00    +0.317 C 
ATOM     30  O   UNL     1      -1.748  -0.028  -6.241  0.00  0.00    -0.251 OA
ATOM     31  N   UNL     1      -2.579   0.575  -4.271  0.00  0.00    -0.312 N 
ATOM     32  H   UNL     1       0.090  -1.059  -4.991  0.00  0.00    +0.179 HD
ATOM     33  H   UNL     1      -2.494   0.576  -3.305  0.00  0.00    +0.147 HD
ATOM     34  H   UNL     1      -3.340   1.006  -4.691  0.00  0.00    +0.147 HD
ENDBRANCH  11  28
TORSDOF 2
