REMARK  Name = ZINC49799349
REMARK  11 active torsions:
REMARK  status: ('A' for Active; 'I' for Inactive)
REMARK    1  A    between atoms: C_1  and  C_2
REMARK    2  A    between atoms: C_2  and  C_3
REMARK    3  A    between atoms: C_6  and  C_9
REMARK    4  A    between atoms: C_9  and  C_11
REMARK    5  A    between atoms: C_9  and  N_28
REMARK    6  A    between atoms: C_11  and  N_12
REMARK    7  A    between atoms: N_15  and  N_16
REMARK    8  A    between atoms: C_17  and  C_19
REMARK    9  A    between atoms: C_23  and  N_25
REMARK   10  A    between atoms: N_28  and  C_29
REMARK   11  A    between atoms: N_28  and  C_30
REMARK                            x       y       z     vdW  Elec       q    Type
REMARK                         _______ _______ _______ _____ _____    ______ ____
ROOT
ATOM      1  N   UNL     1       1.477  -3.957  -4.697  0.00  0.00    -0.299 N 
ATOM      2  C   UNL     1       1.339  -5.295  -4.607  0.00  0.00    +0.316 C 
ATOM      3  O   UNL     1       2.323  -6.009  -4.615  0.00  0.00    -0.251 OA
ATOM      4  N   UNL     1       0.111  -5.840  -4.508  0.00  0.00    -0.218 N 
ATOM      5  H   UNL     1       0.693  -3.387  -4.690  0.00  0.00    +0.150 HD
ATOM      6  H   UNL     1       0.011  -6.803  -4.443  0.00  0.00    +0.174 HD
ENDROOT
BRANCH   4   7
ATOM      7  N   UNL     1      -1.023  -5.017  -4.498  0.00  0.00    -0.229 N 
ATOM      8  C   UNL     1      -2.251  -5.562  -4.399  0.00  0.00    +0.260 C 
ATOM      9  O   UNL     1      -2.376  -6.769  -4.318  0.00  0.00    -0.269 OA
ATOM     10  H   UNL     1      -0.923  -4.054  -4.563  0.00  0.00    +0.173 HD
BRANCH   8  11
ATOM     11  C   UNL     1      -3.447  -4.693  -4.389  0.00  0.00    +0.040 A 
ATOM     12  C   UNL     1      -3.308  -3.308  -4.488  0.00  0.00    +0.013 A 
ATOM     13  C   UNL     1      -4.428  -2.503  -4.479  0.00  0.00    +0.003 A 
ATOM     14  C   UNL     1      -5.688  -3.066  -4.372  0.00  0.00    +0.033 A 
ATOM     15  C   UNL     1      -5.832  -4.438  -4.273  0.00  0.00    +0.127 A 
ATOM     16  C   UNL     1      -4.721  -5.255  -4.287  0.00  0.00    +0.045 A 
BRANCH  15  17
ATOM     17  N   UNL     1      -7.184  -5.032  -4.158  0.00  0.00    +0.056 N 
ATOM     18  O   UNL     1      -8.159  -4.317  -4.151  0.00  0.00    -0.126 OA
ATOM     19  O   UNL     1      -7.312  -6.231  -4.072  0.00  0.00    -0.126 OA
ENDBRANCH  15  17
ENDBRANCH   8  11
ENDBRANCH   4   7
BRANCH   1  20
ATOM     20  C   UNL     1       2.813  -3.364  -4.805  0.00  0.00    +0.095 C 
BRANCH  20  21
ATOM     21  C   UNL     1       2.699  -1.839  -4.759  0.00  0.00    -0.021 C 
BRANCH  21  25
ATOM     22  C   UNL     1       1.236  -0.636  -0.930  0.00  0.00    -0.048 A 
ATOM     23  C   UNL     1       0.375  -0.702  -2.009  0.00  0.00    +0.004 A 
ATOM     24  C   UNL     1       0.848  -1.091  -3.248  0.00  0.00    +0.002 A 
ATOM     25  C   UNL     1       2.183  -1.414  -3.408  0.00  0.00    -0.059 A 
ATOM     26  C   UNL     1       3.044  -1.348  -2.329  0.00  0.00    +0.002 A 
ATOM     27  C   UNL     1       2.572  -0.955  -1.091  0.00  0.00    +0.004 A 
BRANCH  22  29
ATOM     28  C   UNL     1       0.835   1.307   0.557  0.00  0.00    +0.009 C 
ATOM     29  C   UNL     1       0.720  -0.212   0.421  0.00  0.00    +0.032 C 
ENDBRANCH  22  29
ENDBRANCH  21  25
BRANCH  21  30
ATOM     30  N   UNL     1       4.021  -1.242  -4.988  0.00  0.00    +0.382 N 
ATOM     31  C   UNL     1       4.516  -1.642  -6.312  0.00  0.00    -0.096 C 
ATOM     32  C   UNL     1       3.915   0.222  -4.927  0.00  0.00    -0.096 C 
ATOM     33  H   UNL     1       4.662  -1.562  -4.278  0.00  0.00    -0.082 HD
ENDBRANCH  21  30
ENDBRANCH  20  21
ENDBRANCH   1  20
TORSDOF 8
