REMARK  Name = ZINC36573543
REMARK  12 active torsions:
REMARK  status: ('A' for Active; 'I' for Inactive)
REMARK    1  A    between atoms: C_1  and  C_2
REMARK    2  A    between atoms: C_2  and  C_3
REMARK    3  A    between atoms: C_3  and  N_4
REMARK    4  A    between atoms: N_4  and  C_5
REMARK    5  A    between atoms: C_5  and  C_7
REMARK    6  A    between atoms: C_5  and  C_15
REMARK    7  A    between atoms: C_10  and  C_14
REMARK    8  A    between atoms: C_12  and  C_13
REMARK    9  A    between atoms: N_17  and  C_18
REMARK   10  A    between atoms: C_24  and  C_26
REMARK   11  A    between atoms: C_27  and  C_28
REMARK   12  A    between atoms: C_27  and  C_29
REMARK                            x       y       z     vdW  Elec       q    Type
REMARK                         _______ _______ _______ _____ _____    ______ ____
ROOT
ATOM      1  C   UNL     1      -2.826  -3.369   0.373  0.00  0.00    +0.193 C 
ENDROOT
BRANCH   1   2
ATOM      2  C   UNL     1      -4.133  -2.634   0.220  0.00  0.00    -0.015 A 
ATOM      3  C   UNL     1      -4.726  -2.041   1.319  0.00  0.00    +0.006 A 
ATOM      4  C   UNL     1      -5.924  -1.367   1.178  0.00  0.00    +0.004 A 
ATOM      5  C   UNL     1      -6.530  -1.286  -0.062  0.00  0.00    -0.050 A 
ATOM      6  C   UNL     1      -5.936  -1.877  -1.161  0.00  0.00    +0.007 A 
ATOM      7  C   UNL     1      -4.735  -2.548  -1.021  0.00  0.00    -0.045 A 
ATOM      8  C   UNL     1      -4.086  -3.188  -2.221  0.00  0.00    +0.044 C 
ATOM      9  C   UNL     1      -7.837  -0.552  -0.215  0.00  0.00    +0.044 C 
ENDBRANCH   1   2
BRANCH   1  10
ATOM     10  C   UNL     1      -2.610  -3.713   1.824  0.00  0.00    +0.238 C 
ATOM     11  O   UNL     1      -1.746  -3.147   2.460  0.00  0.00    -0.273 OA
ATOM     12  N   UNL     1      -3.378  -4.649   2.416  0.00  0.00    -0.311 N 
ATOM     13  H   UNL     1      -4.019  -5.153   1.891  0.00  0.00    +0.149 HD
BRANCH  12  14
ATOM     14  C   UNL     1      -3.244  -4.907   3.852  0.00  0.00    +0.073 C 
ATOM     15  C   UNL     1      -2.105  -5.901   4.088  0.00  0.00    +0.022 C 
ATOM     16  C   UNL     1      -1.965  -6.170   5.587  0.00  0.00    +0.002 C 
ATOM     17  C   UNL     1      -3.273  -6.755   6.125  0.00  0.00    +0.000 C 
ATOM     18  C   UNL     1      -4.412  -5.760   5.889  0.00  0.00    +0.002 C 
ATOM     19  C   UNL     1      -4.551  -5.491   4.389  0.00  0.00    +0.022 C 
ENDBRANCH  12  14
ENDBRANCH   1  10
BRANCH   1  20
ATOM     20  N   UNL     1      -1.729  -2.517  -0.095  0.00  0.00    -0.282 N 
ATOM     21  C   UNL     1      -0.476  -3.008  -0.161  0.00  0.00    +0.240 C 
ATOM     22  O   UNL     1      -0.255  -4.158   0.169  0.00  0.00    -0.271 OA
BRANCH  21  23
ATOM     23  C   UNL     1       0.625  -2.153  -0.630  0.00  0.00    +0.066 C 
ATOM     24  C   UNL     1       1.855  -2.650  -0.734  0.00  0.00    -0.071 C 
ATOM     25  C   UNL     1       2.161  -4.023  -0.193  0.00  0.00    +0.039 C 
ATOM     26  C   UNL     1       2.942  -1.839  -1.391  0.00  0.00    +0.039 C 
ENDBRANCH  21  23
BRANCH  20  27
ATOM     27  C   UNL     1      -1.995  -1.132  -0.491  0.00  0.00    +0.109 C 
BRANCH  27  29
ATOM     28  C   UNL     1      -1.889   1.252   0.248  0.00  0.00    +0.005 C 
ATOM     29  C   UNL     1      -1.732  -0.203   0.695  0.00  0.00    +0.016 C 
ENDBRANCH  27  29
ENDBRANCH  20  27
ENDBRANCH   1  20
TORSDOF 7
