REMARK  Name = ZINC30000174
REMARK  9 active torsions:
REMARK  status: ('A' for Active; 'I' for Inactive)
REMARK    1  A    between atoms: C_1  and  C_2
REMARK    2  A    between atoms: C_5  and  C_8
REMARK    3  A    between atoms: C_8  and  C_34
REMARK    4  A    between atoms: N_11  and  C_15
REMARK    5  A    between atoms: C_15  and  C_16
REMARK    6  A    between atoms: N_18  and  C_19
REMARK    7  A    between atoms: C_19  and  C_21
REMARK    8  A    between atoms: C_19  and  C_28
REMARK    9  A    between atoms: N_32  and  C_33
REMARK                            x       y       z     vdW  Elec       q    Type
REMARK                         _______ _______ _______ _____ _____    ______ ____
ROOT
ATOM      1  C   UNL     1       0.140   5.092   2.725  0.00  0.00    +0.232 C 
ATOM      2  O   UNL     1      -0.188   5.536   1.645  0.00  0.00    -0.274 OA
ATOM      3  N   UNL     1      -0.179   5.758   3.853  0.00  0.00    -0.300 N 
ATOM      4  H   UNL     1       0.118   5.355   4.832  0.00  0.00    +0.150 HD
ENDROOT
BRANCH   1   5
ATOM      5  C   UNL     1       0.905   3.796   2.807  0.00  0.00    +0.213 C 
BRANCH   5   9
ATOM      6  C   UNL     1       0.911   2.172  -0.534  0.00  0.00    +0.135 C 
ATOM      7  C   UNL     1       0.280   2.441   0.818  0.00  0.00    +0.251 C 
ATOM      8  O   UNL     1      -0.768   2.000   1.238  0.00  0.00    -0.272 OA
ATOM      9  N   UNL     1       1.126   3.274   1.456  0.00  0.00    -0.215 N 
ATOM     10  C   UNL     1       2.193   3.565   0.703  0.00  0.00    +0.310 C 
ATOM     11  O   UNL     1       3.095   4.296   1.063  0.00  0.00    -0.252 OA
ATOM     12  N   UNL     1       2.156   2.958  -0.497  0.00  0.00    -0.281 N 
ATOM     13  C   UNL     1       0.000   2.659  -1.663  0.00  0.00    +0.047 C 
ATOM     14  H   UNL     1       2.835   2.955  -1.363  0.00  0.00    +0.152 HD
BRANCH   6  19
ATOM     15  C   UNL     1       2.075  -3.454  -1.150  0.00  0.00    +0.044 C 
ATOM     16  C   UNL     1       1.772  -1.987  -0.989  0.00  0.00    -0.050 A 
ATOM     17  C   UNL     1       2.610  -1.042  -1.551  0.00  0.00    +0.004 A 
ATOM     18  C   UNL     1       2.332   0.304  -1.403  0.00  0.00    +0.006 A 
ATOM     19  C   UNL     1       1.214   0.705  -0.695  0.00  0.00    -0.015 A 
ATOM     20  C   UNL     1       0.379  -0.240  -0.129  0.00  0.00    +0.006 A 
ATOM     21  C   UNL     1       0.655  -1.586  -0.280  0.00  0.00    +0.004 A 
ENDBRANCH   6  19
ENDBRANCH   5   9
ENDBRANCH   1   5
BRANCH   3  22
ATOM     22  C   UNL     1      -0.922   7.017   3.774  0.00  0.00    +0.172 C 
BRANCH  22  23
ATOM     23  C   UNL     1      -0.596   7.869   4.973  0.00  0.00    +0.015 A 
ATOM     24  C   UNL     1      -0.219   7.274   6.162  0.00  0.00    +0.009 A 
ATOM     25  C   UNL     1       0.081   8.055   7.263  0.00  0.00    +0.001 A 
ATOM     26  C   UNL     1       0.004   9.433   7.175  0.00  0.00    +0.003 A 
ATOM     27  C   UNL     1      -0.372  10.030   5.988  0.00  0.00    +0.039 A 
ATOM     28  C   UNL     1      -0.669   9.249   4.883  0.00  0.00    +0.129 A 
ATOM     29  F   UNL     1      -1.032   9.832   3.720  0.00  0.00    -0.205 F 
ENDBRANCH  22  23
BRANCH  22  30
ATOM     30  C   UNL     1      -2.401   6.728   3.751  0.00  0.00    +0.134 A 
ATOM     31  N   UNL     1      -3.023   5.883   4.527  0.00  0.00    -0.238 NA
ATOM     32  C   UNL     1      -4.330   5.885   4.226  0.00  0.00    +0.130 A 
ATOM     33  C   UNL     1      -4.526   6.764   3.225  0.00  0.00    +0.106 A 
ATOM     34  N   UNL     1      -3.303   7.304   2.927  0.00  0.00    -0.336 N 
ATOM     35  C   UNL     1      -3.025   8.314   1.904  0.00  0.00    +0.150 C 
ENDBRANCH  22  30
ENDBRANCH   3  22
TORSDOF 6
