REMARK  Name = ZINC25764027
REMARK  3 active torsions:
REMARK  status: ('A' for Active; 'I' for Inactive)
REMARK    1  A    between atoms: C_4  and  C_7
REMARK    2  A    between atoms: C_8  and  C_18
REMARK    3  A    between atoms: N_20  and  N_21
REMARK                            x       y       z     vdW  Elec       q    Type
REMARK                         _______ _______ _______ _____ _____    ______ ____
ROOT
ATOM      1  C   UNL     1       0.788   5.977  -0.004  0.00  0.00    +0.125 A 
ATOM      2  C   UNL     1      -0.496   5.459   0.149  0.00  0.00    +0.160 A 
ATOM      3  N   UNL     1      -0.342   4.094   0.107  0.00  0.00    -0.183 N 
ATOM      4  N   UNL     1       0.908   3.836  -0.050  0.00  0.00    -0.058 NA
ATOM      5  N   UNL     1       1.601   4.915  -0.124  0.00  0.00    -0.128 NA
ATOM      6  C   UNL     1      -1.366   3.149   0.220  0.00  0.00    +0.241 A 
ATOM      7  C   UNL     1      -1.216   1.699   0.069  0.00  0.00    +0.206 A 
ATOM      8  N   UNL     1      -2.384   1.145   0.248  0.00  0.00    -0.032 NA
ATOM      9  O   UNL     1      -3.318   2.177   0.510  0.00  0.00    -0.239 OA
ATOM     10  N   UNL     1      -2.618   3.408   0.474  0.00  0.00    -0.027 NA
ATOM     11  N   UNL     1      -0.031   1.028  -0.210  0.00  0.00    -0.337 N 
ATOM     12  H   UNL     1      -0.029  -0.068  -0.304  0.00  0.00    +0.144 HD
ATOM     13  H   UNL     1       0.904   1.593  -0.339  0.00  0.00    +0.144 HD
ENDROOT
BRANCH   1  17
ATOM     14  C   UNL     1       1.903  10.078  -0.076  0.00  0.00    +0.000 A 
ATOM     15  C   UNL     1       2.687   9.163   0.605  0.00  0.00    +0.001 A 
ATOM     16  C   UNL     1       2.330   7.830   0.632  0.00  0.00    +0.010 A 
ATOM     17  C   UNL     1       1.177   7.407  -0.029  0.00  0.00    +0.004 A 
ATOM     18  C   UNL     1       0.395   8.333  -0.718  0.00  0.00    +0.010 A 
ATOM     19  C   UNL     1       0.759   9.664  -0.733  0.00  0.00    +0.001 A 
ENDBRANCH   1  17
BRANCH   2  20
ATOM     20  C   UNL     1      -1.745   6.210   0.319  0.00  0.00    +0.284 C 
ATOM     21  O   UNL     1      -2.042   6.658   1.411  0.00  0.00    -0.267 OA
ATOM     22  N   UNL     1      -2.564   6.403  -0.734  0.00  0.00    -0.202 N 
ATOM     23  H   UNL     1      -2.258   6.070  -1.736  0.00  0.00    +0.178 HD
BRANCH  22  24
ATOM     24  N   UNL     1      -3.805   7.027  -0.551  0.00  0.00    -0.189 NA
ATOM     25  C   UNL     1      -4.625   7.120  -1.530  0.00  0.00    +0.037 C 
ATOM     26  C   UNL     1      -4.331   6.450  -2.854  0.00  0.00    +0.052 C 
ATOM     27  C   UNL     1      -5.556   5.613  -3.254  0.00  0.00    +0.006 C 
ATOM     28  C   UNL     1      -6.798   6.504  -3.261  0.00  0.00    +0.001 C 
ATOM     29  C   UNL     1      -7.074   7.021  -1.848  0.00  0.00    +0.006 C 
ATOM     30  C   UNL     1      -5.910   7.907  -1.394  0.00  0.00    +0.052 C 
ENDBRANCH  22  24
ENDBRANCH   2  20
TORSDOF 3
