REMARK  Name = ZINC65411079
REMARK  8 active torsions:
REMARK  status: ('A' for Active; 'I' for Inactive)
REMARK    1  A    between atoms: C_1  and  C_2
REMARK    2  A    between atoms: C_4  and  C_8
REMARK    3  A    between atoms: C_5  and  C_7
REMARK    4  A    between atoms: C_8  and  C_9
REMARK    5  A    between atoms: C_8  and  N_10
REMARK    6  A    between atoms: N_13  and  C_14
REMARK    7  A    between atoms: C_22  and  C_27
REMARK    8  A    between atoms: C_24  and  C_26
REMARK                            x       y       z     vdW  Elec       q    Type
REMARK                         _______ _______ _______ _____ _____    ______ ____
ROOT
ATOM      1  N   UNL     1      -2.617  -2.884  -1.129  0.00  0.00    -0.292 N 
ATOM      2  C   UNL     1      -3.336  -3.867  -1.707  0.00  0.00    +0.304 C 
ATOM      3  O   UNL     1      -2.770  -4.796  -2.250  0.00  0.00    -0.252 OA
ATOM      4  N   UNL     1      -4.683  -3.819  -1.683  0.00  0.00    -0.268 N 
ATOM      5  H   UNL     1      -3.068  -2.143  -0.696  0.00  0.00    +0.151 HD
ATOM      6  H   UNL     1      -5.134  -3.113  -1.195  0.00  0.00    +0.156 HD
ENDROOT
BRANCH   4   7
ATOM      7  C   UNL     1      -5.431  -4.790  -2.365  0.00  0.00    +0.051 A 
ATOM      8  C   UNL     1      -4.980  -6.107  -2.434  0.00  0.00    +0.028 A 
ATOM      9  C   UNL     1      -5.750  -7.031  -3.116  0.00  0.00    +0.043 A 
ATOM     10  C   UNL     1      -6.941  -6.619  -3.706  0.00  0.00    +0.099 A 
ATOM     11  N   UNL     1      -7.337  -5.359  -3.619  0.00  0.00    -0.348 N 
ATOM     12  C   UNL     1      -6.630  -4.452  -2.972  0.00  0.00    +0.107 A 
ATOM     13  N   UNL     1      -7.723  -7.541  -4.395  0.00  0.00    -0.312 N 
ATOM     14  C   UNL     1      -8.922  -7.115  -5.135  0.00  0.00    +0.137 C 
ATOM     15  C   UNL     1      -8.845  -7.693  -6.553  0.00  0.00    +0.133 C 
ATOM     16  O   UNL     1      -8.614  -9.102  -6.475  0.00  0.00    -0.371 OA
ATOM     17  C   UNL     1      -7.375  -9.459  -5.857  0.00  0.00    +0.133 C 
ATOM     18  C   UNL     1      -7.374  -8.971  -4.409  0.00  0.00    +0.137 C 
ATOM     19  C   UNL     1      -7.210 -10.980  -5.886  0.00  0.00    +0.039 C 
ATOM     20  C   UNL     1     -10.163  -7.431  -7.284  0.00  0.00    +0.039 C 
ATOM     21  H   UNL     1      -8.171  -5.096  -4.040  0.00  0.00    +0.167 HD
ENDBRANCH   4   7
BRANCH   1  22
ATOM     22  C   UNL     1      -1.153  -2.936  -1.154  0.00  0.00    +0.105 C 
ATOM     23  C   UNL     1      -0.652  -3.790   0.013  0.00  0.00    +0.033 C 
BRANCH  22  27
ATOM     24  C   UNL     1      -0.648   2.009  -0.041  0.00  0.00    +0.086 C 
ATOM     25  C   UNL     1      -0.392   0.610  -0.540  0.00  0.00    +0.103 A 
ATOM     26  C   UNL     1      -1.238  -0.430  -0.434  0.00  0.00    +0.050 A 
ATOM     27  C   UNL     1      -0.598  -1.541  -1.030  0.00  0.00    +0.013 A 
ATOM     28  C   UNL     1       0.601  -1.113  -1.465  0.00  0.00    +0.107 A 
ATOM     29  O   UNL     1       0.718   0.192  -1.171  0.00  0.00    -0.465 OA
ATOM     30  C   UNL     1       1.634  -1.954  -2.169  0.00  0.00    +0.086 C 
ENDBRANCH  22  27
ENDBRANCH   1  22
TORSDOF 3
