REMARK  Name = ZINC16673600
REMARK  5 active torsions:
REMARK  status: ('A' for Active; 'I' for Inactive)
REMARK    1  A    between atoms: C_3  and  C_7
REMARK    2  A    between atoms: C_10  and  S_12
REMARK    3  A    between atoms: S_12  and  C_13
REMARK    4  A    between atoms: C_13  and  C_14
REMARK    5  A    between atoms: N_20  and  C_21
REMARK                            x       y       z     vdW  Elec       q    Type
REMARK                         _______ _______ _______ _____ _____    ______ ____
ROOT
ATOM      1  C   UNL     1       8.633   0.698  -0.083  0.00  0.00    +0.146 A 
ATOM      2  N   UNL     1       9.269   0.950  -1.214  0.00  0.00    -0.199 NA
ATOM      3  C   UNL     1      10.588   1.124  -1.213  0.00  0.00    +0.217 A 
ATOM      4  N   UNL     1      11.268   1.034  -0.074  0.00  0.00    -0.181 NA
ATOM      5  C   UNL     1      10.625   0.775   1.060  0.00  0.00    +0.224 A 
ATOM      6  N   UNL     1       9.305   0.608   1.051  0.00  0.00    -0.198 NA
ATOM      7  N   UNL     1      11.327   0.681   2.246  0.00  0.00    -0.284 N 
ATOM      8  N   UNL     1      11.251   1.392  -2.393  0.00  0.00    -0.327 N 
ATOM      9  H   UNL     1      10.850   0.573   3.084  0.00  0.00    +0.155 HD
ATOM     10  H   UNL     1      12.213   1.515  -2.392  0.00  0.00    +0.145 HD
ATOM     11  H   UNL     1      10.755   1.458  -3.224  0.00  0.00    +0.145 HD
ENDROOT
BRANCH   7  12
ATOM     12  C   UNL     1      12.725   0.742   2.239  0.00  0.00    +0.034 A 
ATOM     13  C   UNL     1      13.438   0.219   1.168  0.00  0.00    +0.026 A 
ATOM     14  C   UNL     1      14.818   0.286   1.161  0.00  0.00    +0.040 A 
ATOM     15  C   UNL     1      15.490   0.863   2.225  0.00  0.00    +0.124 A 
ATOM     16  C   UNL     1      14.781   1.380   3.296  0.00  0.00    +0.040 A 
ATOM     17  C   UNL     1      13.401   1.321   3.305  0.00  0.00    +0.026 A 
ATOM     18  F   UNL     1      16.840   0.922   2.218  0.00  0.00    -0.205 F 
ENDBRANCH   7  12
BRANCH   1  19
ATOM     19  C   UNL     1       7.138   0.508  -0.088  0.00  0.00    +0.155 C 
BRANCH  19  20
ATOM     20  S   UNL     1       6.325   2.104   0.170  0.00  0.00    -0.058 S 
BRANCH  20  24
ATOM     21  C   UNL     1       2.478   1.601   0.156  0.00  0.00    +0.265 A 
ATOM     22  N   UNL     1       2.911   0.377  -0.039  0.00  0.00    -0.105 NA
ATOM     23  N   UNL     1       4.198   0.378  -0.060  0.00  0.00    -0.101 NA
ATOM     24  C   UNL     1       4.638   1.601   0.120  0.00  0.00    +0.278 A 
ATOM     25  O   UNL     1       3.562   2.402   0.255  0.00  0.00    -0.410 OA
BRANCH  21  28
ATOM     26  C   UNL     1      -0.777   3.253   0.461  0.00  0.00    +0.020 A 
ATOM     27  C   UNL     1       0.625   3.298   0.445  0.00  0.00    +0.032 A 
ATOM     28  C   UNL     1       1.071   2.023   0.244  0.00  0.00    +0.104 A 
ATOM     29  N   UNL     1      -0.027   1.206   0.137  0.00  0.00    -0.357 N 
ATOM     30  H   UNL     1      -0.008   0.247  -0.010  0.00  0.00    +0.165 HD
ATOM     31  C   UNL     1      -1.150   1.969   0.266  0.00  0.00    +0.083 A 
ENDBRANCH  21  28
ENDBRANCH  20  24
ENDBRANCH  19  20
ENDBRANCH   1  19
TORSDOF 5
