REMARK  Name = ZINC39915888
REMARK  15 active torsions:
REMARK  status: ('A' for Active; 'I' for Inactive)
REMARK    1  A    between atoms: C_1  and  C_2
REMARK    2  A    between atoms: C_2  and  C_3
REMARK    3  A    between atoms: C_3  and  C_4
REMARK    4  A    between atoms: C_4  and  C_5
REMARK    5  A    between atoms: C_5  and  O_6
REMARK    6  A    between atoms: O_6  and  C_7
REMARK    7  A    between atoms: C_12  and  C_13
REMARK    8  A    between atoms: C_13  and  N_14
REMARK    9  A    between atoms: C_22  and  S_23
REMARK   10  A    between atoms: S_23  and  C_24
REMARK   11  A    between atoms: C_26  and  O_39
REMARK   12  A    between atoms: C_28  and  O_38
REMARK   13  A    between atoms: C_30  and  O_37
REMARK   14  A    between atoms: C_32  and  C_35
REMARK   15  A    between atoms: C_35  and  O_36
REMARK                            x       y       z     vdW  Elec       q    Type
REMARK                         _______ _______ _______ _____ _____    ______ ____
ROOT
ATOM      1  N   UNL     1       0.094  -6.957  -2.832  0.00  0.00    -0.314 N 
ATOM      2  C   UNL     1      -0.933  -6.133  -2.404  0.00  0.00    +0.070 A 
ATOM      3  C   UNL     1      -0.982  -4.966  -1.655  0.00  0.00    +0.028 A 
ATOM      4  C   UNL     1      -2.197  -4.368  -1.393  0.00  0.00    +0.002 A 
ATOM      5  C   UNL     1      -3.373  -4.926  -1.873  0.00  0.00    +0.002 A 
ATOM      6  C   UNL     1      -3.344  -6.084  -2.617  0.00  0.00    +0.030 A 
ATOM      7  C   UNL     1      -2.121  -6.702  -2.893  0.00  0.00    +0.090 A 
ATOM      8  N   UNL     1      -1.775  -7.821  -3.580  0.00  0.00    -0.222 NA
ATOM      9  C   UNL     1      -0.473  -7.971  -3.551  0.00  0.00    +0.173 A 
ENDROOT
BRANCH   1  10
ATOM     10  C   UNL     1       1.523  -6.774  -2.567  0.00  0.00    +0.163 C 
BRANCH  10  16
ATOM     11  C   UNL     1       2.078  -4.553  -3.590  0.00  0.00    +0.125 A 
ATOM     12  C   UNL     1       2.646  -3.785  -4.596  0.00  0.00    +0.046 A 
ATOM     13  C   UNL     1       3.259  -4.400  -5.670  0.00  0.00    +0.004 A 
ATOM     14  C   UNL     1       3.308  -5.780  -5.742  0.00  0.00    +0.001 A 
ATOM     15  C   UNL     1       2.743  -6.548  -4.741  0.00  0.00    +0.009 A 
ATOM     16  C   UNL     1       2.133  -5.937  -3.662  0.00  0.00    +0.014 A 
BRANCH  11  17
ATOM     17  O   UNL     1       1.474  -3.950  -2.532  0.00  0.00    -0.492 OA
BRANCH  17  18
ATOM     18  C   UNL     1       1.455  -2.521  -2.524  0.00  0.00    +0.229 C 
BRANCH  18  19
ATOM     19  C   UNL     1       0.739  -2.027  -1.265  0.00  0.00    +0.041 C 
BRANCH  19  20
ATOM     20  C   UNL     1       0.718  -0.497  -1.257  0.00  0.00    +0.003 C 
BRANCH  20  22
ATOM     21  C   UNL     1      -0.019   1.526   0.010  0.00  0.00    +0.004 C 
ATOM     22  C   UNL     1       0.002  -0.004   0.002  0.00  0.00    -0.003 C 
ENDBRANCH  20  22
ENDBRANCH  19  20
ENDBRANCH  18  19
ENDBRANCH  17  18
ENDBRANCH  11  17
ENDBRANCH  10  16
ENDBRANCH   1  10
BRANCH   9  23
ATOM     23  S   UNL     1       0.412  -9.285  -4.321  0.00  0.00    -0.054 S 
BRANCH  23  24
ATOM     24  C   UNL     1      -0.881 -10.286  -5.106  0.00  0.00    +0.214 C 
ATOM     25  C   UNL     1      -0.278 -11.601  -5.604  0.00  0.00    +0.185 C 
ATOM     26  C   UNL     1      -1.362 -12.414  -6.319  0.00  0.00    +0.177 C 
ATOM     27  C   UNL     1      -1.947 -11.573  -7.458  0.00  0.00    +0.176 C 
ATOM     28  C   UNL     1      -2.486 -10.259  -6.888  0.00  0.00    +0.176 C 
ATOM     29  O   UNL     1      -1.435  -9.568  -6.210  0.00  0.00    -0.355 OA
BRANCH  27  30
ATOM     30  O   UNL     1      -0.926 -11.295  -8.419  0.00  0.00    -0.386 OA
ATOM     31  H   UNL     1      -0.536 -12.085  -8.818  0.00  0.00    +0.210 HD
ENDBRANCH  27  30
BRANCH  26  32
ATOM     32  O   UNL     1      -0.791 -13.611  -6.850  0.00  0.00    -0.386 OA
ATOM     33  H   UNL     1      -0.396 -14.188  -6.182  0.00  0.00    +0.210 HD
ENDBRANCH  26  32
BRANCH  25  34
ATOM     34  O   UNL     1       0.789 -11.322  -6.514  0.00  0.00    -0.386 OA
ATOM     35  H   UNL     1       1.510 -10.806  -6.128  0.00  0.00    +0.210 HD
ENDBRANCH  25  34
BRANCH  28  36
ATOM     36  C   UNL     1      -3.018  -9.388  -8.028  0.00  0.00    +0.190 C 
BRANCH  36  37
ATOM     37  O   UNL     1      -3.626  -8.214  -7.486  0.00  0.00    -0.392 OA
ATOM     38  H   UNL     1      -3.986  -7.614  -8.154  0.00  0.00    +0.210 HD
ENDBRANCH  36  37
ENDBRANCH  28  36
ENDBRANCH  23  24
ENDBRANCH   9  23
TORSDOF 14
