REMARK  Name = ZINC53112232
REMARK  7 active torsions:
REMARK  status: ('A' for Active; 'I' for Inactive)
REMARK    1  A    between atoms: C_1  and  C_2
REMARK    2  A    between atoms: C_7  and  C_9
REMARK    3  A    between atoms: C_7  and  N_11
REMARK    4  A    between atoms: C_9  and  O_10
REMARK    5  A    between atoms: C_12  and  C_14
REMARK    6  A    between atoms: C_14  and  N_15
REMARK    7  A    between atoms: C_17  and  N_20
REMARK                            x       y       z     vdW  Elec       q    Type
REMARK                         _______ _______ _______ _____ _____    ______ ____
ROOT
ATOM      1  N   UNL     1      -0.027   1.381   2.573  0.00  0.00    -0.306 N 
ATOM      2  C   UNL     1       1.010   2.241   2.545  0.00  0.00    +0.235 C 
ATOM      3  O   UNL     1       2.148   1.821   2.543  0.00  0.00    -0.274 OA
ATOM      4  H   UNL     1      -0.934   1.717   2.645  0.00  0.00    +0.149 HD
ENDROOT
BRANCH   1  10
ATOM      5  C   UNL     1      -0.241   1.544   0.088  0.00  0.00    +0.007 C 
ATOM      6  C   UNL     1       0.013   0.037   0.008  0.00  0.00    -0.012 C 
ATOM      7  C   UNL     1      -1.320  -0.710   0.087  0.00  0.00    +0.003 C 
ATOM      8  C   UNL     1      -2.012  -0.379   1.411  0.00  0.00    +0.002 C 
ATOM      9  C   UNL     1      -1.117  -0.808   2.576  0.00  0.00    +0.028 C 
ATOM     10  C   UNL     1       0.216  -0.061   2.496  0.00  0.00    +0.058 C 
ATOM     11  C   UNL     1       0.908  -0.392   1.172  0.00  0.00    +0.031 C 
BRANCH  10  12
ATOM     12  C   UNL     1       1.111  -0.491   3.660  0.00  0.00    +0.181 C 
BRANCH  12  13
ATOM     13  O   UNL     1       0.523  -0.071   4.893  0.00  0.00    -0.393 OA
ATOM     14  H   UNL     1       1.038  -0.310   5.676  0.00  0.00    +0.209 HD
ENDBRANCH  12  13
ENDBRANCH  10  12
ENDBRANCH   1  10
BRANCH   2  15
ATOM     15  C   UNL     1       0.757   3.727   2.516  0.00  0.00    +0.239 C 
BRANCH  15  16
ATOM     16  N   UNL     1       2.036   4.440   2.488  0.00  0.00    -0.261 N 
ATOM     17  C   UNL     1       2.417   5.365   1.567  0.00  0.00    +0.131 A 
ATOM     18  C   UNL     1       3.665   5.782   1.898  0.00  0.00    +0.063 A 
ATOM     19  C   UNL     1       4.057   5.092   3.054  0.00  0.00    +0.157 A 
ATOM     20  N   UNL     1       3.081   4.295   3.409  0.00  0.00    -0.177 NA
BRANCH  18  21
ATOM     21  N   UNL     1       4.431   6.738   1.204  0.00  0.00    -0.356 N 
ATOM     22  H   UNL     1       4.072   7.164   0.410  0.00  0.00    +0.142 HD
ATOM     23  H   UNL     1       5.318   6.971   1.520  0.00  0.00    +0.142 HD
ENDBRANCH  18  21
ENDBRANCH  15  16
ENDBRANCH   2  15
TORSDOF 6
