REMARK  Name = ZINC63934775
REMARK  7 active torsions:
REMARK  status: ('A' for Active; 'I' for Inactive)
REMARK    1  A    between atoms: C_1  and  C_2
REMARK    2  A    between atoms: C_2  and  O_3
REMARK    3  A    between atoms: O_3  and  C_4
REMARK    4  A    between atoms: C_4  and  C_6
REMARK    5  A    between atoms: C_7  and  C_27
REMARK    6  A    between atoms: C_18  and  C_20
REMARK    7  A    between atoms: C_25  and  O_26
REMARK                            x       y       z     vdW  Elec       q    Type
REMARK                         _______ _______ _______ _____ _____    ______ ____
ROOT
ATOM      1  C   UNL     1       1.545  -2.360   2.386  0.00  0.00    +0.062 C 
ATOM      2  C   UNL     1       1.479  -3.682   2.591  0.00  0.00    +0.016 C 
ATOM      3  N   UNL     1       2.015  -4.272   3.711  0.00  0.00    -0.307 N 
ATOM      4  C   UNL     1       2.788  -3.489   4.529  0.00  0.00    +0.106 C 
ATOM      5  N   UNL     1       3.849  -3.966   5.103  0.00  0.00    -0.151 NA
ATOM      6  C   UNL     1       4.645  -3.220   5.882  0.00  0.00    +0.331 C 
ATOM      7  O   UNL     1       5.608  -3.737   6.415  0.00  0.00    -0.250 OA
ATOM      8  N   UNL     1       4.404  -1.915   6.090  0.00  0.00    -0.238 N 
ATOM      9  C   UNL     1       3.331  -1.308   5.559  0.00  0.00    +0.231 C 
ATOM     10  O   UNL     1       3.159  -0.125   5.761  0.00  0.00    -0.275 OA
ATOM     11  C   UNL     1       2.339  -2.060   4.721  0.00  0.00    +0.148 C 
ATOM     12  C   UNL     1       2.231  -1.415   3.333  0.00  0.00    +0.080 C 
ATOM     13  C   UNL     1       0.795  -4.547   1.564  0.00  0.00    +0.061 C 
ATOM     14  H   UNL     1       1.853  -5.206   3.915  0.00  0.00    +0.153 HD
ATOM     15  H   UNL     1       5.019  -1.401   6.636  0.00  0.00    +0.159 HD
ENDROOT
BRANCH  12  16
ATOM     16  C   UNL     1       1.431  -0.141   3.436  0.00  0.00    +0.003 A 
ATOM     17  C   UNL     1       0.128  -0.179   3.893  0.00  0.00    +0.008 A 
ATOM     18  C   UNL     1      -0.606   0.989   3.987  0.00  0.00    +0.001 A 
ATOM     19  C   UNL     1      -0.039   2.197   3.625  0.00  0.00    +0.004 A 
ATOM     20  C   UNL     1       1.264   2.239   3.167  0.00  0.00    +0.046 A 
ATOM     21  C   UNL     1       2.005   1.069   3.077  0.00  0.00    +0.121 A 
BRANCH  21  22
ATOM     22  O   UNL     1       3.288   1.109   2.633  0.00  0.00    -0.506 OA
ATOM     23  H   UNL     1       3.377   1.010   1.675  0.00  0.00    +0.292 HD
ENDBRANCH  21  22
ENDBRANCH  12  16
BRANCH   1  24
ATOM     24  C   UNL     1       0.947  -1.828   1.219  0.00  0.00    +0.337 C 
ATOM     25  O   UNL     1       1.633  -1.564   0.250  0.00  0.00    -0.245 OA
BRANCH  24  26
ATOM     26  O   UNL     1      -0.385  -1.614   1.182  0.00  0.00    -0.462 OA
BRANCH  26  28
ATOM     27  C   UNL     1      -2.435  -0.903   0.117  0.00  0.00    +0.048 C 
ATOM     28  C   UNL     1      -0.922  -1.075  -0.028  0.00  0.00    +0.229 C 
ENDBRANCH  26  28
ENDBRANCH  24  26
ENDBRANCH   1  24
TORSDOF 5
