REMARK  Name = ZINC42029291
REMARK  5 active torsions:
REMARK  status: ('A' for Active; 'I' for Inactive)
REMARK    1  A    between atoms: C_2  and  C_10
REMARK    2  A    between atoms: C_6  and  N_7
REMARK    3  A    between atoms: N_14  and  C_15
REMARK    4  A    between atoms: C_15  and  C_16
REMARK    5  A    between atoms: C_16  and  C_17
REMARK                            x       y       z     vdW  Elec       q    Type
REMARK                         _______ _______ _______ _____ _____    ______ ____
ROOT
ATOM      1  C   UNL     1       1.177   3.572  -0.011  0.00  0.00    +0.182 A 
ATOM      2  N   UNL     1       0.167   4.347  -0.345  0.00  0.00    -0.108 NA
ATOM      3  N   UNL     1       0.481   5.583  -0.198  0.00  0.00    -0.023 NA
ATOM      4  N   UNL     1       1.691   5.691   0.233  0.00  0.00    -0.044 NA
ATOM      5  N   UNL     1       2.191   4.385   0.377  0.00  0.00    -0.225 N 
ENDROOT
BRANCH   1   7
ATOM      6  C   UNL     1       2.417   1.412  -0.051  0.00  0.00    +0.036 A 
ATOM      7  C   UNL     1       1.200   2.092  -0.045  0.00  0.00    +0.024 A 
ATOM      8  C   UNL     1       0.004   1.375  -0.071  0.00  0.00    +0.033 A 
ATOM      9  C   UNL     1       0.028  -0.006  -0.103  0.00  0.00    +0.062 A 
ATOM     10  C   UNL     1       1.235  -0.681  -0.108  0.00  0.00    +0.080 A 
ATOM     11  C   UNL     1       2.432   0.027  -0.083  0.00  0.00    +0.045 A 
ATOM     12 CL   UNL     1       1.257  -2.417  -0.147  0.00  0.00    -0.080 Cl
ATOM     13 CL   UNL     1      -1.462  -0.896  -0.135  0.00  0.00    -0.082 Cl
BRANCH  11  14
ATOM     14  N   UNL     1       3.650  -0.659  -0.089  0.00  0.00    -0.357 N 
ATOM     15  H   UNL     1       4.485  -0.165  -0.071  0.00  0.00    +0.142 HD
ATOM     16  H   UNL     1       3.661  -1.629  -0.112  0.00  0.00    +0.142 HD
ENDBRANCH  11  14
ENDBRANCH   1   7
BRANCH   5  17
ATOM     17  C   UNL     1       3.521   3.988   0.844  0.00  0.00    +0.148 C 
BRANCH  17  18
ATOM     18  C   UNL     1       4.495   3.982  -0.337  0.00  0.00    +0.027 C 
BRANCH  18  19
ATOM     19  C   UNL     1       5.885   3.567   0.151  0.00  0.00    -0.009 C 
ATOM     20  C   UNL     1       6.471   4.660   1.069  0.00  0.00    +0.003 C 
ATOM     21  C   UNL     1       7.980   4.679   0.722  0.00  0.00    +0.000 C 
ATOM     22  C   UNL     1       7.981   4.454  -0.811  0.00  0.00    +0.000 C 
ATOM     23  C   UNL     1       6.845   3.436  -1.044  0.00  0.00    +0.003 C 
ENDBRANCH  18  19
ENDBRANCH  17  18
ENDBRANCH   5  17
TORSDOF 5
