REMARK  Name = ZINC45962105
REMARK  5 active torsions:
REMARK  status: ('A' for Active; 'I' for Inactive)
REMARK    1  A    between atoms: C_1  and  N_2
REMARK    2  A    between atoms: N_2  and  C_3
REMARK    3  A    between atoms: C_13  and  N_14
REMARK    4  A    between atoms: N_14  and  S_15
REMARK    5  A    between atoms: S_15  and  C_18
REMARK                            x       y       z     vdW  Elec       q    Type
REMARK                         _______ _______ _______ _____ _____    ______ ____
ROOT
ATOM      1  C   UNL     1      -0.740   0.945  -0.687  0.00  0.00    +0.067 A 
ATOM      2  C   UNL     1      -1.466  -0.307  -0.420  0.00  0.00    +0.040 A 
ATOM      3  C   UNL     1      -2.366  -0.403   0.643  0.00  0.00    +0.013 A 
ATOM      4  C   UNL     1      -3.030  -1.588   0.868  0.00  0.00    +0.001 A 
ATOM      5  C   UNL     1      -2.808  -2.682   0.044  0.00  0.00    +0.004 A 
ATOM      6  C   UNL     1      -1.922  -2.600  -1.009  0.00  0.00    +0.047 A 
ATOM      7  C   UNL     1      -1.241  -1.414  -1.253  0.00  0.00    +0.141 A 
ATOM      8  O   UNL     1      -0.370  -1.321  -2.281  0.00  0.00    -0.421 OA
ATOM      9  C   UNL     1       0.302  -0.188  -2.541  0.00  0.00    +0.362 A 
ATOM     10  O   UNL     1       1.075  -0.161  -3.483  0.00  0.00    -0.243 OA
ATOM     11  C   UNL     1       0.132   0.970  -1.761  0.00  0.00    +0.154 A 
ENDROOT
BRANCH   1  13
ATOM     12  C   UNL     1      -0.266   3.324  -0.237  0.00  0.00    +0.125 C 
ATOM     13  N   UNL     1      -0.928   2.063   0.106  0.00  0.00    -0.345 N 
ATOM     14  H   UNL     1      -1.499   2.012   0.888  0.00  0.00    +0.146 HD
ENDBRANCH   1  13
BRANCH  11  15
ATOM     15  N   UNL     1       0.848   2.142  -2.066  0.00  0.00    -0.208 N 
ATOM     16  H   UNL     1       0.800   2.908  -1.472  0.00  0.00    +0.174 HD
BRANCH  15  17
ATOM     17  S   UNL     1       1.773   2.214  -3.438  0.00  0.00    +0.073 S 
ATOM     18  O   UNL     1       2.165   3.571  -3.592  0.00  0.00    -0.150 OA
ATOM     19  O   UNL     1       2.714   1.153  -3.349  0.00  0.00    -0.150 OA
BRANCH  17  20
ATOM     20  C   UNL     1       0.717   1.838  -4.797  0.00  0.00    +0.111 A 
ATOM     21  C   UNL     1       0.928   0.690  -5.538  0.00  0.00    +0.029 A 
ATOM     22  C   UNL     1       0.100   0.393  -6.605  0.00  0.00    +0.005 A 
ATOM     23  C   UNL     1      -0.938   1.244  -6.933  0.00  0.00    +0.038 A 
ATOM     24  C   UNL     1      -1.150   2.394  -6.192  0.00  0.00    +0.125 A 
ATOM     25  C   UNL     1      -0.324   2.687  -5.119  0.00  0.00    +0.067 A 
ATOM     26  F   UNL     1      -2.164   3.227  -6.511  0.00  0.00    -0.205 F 
ENDBRANCH  17  20
ENDBRANCH  15  17
ENDBRANCH  11  15
TORSDOF 4
