REMARK  Name = ZINC08514987
REMARK  1 active torsions:
REMARK  status: ('A' for Active; 'I' for Inactive)
REMARK    1  A    between atoms: C_6  and  C_7
REMARK                            x       y       z     vdW  Elec       q    Type
REMARK                         _______ _______ _______ _____ _____    ______ ____
ROOT
ATOM      1  C   UNL     1      -1.294  -0.774   0.010  0.00  0.00    +0.090 C 
ATOM      2  C   UNL     1      -2.080  -0.425  -1.219  0.00  0.00    +0.042 A 
ATOM      3  C   UNL     1      -1.725  -0.968  -2.463  0.00  0.00    +0.126 A 
ATOM      4  N   UNL     1      -2.427  -0.649  -3.545  0.00  0.00    -0.208 NA
ATOM      5  C   UNL     1      -3.464   0.180  -3.469  0.00  0.00    +0.180 A 
ATOM      6  S   UNL     1      -4.340   0.565  -4.888  0.00  0.00    -0.011 S 
ATOM      7  N   UNL     1      -3.837   0.723  -2.294  0.00  0.00    -0.322 N 
ATOM      8  C   UNL     1      -3.146   0.423  -1.151  0.00  0.00    +0.110 A 
ATOM      9  N   UNL     1      -3.522   0.967   0.052  0.00  0.00    -0.304 N 
ATOM     10  C   UNL     1      -3.117   0.401   1.231  0.00  0.00    +0.017 C 
ATOM     11  C   UNL     1      -2.060  -0.436   1.264  0.00  0.00    +0.024 C 
ATOM     12  C   UNL     1      -1.638  -1.019   2.472  0.00  0.00    +0.162 C 
ATOM     13  O   UNL     1      -0.693  -1.783   2.467  0.00  0.00    -0.292 OA
ATOM     14  C   UNL     1      -2.333  -0.714   3.771  0.00  0.00    +0.080 C 
ATOM     15  C   UNL     1      -2.946   0.688   3.690  0.00  0.00    +0.014 C 
ATOM     16  C   UNL     1      -3.885   0.734   2.486  0.00  0.00    +0.051 C 
ATOM     17  N   UNL     1      -0.653  -1.829  -2.562  0.00  0.00    -0.343 N 
ATOM     18  H   UNL     1      -4.079   1.761   0.068  0.00  0.00    +0.153 HD
ATOM     19  H   UNL     1      -0.409  -2.204  -3.423  0.00  0.00    +0.144 HD
ATOM     20  H   UNL     1      -0.142  -2.061  -1.771  0.00  0.00    +0.144 HD
ATOM     21  H   UNL     1      -4.596   1.325  -2.258  0.00  0.00    +0.169 HD
ENDROOT
BRANCH   1  27
ATOM     22  C   UNL     1      -0.017   1.378   0.010  0.00  0.00    +0.008 A 
ATOM     23  C   UNL     1       1.170   2.088   0.002  0.00  0.00    +0.050 A 
ATOM     24  C   UNL     1       2.380   1.416  -0.013  0.00  0.00    +0.166 A 
ATOM     25  C   UNL     1       2.399   0.023  -0.021  0.00  0.00    +0.167 A 
ATOM     26  C   UNL     1       1.207  -0.682  -0.014  0.00  0.00    +0.054 A 
ATOM     27  C   UNL     1       0.002  -0.004   0.002  0.00  0.00    -0.032 A 
ATOM     28  O   UNL     1       3.698  -0.395  -0.036  0.00  0.00    -0.453 OA
ATOM     29  C   UNL     1       4.466   0.750  -0.450  0.00  0.00    +0.466 C 
ATOM     30  O   UNL     1       3.668   1.870  -0.024  0.00  0.00    -0.453 OA
ENDBRANCH   1  27
TORSDOF 1
