REMARK  Name = ZINC58363201
REMARK  3 active torsions:
REMARK  status: ('A' for Active; 'I' for Inactive)
REMARK    1  A    between atoms: C_6  and  C_7
REMARK    2  A    between atoms: C_7  and  S_8
REMARK    3  A    between atoms: S_8  and  C_9
REMARK                            x       y       z     vdW  Elec       q    Type
REMARK                         _______ _______ _______ _____ _____    ______ ____
ROOT
ATOM      1  S   UNL     1      -1.827  -1.074  -1.699  0.00  0.00    -0.081 S 
ENDROOT
BRANCH   1   2
ATOM      2  C   UNL     1      -3.334  -1.971  -1.523  0.00  0.00    +0.191 A 
ATOM      3  N   UNL     1      -3.993  -2.357  -2.610  0.00  0.00    -0.207 NA
ATOM      4  C   UNL     1      -5.127  -3.032  -2.540  0.00  0.00    +0.129 A 
ATOM      5  C   UNL     1      -5.666  -3.359  -1.265  0.00  0.00    +0.047 A 
ATOM      6  C   UNL     1      -6.881  -4.084  -0.929  0.00  0.00    +0.021 A 
ATOM      7  C   UNL     1      -7.193  -4.277   0.360  0.00  0.00    +0.048 A 
ATOM      8  S   UNL     1      -5.857  -3.486   1.235  0.00  0.00    -0.077 S 
ATOM      9  C   UNL     1      -4.914  -2.917  -0.155  0.00  0.00    +0.114 A 
ATOM     10  N   UNL     1      -3.786  -2.252  -0.308  0.00  0.00    -0.215 NA
ATOM     11  N   UNL     1      -5.783  -3.417  -3.695  0.00  0.00    -0.343 N 
ATOM     12  H   UNL     1      -5.411  -3.191  -4.562  0.00  0.00    +0.144 HD
ATOM     13  H   UNL     1      -6.615  -3.912  -3.639  0.00  0.00    +0.144 HD
ENDBRANCH   1   2
BRANCH   1  14
ATOM     14  C   UNL     1      -1.293  -0.774   0.009  0.00  0.00    +0.112 C 
BRANCH  14  20
ATOM     15  C   UNL     1      -0.017   1.378   0.010  0.00  0.00    +0.008 A 
ATOM     16  C   UNL     1       1.170   2.088   0.002  0.00  0.00    +0.050 A 
ATOM     17  C   UNL     1       2.382   1.415  -0.013  0.00  0.00    +0.162 A 
ATOM     18  C   UNL     1       2.401   0.025  -0.018  0.00  0.00    +0.162 A 
ATOM     19  C   UNL     1       1.207  -0.681  -0.011  0.00  0.00    +0.054 A 
ATOM     20  C   UNL     1       0.002  -0.004   0.002  0.00  0.00    -0.033 A 
ATOM     21  O   UNL     1       3.579  -0.656  -0.024  0.00  0.00    -0.485 OA
ATOM     22  C   UNL     1       4.746   0.081  -0.406  0.00  0.00    +0.270 C 
ATOM     23  C   UNL     1       4.733   1.422   0.340  0.00  0.00    +0.270 C 
ATOM     24  O   UNL     1       3.542   2.127  -0.024  0.00  0.00    -0.485 OA
ENDBRANCH  14  20
ENDBRANCH   1  14
TORSDOF 3
