REMARK  Name = ZINC44334208
REMARK  12 active torsions:
REMARK  status: ('A' for Active; 'I' for Inactive)
REMARK    1  A    between atoms: C_1  and  C_2
REMARK    2  A    between atoms: C_9  and  C_19
REMARK    3  A    between atoms: C_10  and  C_11
REMARK    4  A    between atoms: C_11  and  C_12
REMARK    5  A    between atoms: C_12  and  C_14
REMARK    6  A    between atoms: C_12  and  N_18
REMARK    7  A    between atoms: C_14  and  O_16
REMARK    8  A    between atoms: O_16  and  C_17
REMARK    9  A    between atoms: C_22  and  O_27
REMARK   10  A    between atoms: C_23  and  O_25
REMARK   11  A    between atoms: O_25  and  C_26
REMARK   12  A    between atoms: O_27  and  C_28
REMARK                            x       y       z     vdW  Elec       q    Type
REMARK                         _______ _______ _______ _____ _____    ______ ____
ROOT
ATOM      1  C   UNL     1       0.425   1.203  -0.454  0.00  0.00    +0.047 C 
ATOM      2  C   UNL     1       0.240  -0.287  -0.335  0.00  0.00    -0.009 A 
ATOM      3  C   UNL     1       0.168  -1.062  -1.450  0.00  0.00    +0.008 A 
ATOM      4  C   UNL     1      -0.004  -2.450  -1.324  0.00  0.00    +0.018 A 
ATOM      5  C   UNL     1      -0.099  -3.016  -0.102  0.00  0.00    +0.093 A 
ATOM      6  N   UNL     1      -0.029  -2.251   1.026  0.00  0.00    -0.304 N 
ATOM      7  C   UNL     1       0.146  -0.894   0.935  0.00  0.00    +0.119 A 
ATOM      8  N   UNL     1       0.188  -0.397   2.162  0.00  0.00    -0.339 N 
ATOM      9  C   UNL     1       0.051  -1.397   3.047  0.00  0.00    +0.068 A 
ATOM     10  C   UNL     1      -0.095  -2.562   2.356  0.00  0.00    +0.051 A 
ATOM     11  H   UNL     1       0.299   0.541   2.386  0.00  0.00    +0.167 HD
ENDROOT
BRANCH   9  12
ATOM     12  C   UNL     1       0.045  -1.256   4.524  0.00  0.00    +0.004 A 
ATOM     13  C   UNL     1       0.833  -2.097   5.308  0.00  0.00    +0.014 A 
ATOM     14  C   UNL     1       0.828  -1.966   6.682  0.00  0.00    +0.050 A 
ATOM     15  C   UNL     1       0.039  -0.998   7.285  0.00  0.00    +0.162 A 
ATOM     16  C   UNL     1      -0.750  -0.156   6.507  0.00  0.00    +0.162 A 
ATOM     17  C   UNL     1      -0.743  -0.280   5.129  0.00  0.00    +0.059 A 
BRANCH  16  18
ATOM     18  O   UNL     1      -1.524   0.792   7.100  0.00  0.00    -0.491 OA
ATOM     19  C   UNL     1      -2.308   1.622   6.241  0.00  0.00    +0.277 C 
ENDBRANCH  16  18
BRANCH  15  20
ATOM     20  O   UNL     1       0.035  -0.873   8.639  0.00  0.00    -0.491 OA
ATOM     21  C   UNL     1       0.868  -1.770   9.376  0.00  0.00    +0.277 C 
ENDBRANCH  15  20
ENDBRANCH   9  12
BRANCH  10  22
ATOM     22  C   UNL     1      -0.276  -3.937   2.946  0.00  0.00    +0.085 C 
BRANCH  22  23
ATOM     23  C   UNL     1      -1.766  -4.281   2.990  0.00  0.00    +0.167 C 
BRANCH  23  24
ATOM     24  N   UNL     1      -2.450  -3.376   3.923  0.00  0.00    -0.318 NA
ATOM     25  H   UNL     1      -2.071  -3.462   4.854  0.00  0.00    +0.119 HD
ATOM     26  H   UNL     1      -2.403  -2.421   3.600  0.00  0.00    +0.119 HD
ENDBRANCH  23  24
BRANCH  23  27
ATOM     27  C   UNL     1      -1.940  -5.704   3.453  0.00  0.00    +0.324 C 
ATOM     28  O   UNL     1      -2.235  -5.934   4.601  0.00  0.00    -0.249 OA
BRANCH  27  29
ATOM     29  O   UNL     1      -1.766  -6.717   2.589  0.00  0.00    -0.467 OA
ATOM     30  C   UNL     1      -1.946  -8.041   3.096  0.00  0.00    +0.280 C 
ENDBRANCH  27  29
ENDBRANCH  23  27
ENDBRANCH  22  23
ENDBRANCH  10  22
TORSDOF 8
