REMARK  Name = ZINC63383844
REMARK  5 active torsions:
REMARK  status: ('A' for Active; 'I' for Inactive)
REMARK    1  A    between atoms: C_1  and  C_2
REMARK    2  A    between atoms: C_2  and  C_4
REMARK    3  A    between atoms: C_2  and  N_10
REMARK    4  A    between atoms: C_13  and  C_20
REMARK    5  A    between atoms: N_34  and  C_35
REMARK                            x       y       z     vdW  Elec       q    Type
REMARK                         _______ _______ _______ _____ _____    ______ ____
ROOT
ATOM      1  N   UNL     1       0.764  -0.444   1.174  0.00  0.00    -0.253 N 
ATOM      2  C   UNL     1       1.941  -1.078   1.007  0.00  0.00    +0.263 A 
ATOM      3  O   UNL     1       2.372  -1.286  -0.114  0.00  0.00    -0.267 OA
ATOM      4  C   UNL     1       2.668  -1.498   2.135  0.00  0.00    +0.070 A 
ATOM      5  H   UNL     1       0.599  -0.427   4.384  0.00  0.00    +0.173 HD
ATOM      6  C   UNL     1       2.164  -1.253   3.377  0.00  0.00    +0.259 A 
ATOM      7  N   UNL     1       0.962  -0.604   3.502  0.00  0.00    -0.275 N 
ATOM      8  C   UNL     1       0.285  -0.206   2.409  0.00  0.00    +0.333 A 
ATOM      9  O   UNL     1      -0.777   0.372   2.539  0.00  0.00    -0.246 OA
ATOM     10  O   UNL     1       2.842  -1.645   4.476  0.00  0.00    -0.267 OA
ENDROOT
BRANCH   4  11
ATOM     11  C   UNL     1       3.987  -2.209   1.972  0.00  0.00    -0.000 C 
ATOM     12  C   UNL     1       5.005  -1.267   1.325  0.00  0.00    +0.097 C 
ATOM     13  C   UNL     1       6.251  -2.105   1.061  0.00  0.00    -0.041 C 
ATOM     14  C   UNL     1       7.262  -1.462   1.628  0.00  0.00    -0.001 A 
ATOM     15  C   UNL     1       8.710  -1.723   1.638  0.00  0.00    +0.010 A 
ATOM     16  C   UNL     1       9.472  -0.850   2.347  0.00  0.00    +0.001 A 
ATOM     17  C   UNL     1       8.945   0.245   3.040  0.00  0.00    +0.002 A 
ATOM     18  C   UNL     1       7.628   0.565   3.079  0.00  0.00    +0.026 A 
ATOM     19  C   UNL     1       6.726  -0.277   2.366  0.00  0.00    +0.043 A 
ATOM     20  N   UNL     1       5.419  -0.184   2.215  0.00  0.00    -0.379 N 
ATOM     21  C   UNL     1       6.168  -3.442   0.365  0.00  0.00    +0.015 C 
ATOM     22  C   UNL     1       5.020  -4.209   1.048  0.00  0.00    -0.074 C 
ATOM     23  N   UNL     1       3.814  -3.379   1.097  0.00  0.00    +0.384 N 
ATOM     24  C   UNL     1       2.696  -4.189   1.597  0.00  0.00    -0.095 C 
ATOM     25  H   UNL     1       4.833   0.475   2.619  0.00  0.00    +0.160 HD
ATOM     26  H   UNL     1       3.597  -3.061   0.164  0.00  0.00    -0.081 HD
ENDBRANCH   4  11
BRANCH   1  28
ATOM     27  C   UNL     1      -0.409  -1.223  -0.826  0.00  0.00    +0.036 C 
ATOM     28  C   UNL     1       0.002  -0.004   0.002  0.00  0.00    +0.122 C 
BRANCH  28  29
ATOM     29  C   UNL     1       0.857   0.909  -0.839  0.00  0.00    -0.025 A 
ATOM     30  C   UNL     1       0.803   0.830  -2.218  0.00  0.00    +0.005 A 
ATOM     31  C   UNL     1       1.587   1.668  -2.989  0.00  0.00    +0.000 A 
ATOM     32  C   UNL     1       2.424   2.585  -2.381  0.00  0.00    +0.000 A 
ATOM     33  C   UNL     1       2.477   2.665  -1.002  0.00  0.00    +0.000 A 
ATOM     34  C   UNL     1       1.690   1.830  -0.231  0.00  0.00    +0.005 A 
ENDBRANCH  28  29
ENDBRANCH   1  28
TORSDOF 3
