REMARK  Name = ZINC17735744
REMARK  5 active torsions:
REMARK  status: ('A' for Active; 'I' for Inactive)
REMARK    1  A    between atoms: C_1  and  C_2
REMARK    2  A    between atoms: C_5  and  N_9
REMARK    3  A    between atoms: C_7  and  C_8
REMARK    4  A    between atoms: C_13  and  C_15
REMARK    5  A    between atoms: C_15  and  N_16
REMARK                            x       y       z     vdW  Elec       q    Type
REMARK                         _______ _______ _______ _____ _____    ______ ____
ROOT
ATOM      1  N   UNL     1      -8.227   5.331  -3.070  0.00  0.00    -0.269 N 
ATOM      2  C   UNL     1      -7.112   4.606  -2.849  0.00  0.00    +0.310 C 
ATOM      3  O   UNL     1      -6.497   4.136  -3.786  0.00  0.00    -0.252 OA
ATOM      4  N   UNL     1      -6.679   4.403  -1.589  0.00  0.00    -0.238 N 
ATOM      5  C   UNL     1      -5.565   3.678  -1.368  0.00  0.00    +0.240 C 
ATOM      6  O   UNL     1      -4.951   3.209  -2.303  0.00  0.00    -0.273 OA
ATOM      7  H   UNL     1      -8.760   5.641  -2.321  0.00  0.00    +0.156 HD
ATOM      8  H   UNL     1      -7.170   4.778  -0.841  0.00  0.00    +0.159 HD
ENDROOT
BRANCH   1  13
ATOM      9  C   UNL     1      -9.799   6.567  -8.379  0.00  0.00    +0.044 C 
ATOM     10  C   UNL     1      -9.382   6.239  -6.969  0.00  0.00    -0.047 A 
ATOM     11  C   UNL     1      -8.039   6.143  -6.651  0.00  0.00    +0.005 A 
ATOM     12  C   UNL     1      -7.653   5.848  -5.359  0.00  0.00    +0.023 A 
ATOM     13  C   UNL     1      -8.614   5.636  -4.379  0.00  0.00    +0.035 A 
ATOM     14  C   UNL     1      -9.962   5.733  -4.701  0.00  0.00    +0.027 A 
ATOM     15  C   UNL     1     -10.341   6.035  -5.995  0.00  0.00    -0.046 A 
ATOM     16  C   UNL     1     -11.803   6.140  -6.345  0.00  0.00    +0.044 C 
ENDBRANCH   1  13
BRANCH   5  17
ATOM     17  C   UNL     1      -5.081   3.451   0.041  0.00  0.00    +0.222 C 
BRANCH  17  18
ATOM     18  N   UNL     1      -3.861   2.640   0.014  0.00  0.00    -0.290 N 
ATOM     19  C   UNL     1      -3.952   1.285   0.066  0.00  0.00    +0.203 A 
ATOM     20  N   UNL     1      -2.919   0.499   0.045  0.00  0.00    -0.237 NA
ATOM     21  C   UNL     1      -1.656   0.986  -0.037  0.00  0.00    +0.079 A 
ATOM     22  C   UNL     1      -0.544   0.143  -0.051  0.00  0.00    +0.048 A 
ATOM     23  C   UNL     1       0.720   0.687  -0.128  0.00  0.00    +0.043 A 
ATOM     24  C   UNL     1       0.900   2.065  -0.185  0.00  0.00    +0.021 A 
ATOM     25  C   UNL     1      -0.175   2.910  -0.166  0.00  0.00    +0.017 A 
ATOM     26  C   UNL     1      -1.463   2.385  -0.089  0.00  0.00    +0.065 A 
ATOM     27  C   UNL     1      -2.654   3.247  -0.064  0.00  0.00    +0.262 A 
ATOM     28  O   UNL     1      -2.558   4.459  -0.111  0.00  0.00    -0.267 OA
ATOM     29 CL   UNL     1       2.105  -0.360  -0.154  0.00  0.00    -0.083 Cl
ENDBRANCH  17  18
ENDBRANCH   5  17
TORSDOF 3
