REMARK  Name = ZINC64899525
REMARK  10 active torsions:
REMARK  status: ('A' for Active; 'I' for Inactive)
REMARK    1  A    between atoms: C_1  and  C_2
REMARK    2  A    between atoms: C_2  and  C_3
REMARK    3  A    between atoms: C_2  and  C_4
REMARK    4  A    between atoms: C_2  and  C_5
REMARK    5  A    between atoms: C_10  and  C_18
REMARK    6  A    between atoms: N_20  and  N_21
REMARK    7  A    between atoms: N_24  and  C_25
REMARK    8  A    between atoms: C_25  and  C_26
REMARK    9  A    between atoms: C_26  and  O_27
REMARK   10  A    between atoms: O_27  and  C_28
REMARK                            x       y       z     vdW  Elec       q    Type
REMARK                         _______ _______ _______ _____ _____    ______ ____
ROOT
ATOM      1  C   UNL     1       0.718  -0.497  -1.257  0.00  0.00    -0.001 C 
ATOM      2  C   UNL     1       0.766  -2.030  -1.257  0.00  0.00    +0.010 C 
ATOM      3  C   UNL     1       1.255  -2.498  -2.625  0.00  0.00    +0.056 C 
ATOM      4  C   UNL     1       2.537  -1.796  -2.999  0.00  0.00    +0.046 A 
ATOM      5  C   UNL     1       2.943  -0.623  -2.376  0.00  0.00    -0.013 A 
ATOM      6  C   UNL     1       4.133  -0.012  -2.766  0.00  0.00    +0.052 A 
ATOM      7  C   UNL     1       4.895  -0.620  -3.793  0.00  0.00    +0.013 A 
ATOM      8  C   UNL     1       6.101  -0.066  -4.240  0.00  0.00    +0.011 A 
ATOM      9  C   UNL     1       6.802  -0.688  -5.229  0.00  0.00    +0.001 A 
ATOM     10  C   UNL     1       6.333  -1.867  -5.804  0.00  0.00    +0.002 A 
ATOM     11  C   UNL     1       5.165  -2.432  -5.394  0.00  0.00    +0.028 A 
ATOM     12  C   UNL     1       4.413  -1.819  -4.375  0.00  0.00    +0.072 A 
ATOM     13  N   UNL     1       3.264  -2.345  -3.953  0.00  0.00    -0.251 NA
ATOM     14  C   UNL     1       2.152   0.029  -1.273  0.00  0.00    +0.041 C 
ENDROOT
BRANCH   1  16
ATOM     15  C   UNL     1      -0.019   1.526   0.010  0.00  0.00    +0.011 C 
ATOM     16  C   UNL     1       0.002  -0.004   0.002  0.00  0.00    -0.035 C 
ATOM     17  C   UNL     1       0.742  -0.511   1.242  0.00  0.00    +0.011 C 
ATOM     18  C   UNL     1      -1.433  -0.534   0.013  0.00  0.00    +0.011 C 
ENDBRANCH   1  16
BRANCH   6  19
ATOM     19  C   UNL     1       4.588   1.241  -2.125  0.00  0.00    +0.261 C 
ATOM     20  O   UNL     1       5.300   1.196  -1.141  0.00  0.00    -0.269 OA
ATOM     21  N   UNL     1       4.214   2.432  -2.632  0.00  0.00    -0.229 N 
ATOM     22  H   UNL     1       3.647   2.468  -3.418  0.00  0.00    +0.173 HD
BRANCH  21  23
ATOM     23  N   UNL     1       4.646   3.619  -2.025  0.00  0.00    -0.218 N 
ATOM     24  C   UNL     1       4.271   4.810  -2.532  0.00  0.00    +0.316 C 
ATOM     25  O   UNL     1       4.646   5.840  -2.005  0.00  0.00    -0.251 OA
ATOM     26  N   UNL     1       3.483   4.860  -3.624  0.00  0.00    -0.296 N 
ATOM     27  H   UNL     1       5.213   3.583  -1.239  0.00  0.00    +0.174 HD
ATOM     28  H   UNL     1       3.184   4.038  -4.044  0.00  0.00    +0.150 HD
BRANCH  26  29
ATOM     29  C   UNL     1       3.076   6.155  -4.175  0.00  0.00    +0.134 C 
BRANCH  29  30
ATOM     30  C   UNL     1       2.191   5.931  -5.403  0.00  0.00    +0.178 C 
BRANCH  30  31
ATOM     31  O   UNL     1       0.977   5.292  -5.004  0.00  0.00    -0.381 OA
ATOM     32  C   UNL     1       0.074   5.036  -6.082  0.00  0.00    +0.194 C 
ENDBRANCH  30  31
ENDBRANCH  29  30
ENDBRANCH  26  29
ENDBRANCH  21  23
ENDBRANCH   6  19
TORSDOF 6
