REMARK  Name = ZINC03555930
REMARK  10 active torsions:
REMARK  status: ('A' for Active; 'I' for Inactive)
REMARK    1  A    between atoms: C_1  and  C_2
REMARK    2  A    between atoms: C_5  and  C_23
REMARK    3  A    between atoms: C_7  and  N_8
REMARK    4  A    between atoms: C_9  and  C_11
REMARK    5  A    between atoms: C_11  and  C_13
REMARK    6  A    between atoms: C_11  and  O_14
REMARK    7  A    between atoms: O_14  and  C_15
REMARK    8  A    between atoms: C_20  and  C_21
REMARK    9  A    between atoms: C_23  and  O_25
REMARK   10  A    between atoms: O_25  and  C_26
REMARK                            x       y       z     vdW  Elec       q    Type
REMARK                         _______ _______ _______ _____ _____    ______ ____
ROOT
ATOM      1  N   UNL     1      -0.033  -0.001  -2.409  0.00  0.00    -0.282 N 
ATOM      2  C   UNL     1       0.055  -0.654  -3.584  0.00  0.00    +0.258 C 
ATOM      3  O   UNL     1       0.053  -1.866  -3.606  0.00  0.00    -0.271 OA
ATOM      4  H   UNL     1      -0.116   0.966  -2.396  0.00  0.00    +0.155 HD
ENDROOT
BRANCH   1  11
ATOM      5  C   UNL     1      -1.241   1.175  -0.121  0.00  0.00    +0.045 C 
ATOM      6  C   UNL     1      -0.584  -0.179  -0.064  0.00  0.00    -0.029 A 
ATOM      7  C   UNL     1      -0.564  -0.885   1.125  0.00  0.00    +0.006 A 
ATOM      8  C   UNL     1       0.036  -2.126   1.186  0.00  0.00    +0.015 A 
ATOM      9  C   UNL     1       0.626  -2.673   0.044  0.00  0.00    +0.061 A 
ATOM     10  C   UNL     1       0.606  -1.960  -1.155  0.00  0.00    +0.038 A 
ATOM     11  C   UNL     1      -0.005  -0.717  -1.207  0.00  0.00    +0.037 A 
BRANCH   9  12
ATOM     12  C   UNL     1       1.269  -4.002   0.106  0.00  0.00    +0.339 C 
ATOM     13  O   UNL     1       1.781  -4.476  -0.888  0.00  0.00    -0.245 OA
BRANCH  12  14
ATOM     14  O   UNL     1       1.287  -4.688   1.265  0.00  0.00    -0.464 OA
ATOM     15  C   UNL     1       1.937  -5.987   1.252  0.00  0.00    +0.280 C 
ENDBRANCH  12  14
ENDBRANCH   9  12
ENDBRANCH   1  11
BRANCH   2  16
ATOM     16  C   UNL     1       0.155   0.123  -4.872  0.00  0.00    +0.256 C 
ATOM     17  C   UNL     1      -1.137   0.912  -5.094  0.00  0.00    +0.062 C 
BRANCH  16  18
ATOM     18  O   UNL     1       0.354  -0.782  -5.960  0.00  0.00    -0.480 OA
BRANCH  18  19
ATOM     19  C   UNL     1       1.139  -0.353  -6.984  0.00  0.00    +0.125 A 
ATOM     20  C   UNL     1       1.611   0.951  -6.998  0.00  0.00    +0.047 A 
ATOM     21  C   UNL     1       2.412   1.383  -8.037  0.00  0.00    +0.023 A 
ATOM     22  C   UNL     1       2.735   0.519  -9.068  0.00  0.00    +0.041 A 
ATOM     23  C   UNL     1       2.261  -0.780  -9.059  0.00  0.00    +0.027 A 
ATOM     24  C   UNL     1       1.463  -1.218  -8.019  0.00  0.00    -0.007 A 
ATOM     25  C   UNL     1       0.947  -2.634  -8.008  0.00  0.00    +0.047 C 
ATOM     26 CL   UNL     1       3.736   1.067 -10.376  0.00  0.00    -0.084 Cl
ENDBRANCH  18  19
ENDBRANCH  16  18
ENDBRANCH   2  16
TORSDOF 6
