REMARK  Name = ZINC62824804
REMARK  7 active torsions:
REMARK  status: ('A' for Active; 'I' for Inactive)
REMARK    1  A    between atoms: C_1  and  C_2
REMARK    2  A    between atoms: C_2  and  C_4
REMARK    3  A    between atoms: C_2  and  N_9
REMARK    4  A    between atoms: N_6  and  C_7
REMARK    5  A    between atoms: N_6  and  C_8
REMARK    6  A    between atoms: N_12  and  C_13
REMARK    7  A    between atoms: C_18  and  C_19
REMARK                            x       y       z     vdW  Elec       q    Type
REMARK                         _______ _______ _______ _____ _____    ______ ____
ROOT
ATOM      1  N   UNL     1      -1.372  -0.516   0.257  0.00  0.00    -0.288 N 
ATOM      2  C   UNL     1      -1.813  -0.568   1.530  0.00  0.00    +0.304 C 
ATOM      3  O   UNL     1      -1.299   0.133   2.380  0.00  0.00    -0.252 OA
ATOM      4  N   UNL     1      -2.823  -1.396   1.860  0.00  0.00    -0.269 N 
ATOM      5  H   UNL     1      -1.782  -1.075  -0.421  0.00  0.00    +0.151 HD
ATOM      6  H   UNL     1      -3.201  -1.990   1.193  0.00  0.00    +0.156 HD
ENDROOT
BRANCH   4   7
ATOM      7  C   UNL     1      -3.324  -1.399   3.159  0.00  0.00    +0.049 A 
ATOM      8  C   UNL     1      -2.458  -1.310   4.241  0.00  0.00    +0.025 A 
ATOM      9  C   UNL     1      -2.957  -1.314   5.527  0.00  0.00    +0.016 A 
ATOM     10  C   UNL     1      -4.322  -1.406   5.752  0.00  0.00    +0.014 A 
ATOM     11  C   UNL     1      -5.197  -1.496   4.692  0.00  0.00    +0.031 A 
ATOM     12  C   UNL     1      -4.708  -1.488   3.381  0.00  0.00    +0.085 A 
ATOM     13  I   UNL     1      -5.058  -1.410   7.713  0.00  0.00    -0.044 I 
BRANCH  12  14
ATOM     14  C   UNL     1      -5.636  -1.577   2.244  0.00  0.00    +0.388 C 
ATOM     15  O   UNL     1      -6.844  -1.592   2.439  0.00  0.00    -0.241 OA
ATOM     16  O   UNL     1      -5.201  -1.635   1.102  0.00  0.00    -0.241 OA
ENDBRANCH  12  14
ENDBRANCH   4   7
BRANCH   1  18
ATOM     17  C   UNL     1      -0.832   1.779  -0.393  0.00  0.00    +0.038 C 
ATOM     18  C   UNL     1      -0.274   0.384  -0.102  0.00  0.00    +0.157 C 
BRANCH  18  19
ATOM     19  C   UNL     1       0.428  -0.142  -1.327  0.00  0.00    +0.235 C 
ATOM     20  O   UNL     1      -0.089  -1.013  -1.994  0.00  0.00    -0.274 OA
ATOM     21  N   UNL     1       1.630   0.354  -1.681  0.00  0.00    -0.306 N 
ATOM     22  C   UNL     1       2.272  -0.096  -2.919  0.00  0.00    +0.131 C 
ATOM     23  C   UNL     1       2.293   1.344  -0.829  0.00  0.00    +0.131 C 
ENDBRANCH  18  19
ENDBRANCH   1  18
TORSDOF 4
