REMARK  Name = ZINC44592698
REMARK  2 active torsions:
REMARK  status: ('A' for Active; 'I' for Inactive)
REMARK    1  A    between atoms: C_6  and  C_20
REMARK    2  A    between atoms: C_11  and  C_13
REMARK                            x       y       z     vdW  Elec       q    Type
REMARK                         _______ _______ _______ _____ _____    ______ ____
ROOT
ATOM      1  C   UNL     1       0.709   0.738  -0.797  0.00  0.00    +0.014 A 
ATOM      2  C   UNL     1       2.016   0.917  -1.096  0.00  0.00    +0.046 A 
ATOM      3  S   UNL     1       2.689  -0.710  -0.797  0.00  0.00    -0.101 S 
ATOM      4  C   UNL     1       1.183  -1.504  -0.301  0.00  0.00    -0.003 A 
ATOM      5  C   UNL     1       0.255  -0.512  -0.380  0.00  0.00    -0.006 A 
ATOM      6  C   UNL     1      -1.201  -0.795  -0.015  0.00  0.00    +0.220 C 
ATOM      7  N   UNL     1      -1.368  -2.252   0.072  0.00  0.00    -0.282 N 
ATOM      8  C   UNL     1      -0.380  -3.040   0.823  0.00  0.00    +0.114 C 
ATOM      9  C   UNL     1       0.974  -2.927   0.106  0.00  0.00    +0.062 C 
ATOM     10  C   UNL     1      -2.412  -2.857  -0.527  0.00  0.00    +0.243 C 
ATOM     11  O   UNL     1      -3.203  -2.203  -1.173  0.00  0.00    -0.273 OA
ENDROOT
BRANCH  10  12
ATOM     12  C   UNL     1      -2.597  -4.347  -0.394  0.00  0.00    +0.187 C 
ATOM     13  C   UNL     1      -1.435  -5.070  -1.080  0.00  0.00    -0.041 C 
ATOM     14  N   UNL     1      -1.649  -6.521  -0.999  0.00  0.00    +0.383 N 
ATOM     15  C   UNL     1      -2.908  -6.869  -1.671  0.00  0.00    -0.054 C 
ATOM     16  C   UNL     1      -4.067  -6.142  -0.984  0.00  0.00    +0.142 C 
ATOM     17  O   UNL     1      -3.826  -4.733  -1.015  0.00  0.00    -0.371 OA
ATOM     18  H   UNL     1      -0.883  -6.999  -1.450  0.00  0.00    -0.086 HD
ATOM     19  H   UNL     1      -1.696  -6.801  -0.031  0.00  0.00    -0.086 HD
ENDBRANCH  10  12
BRANCH   6  20
ATOM     20  C   UNL     1      -2.111  -0.239  -1.079  0.00  0.00    +0.381 C 
ATOM     21  O   UNL     1      -2.016  -0.633  -2.229  0.00  0.00    -0.244 OA
ATOM     22  O   UNL     1      -2.942   0.606  -0.791  0.00  0.00    -0.244 OA
ENDBRANCH   6  20
TORSDOF 2
