REMARK  Name = ZINC39223284
REMARK  7 active torsions:
REMARK  status: ('A' for Active; 'I' for Inactive)
REMARK    1  A    between atoms: C_1  and  O_2
REMARK    2  A    between atoms: O_2  and  C_3
REMARK    3  A    between atoms: C_5  and  C_10
REMARK    4  A    between atoms: C_8  and  O_9
REMARK    5  A    between atoms: N_15  and  N_23
REMARK    6  A    between atoms: N_23  and  C_24
REMARK    7  A    between atoms: C_25  and  C_31
REMARK                            x       y       z     vdW  Elec       q    Type
REMARK                         _______ _______ _______ _____ _____    ______ ____
ROOT
ATOM      1  C   UNL     1      -4.293  -0.274  -1.274  0.00  0.00    +0.063 C 
ATOM      2  C   UNL     1      -5.160  -0.667  -2.471  0.00  0.00    +0.111 C 
ATOM      3  C   UNL     1      -5.876  -1.956  -2.160  0.00  0.00    +0.237 C 
ATOM      4  O   UNL     1      -6.100  -2.753  -3.046  0.00  0.00    -0.274 OA
ATOM      5  N   UNL     1      -6.265  -2.226  -0.902  0.00  0.00    -0.194 N 
ATOM      6  C   UNL     1      -6.047  -1.333   0.116  0.00  0.00    +0.040 C 
ATOM      7  C   UNL     1      -5.111  -0.368  -0.008  0.00  0.00    +0.022 C 
ATOM      8  C   UNL     1      -4.877   0.561   1.018  0.00  0.00    +0.161 C 
ATOM      9  O   UNL     1      -4.019   1.409   0.873  0.00  0.00    -0.292 OA
ATOM     10  C   UNL     1      -5.672   0.523   2.296  0.00  0.00    +0.080 C 
ATOM     11  C   UNL     1      -7.054  -0.071   2.004  0.00  0.00    +0.014 C 
ATOM     12  C   UNL     1      -6.869  -1.455   1.375  0.00  0.00    +0.053 C 
ENDROOT
BRANCH   1  15
ATOM     13  C   UNL     1      -0.751  -1.589  -1.336  0.00  0.00    +0.162 A 
ATOM     14  C   UNL     1      -1.837  -0.732  -1.422  0.00  0.00    +0.053 A 
ATOM     15  C   UNL     1      -3.113  -1.207  -1.181  0.00  0.00    -0.036 A 
ATOM     16  C   UNL     1      -3.308  -2.536  -0.854  0.00  0.00    +0.008 A 
ATOM     17  C   UNL     1      -2.229  -3.396  -0.767  0.00  0.00    +0.049 A 
ATOM     18  C   UNL     1      -0.949  -2.927  -1.013  0.00  0.00    +0.158 A 
BRANCH  13  20
ATOM     19  C   UNL     1       0.632   0.263  -1.899  0.00  0.00    +0.277 C 
ATOM     20  O   UNL     1       0.504  -1.123  -1.573  0.00  0.00    -0.491 OA
ENDBRANCH  13  20
BRANCH  18  21
ATOM     21  O   UNL     1       0.113  -3.773  -0.933  0.00  0.00    -0.503 OA
ATOM     22  H   UNL     1       0.510  -3.824  -0.053  0.00  0.00    +0.292 HD
ENDBRANCH  18  21
ENDBRANCH   1  15
BRANCH   5  23
ATOM     23  N   UNL     1      -6.906  -3.441  -0.626  0.00  0.00    -0.259 N 
ATOM     24  H   UNL     1      -6.410  -4.169  -0.220  0.00  0.00    +0.170 HD
BRANCH  23  25
ATOM     25  C   UNL     1      -8.213  -3.598  -0.925  0.00  0.00    +0.059 C 
ATOM     26  C   UNL     1      -8.910  -4.754  -0.584  0.00  0.00    +0.110 C 
ATOM     27  N   UNL     1     -10.194  -4.894  -0.884  0.00  0.00    -0.155 NA
ATOM     28  N   UNL     1     -10.920  -4.037  -1.491  0.00  0.00    -0.080 NA
ATOM     29  C   UNL     1     -10.463  -2.850  -1.915  0.00  0.00    +0.260 C 
ATOM     30  O   UNL     1     -11.190  -2.064  -2.488  0.00  0.00    -0.272 OA
ATOM     31  C   UNL     1      -9.005  -2.520  -1.647  0.00  0.00    +0.153 C 
BRANCH  26  32
ATOM     32  C   UNL     1      -8.205  -5.848   0.127  0.00  0.00    +0.003 A 
ATOM     33  C   UNL     1      -7.450  -5.569   1.265  0.00  0.00    +0.010 A 
ATOM     34  C   UNL     1      -6.796  -6.591   1.923  0.00  0.00    +0.001 A 
ATOM     35  C   UNL     1      -6.888  -7.889   1.454  0.00  0.00    +0.000 A 
ATOM     36  C   UNL     1      -7.636  -8.171   0.325  0.00  0.00    +0.001 A 
ATOM     37  C   UNL     1      -8.299  -7.159  -0.338  0.00  0.00    +0.010 A 
ENDBRANCH  26  32
ENDBRANCH  23  25
ENDBRANCH   5  23
TORSDOF 6
