REMARK  Name = ZINC12296921
REMARK  11 active torsions:
REMARK  status: ('A' for Active; 'I' for Inactive)
REMARK    1  A    between atoms: CE_1  and  SD_2
REMARK    2  A    between atoms: SD_2  and  CG_3
REMARK    3  A    between atoms: CG_3  and  CB_4
REMARK    4  A    between atoms: CB_4  and  CA_5
REMARK    5  A    between atoms: CA_5  and  C_7
REMARK    6  A    between atoms: CA_5  and  N_9
REMARK    7  A    between atoms: C_10  and  C_12
REMARK    8  A    between atoms: C_12  and  O_13
REMARK    9  A    between atoms: O_13  and  C_14
REMARK   10  A    between atoms: C_16  and  O_31
REMARK   11  A    between atoms: C_21  and  C_25
REMARK                            x       y       z     vdW  Elec       q    Type
REMARK                         _______ _______ _______ _____ _____    ______ ____
ROOT
ATOM      1  C   UNK A   0      -2.648   7.090   3.027  0.00  0.00    +0.128 A 
ATOM      2  C   UNK A   0      -1.677   7.904   2.452  0.00  0.00    +0.092 A 
ATOM      3  C   UNK A   0      -1.743   9.277   2.606  0.00  0.00    +0.135 A 
ATOM      4  C   UNK A   0      -2.786   9.838   3.354  0.00  0.00    +0.105 A 
ATOM      5  C   UNK A   0      -2.890  11.294   3.548  0.00  0.00    +0.197 A 
ATOM      6  O   UNK A   0      -2.071  12.059   3.065  0.00  0.00    -0.287 OA
ATOM      7  C   UNK A   0      -3.978  11.772   4.319  0.00  0.00    +0.098 A 
ATOM      8  C   UNK A   0      -4.869  10.888   4.841  0.00  0.00    +0.139 A 
ATOM      9  O   UNK A   0      -4.763   9.563   4.656  0.00  0.00    -0.454 OA
ATOM     10  C   UNK A   0      -3.762   9.012   3.938  0.00  0.00    +0.146 A 
ATOM     11  C   UNK A   0      -3.682   7.639   3.768  0.00  0.00    +0.092 A 
ENDROOT
BRANCH   8  12
ATOM     12  C   UNK A   0      -5.997  11.406   5.641  0.00  0.00    +0.017 A 
ATOM     13  C   UNK A   0      -6.133  12.780   5.855  0.00  0.00    +0.011 A 
ATOM     14  C   UNK A   0      -7.192  13.257   6.598  0.00  0.00    +0.001 A 
ATOM     15  C   UNK A   0      -8.113  12.377   7.141  0.00  0.00    +0.000 A 
ATOM     16  C   UNK A   0      -7.981  11.015   6.937  0.00  0.00    +0.001 A 
ATOM     17  C   UNK A   0      -6.929  10.524   6.191  0.00  0.00    +0.011 A 
ENDBRANCH   8  12
BRANCH   3  18
ATOM     18  O   UNK A   0      -0.800  10.074   2.042  0.00  0.00    -0.506 OA
ATOM     19  H   UNK A   0      -0.036  10.242   2.611  0.00  0.00    +0.292 HD
ENDBRANCH   3  18
BRANCH   1  20
ATOM     20  O   UNK A   0      -2.577   5.744   2.864  0.00  0.00    -0.483 OA
BRANCH  20  21
ATOM     21  C   UNK A   0      -1.487   5.240   2.090  0.00  0.00    +0.324 C 
BRANCH  21  23
ATOM     22  N   MET A   1      -0.645   3.040   1.336  0.00  0.00    -0.299 N 
ATOM     23  C   UNK A   0      -1.574   3.737   2.019  0.00  0.00    +0.251 C 
ATOM     24  O   UNK A   0      -2.480   3.155   2.577  0.00  0.00    -0.272 OA
ATOM     25  H   MET A   1       0.080   3.506   0.889  0.00  0.00    +0.150 HD
BRANCH  22  26
ATOM     26  CA  MET A   1      -0.729   1.579   1.267  0.00  0.00    +0.187 C 
BRANCH  26  27
ATOM     27  C   MET A   1      -0.074   0.981   2.485  0.00  0.00    +0.376 C 
ATOM     28  O   MET A   1       0.413   1.700   3.324  0.00  0.00    -0.244 OA
ATOM     29  OXT MET A   1      -0.032  -0.352   2.637  0.00  0.00    -0.244 OA
ENDBRANCH  26  27
BRANCH  26  30
ATOM     30  CB  MET A   1      -0.013   1.086   0.008  0.00  0.00    +0.044 C 
BRANCH  30  31
ATOM     31  CG  MET A   1      -0.753   1.593  -1.232  0.00  0.00    +0.071 C 
BRANCH  31  33
ATOM     32  CE  MET A   1      -0.892   1.685  -4.085  0.00  0.00    +0.084 C 
ATOM     33  SD  MET A   1       0.096   1.008  -2.724  0.00  0.00    -0.164 S 
ENDBRANCH  31  33
ENDBRANCH  30  31
ENDBRANCH  26  30
ENDBRANCH  22  26
ENDBRANCH  21  23
ENDBRANCH  20  21
ENDBRANCH   1  20
TORSDOF 10
