REMARK  Name = ZINC04025980
REMARK  5 active torsions:
REMARK  status: ('A' for Active; 'I' for Inactive)
REMARK    1  A    between atoms: C_1  and  C_2
REMARK    2  A    between atoms: C_6  and  C_20
REMARK    3  A    between atoms: N_8  and  C_19
REMARK    4  A    between atoms: N_14  and  C_18
REMARK    5  A    between atoms: C_21  and  C_22
REMARK                            x       y       z     vdW  Elec       q    Type
REMARK                         _______ _______ _______ _____ _____    ______ ____
ROOT
ATOM      1  C   UNL     1      -1.636   1.865   1.391  0.00  0.00    +0.028 C 
ATOM      2  C   UNL     1      -1.190   1.712  -0.065  0.00  0.00    +0.080 C 
ATOM      3  C   UNL     1      -1.043   3.096  -0.697  0.00  0.00    +0.072 C 
ATOM      4  C   UNL     1      -2.344   3.882  -0.512  0.00  0.00    +0.108 C 
ATOM      5  N   UNL     1      -2.580   4.097   0.916  0.00  0.00    -0.282 N 
ATOM      6  C   UNL     1      -1.562   4.190   1.784  0.00  0.00    +0.304 C 
ATOM      7  O   UNL     1      -1.812   4.387   2.958  0.00  0.00    -0.253 OA
ATOM      8  N   UNL     1      -0.280   4.074   1.409  0.00  0.00    -0.280 N 
ATOM      9  C   UNL     1       0.091   3.845   0.013  0.00  0.00    +0.173 C 
ATOM     10  N   UNL     1       1.310   3.035  -0.044  0.00  0.00    -0.270 N 
ATOM     11  C   UNL     1       1.256   1.696  -0.095  0.00  0.00    +0.304 C 
ATOM     12  O   UNL     1       2.299   1.071  -0.130  0.00  0.00    -0.253 OA
ATOM     13  N   UNL     1       0.099   1.018  -0.111  0.00  0.00    -0.296 N 
ATOM     14  C   UNL     1       2.614   3.702  -0.043  0.00  0.00    +0.135 C 
ATOM     15  C   UNL     1      -3.956   4.213   1.407  0.00  0.00    +0.134 C 
ATOM     16  H   UNL     1       0.418   4.143   2.080  0.00  0.00    +0.152 HD
ATOM     17  H   UNL     1       0.116   0.050  -0.157  0.00  0.00    +0.151 HD
ENDROOT
BRANCH   4  18
ATOM     18  C   UNL     1      -3.491   3.101  -1.100  0.00  0.00    -0.004 C 
ATOM     19  C   UNL     1      -4.250   3.646  -2.040  0.00  0.00    +0.005 C 
BRANCH  19  20
ATOM     20  C   UNL     1      -5.451   2.933  -2.525  0.00  0.00    -0.025 A 
ATOM     21  C   UNL     1      -5.785   1.684  -1.999  0.00  0.00    +0.008 A 
ATOM     22  C   UNL     1      -6.909   1.026  -2.452  0.00  0.00    +0.001 A 
ATOM     23  C   UNL     1      -7.700   1.597  -3.433  0.00  0.00    +0.000 A 
ATOM     24  C   UNL     1      -7.373   2.833  -3.962  0.00  0.00    +0.001 A 
ATOM     25  C   UNL     1      -6.253   3.503  -3.514  0.00  0.00    +0.008 A 
ENDBRANCH  19  20
ENDBRANCH   4  18
TORSDOF 2
