REMARK  Name = ZINC44184719
REMARK  7 active torsions:
REMARK  status: ('A' for Active; 'I' for Inactive)
REMARK    1  A    between atoms: C_1  and  C_2
REMARK    2  A    between atoms: C_2  and  C_3
REMARK    3  A    between atoms: C_2  and  C_4
REMARK    4  A    between atoms: C_2  and  C_5
REMARK    5  A    between atoms: C_5  and  C_7
REMARK    6  A    between atoms: C_5  and  O_21
REMARK    7  A    between atoms: C_7  and  N_8
REMARK                            x       y       z     vdW  Elec       q    Type
REMARK                         _______ _______ _______ _____ _____    ______ ____
ROOT
ATOM      1  N   UNL     1       2.802  -0.340  -2.528  0.00  0.00    -0.264 N 
ATOM      2  C   UNL     1       3.510  -1.516  -2.739  0.00  0.00    +0.045 A 
ATOM      3  C   UNL     1       3.854  -2.635  -2.004  0.00  0.00    +0.024 A 
ATOM      4  C   UNL     1       4.609  -3.650  -2.591  0.00  0.00    +0.002 A 
ATOM      5  C   UNL     1       5.046  -3.606  -3.887  0.00  0.00    +0.008 A 
ATOM      6  C   UNL     1       4.718  -2.485  -4.667  0.00  0.00    -0.015 A 
ATOM      7  C   UNL     1       3.961  -1.485  -4.054  0.00  0.00    +0.016 A 
ATOM      8  C   UNL     1       3.550  -0.304  -4.689  0.00  0.00    +0.047 A 
ATOM      9  C   UNL     1       3.932  -0.141  -6.010  0.00  0.00    +0.014 A 
ATOM     10  C   UNL     1       4.688  -1.131  -6.637  0.00  0.00    +0.001 A 
ATOM     11  C   UNL     1       5.086  -2.281  -6.008  0.00  0.00    +0.008 A 
ATOM     12  C   UNL     1       2.791   0.414  -3.659  0.00  0.00    +0.252 C 
ATOM     13  O   UNL     1       2.248   1.495  -3.793  0.00  0.00    -0.270 OA
ENDROOT
BRANCH   1  14
ATOM     14  C   UNL     1       2.154   0.032  -1.268  0.00  0.00    +0.145 C 
BRANCH  14  15
ATOM     15  C   UNL     1       0.718  -0.497  -1.257  0.00  0.00    +0.138 C 
BRANCH  15  17
ATOM     16  C   UNL     1      -0.019   1.526   0.010  0.00  0.00    +0.013 C 
ATOM     17  C   UNL     1       0.002  -0.004   0.002  0.00  0.00    -0.010 C 
ATOM     18  C   UNL     1       0.742  -0.511   1.242  0.00  0.00    +0.013 C 
ATOM     19  C   UNL     1      -1.433  -0.534   0.013  0.00  0.00    +0.013 C 
ENDBRANCH  15  17
BRANCH  15  20
ATOM     20  O   UNL     1       0.738  -1.926  -1.265  0.00  0.00    -0.390 OA
ATOM     21  H   UNL     1       1.192  -2.318  -0.506  0.00  0.00    +0.210 HD
ENDBRANCH  15  20
ENDBRANCH  14  15
ENDBRANCH   1  14
TORSDOF 4
