REMARK  Name = ZINC65395502
REMARK  8 active torsions:
REMARK  status: ('A' for Active; 'I' for Inactive)
REMARK    1  A    between atoms: C_1  and  C_2
REMARK    2  A    between atoms: C_9  and  C_13
REMARK    3  A    between atoms: C_18  and  N_19
REMARK    4  A    between atoms: C_20  and  C_22
REMARK    5  A    between atoms: C_25  and  C_28
REMARK    6  A    between atoms: C_28  and  C_29
REMARK    7  A    between atoms: C_29  and  C_30
REMARK    8  A    between atoms: C_29  and  C_31
REMARK                            x       y       z     vdW  Elec       q    Type
REMARK                         _______ _______ _______ _____ _____    ______ ____
ROOT
ATOM      1  C   UNL     1      -1.318  -0.856   4.559  0.00  0.00    +0.028 A 
ATOM      2  C   UNL     1      -1.768  -1.801   5.480  0.00  0.00    +0.012 A 
ATOM      3  C   UNL     1      -2.239  -1.393   6.711  0.00  0.00    +0.001 A 
ATOM      4  C   UNL     1      -2.267  -0.048   7.036  0.00  0.00    +0.002 A 
ATOM      5  C   UNL     1      -1.824   0.899   6.132  0.00  0.00    +0.024 A 
ATOM      6  C   UNL     1      -1.341   0.504   4.893  0.00  0.00    +0.043 A 
ENDROOT
BRANCH   1  14
ATOM      7  C   UNL     1      -3.251  -3.556   0.443  0.00  0.00    +0.063 C 
ATOM      8  C   UNL     1      -1.776  -3.247   0.397  0.00  0.00    +0.035 C 
ATOM      9  C   UNL     1      -0.991  -3.915  -0.457  0.00  0.00    +0.064 C 
ATOM     10  S   UNL     1       0.618  -3.172  -0.182  0.00  0.00    -0.088 S 
ATOM     11  C   UNL     1      -0.016  -1.665   0.672  0.00  0.00    +0.247 C 
ATOM     12  N   UNL     1      -1.261  -2.276   1.235  0.00  0.00    -0.197 N 
ATOM     13  N   UNL     1      -1.640  -1.843   2.392  0.00  0.00    -0.172 NA
ATOM     14  C   UNL     1      -0.812  -1.289   3.236  0.00  0.00    +0.152 C 
ATOM     15  C   UNL     1       0.606  -1.081   2.914  0.00  0.00    +0.267 C 
ATOM     16  O   UNL     1       1.399  -0.759   3.779  0.00  0.00    -0.268 OA
ATOM     17  N   UNL     1       1.018  -1.255   1.629  0.00  0.00    -0.281 N 
ATOM     18  H   UNL     1       1.939  -1.115   1.355  0.00  0.00    +0.152 HD
ENDBRANCH   1  14
BRANCH   6  19
ATOM     19  N   UNL     1      -0.886   1.459   3.980  0.00  0.00    -0.283 N 
ATOM     20  C   UNL     1      -0.284   2.581   4.422  0.00  0.00    +0.248 C 
ATOM     21  O   UNL     1      -0.051   2.719   5.604  0.00  0.00    -0.273 OA
ATOM     22  H   UNL     1      -1.004   1.315   3.028  0.00  0.00    +0.155 HD
BRANCH  20  23
ATOM     23  C   UNL     1       0.101   3.664   3.447  0.00  0.00    +0.238 C 
ATOM     24  C   UNL     1       1.427   3.341   2.782  0.00  0.00    +0.035 C 
ATOM     25  C   UNL     1       2.223   4.348   3.149  0.00  0.00    +0.062 C 
ATOM     26  N   UNL     1       1.560   5.223   3.937  0.00  0.00    -0.158 NA
ATOM     27  N   UNL     1       0.378   4.926   4.154  0.00  0.00    -0.170 NA
BRANCH  25  28
ATOM     28  C   UNL     1       3.667   4.490   2.739  0.00  0.00    +0.060 C 
BRANCH  28  29
ATOM     29  C   UNL     1       3.760   5.387   1.503  0.00  0.00    -0.011 C 
ATOM     30  C   UNL     1       3.301   6.801   1.864  0.00  0.00    +0.007 C 
ATOM     31  C   UNL     1       5.209   5.431   1.014  0.00  0.00    +0.007 C 
ENDBRANCH  28  29
ENDBRANCH  25  28
ENDBRANCH  20  23
ENDBRANCH   6  19
TORSDOF 5
