REMARK  Name = ZINC34868033
REMARK  16 active torsions:
REMARK  status: ('A' for Active; 'I' for Inactive)
REMARK    1  A    between atoms: C_1  and  C_2
REMARK    2  A    between atoms: C_5  and  C_8
REMARK    3  A    between atoms: C_8  and  C_10
REMARK    4  A    between atoms: C_8  and  O_16
REMARK    5  A    between atoms: O_16  and  C_17
REMARK    6  A    between atoms: C_17  and  C_18
REMARK    7  A    between atoms: C_18  and  C_20
REMARK    8  A    between atoms: C_18  and  O_38
REMARK    9  A    between atoms: C_20  and  N_21
REMARK   10  A    between atoms: N_21  and  C_22
REMARK   11  A    between atoms: C_22  and  C_24
REMARK   12  A    between atoms: C_22  and  C_26
REMARK   13  A    between atoms: C_24  and  O_25
REMARK   14  A    between atoms: C_26  and  C_28
REMARK   15  A    between atoms: C_26  and  O_37
REMARK   16  A    between atoms: C_31  and  N_34
REMARK                            x       y       z     vdW  Elec       q    Type
REMARK                         _______ _______ _______ _____ _____    ______ ____
ROOT
ATOM      1  C   UNK A   0       2.751  -7.955   1.781  0.00  0.00    -0.048 C 
ENDROOT
BRANCH   1   2
ATOM      2  N   UNK A   1       3.463  -8.284   3.024  0.00  0.00    +0.386 N 
ATOM      3  H   UNK A   1       4.159  -7.577   3.209  0.00  0.00    -0.085 HD
ATOM      4  H   UNK A   1       2.805  -8.318   3.788  0.00  0.00    -0.085 HD
BRANCH   2   5
ATOM      5  C   UNK A   1       4.117  -9.591   2.882  0.00  0.00    -0.012 C 
BRANCH   5   6
ATOM      6  C   UNK A   1       5.201  -9.505   1.805  0.00  0.00    +0.143 C 
BRANCH   6   7
ATOM      7  O   UNK A   1       6.220  -8.595   2.227  0.00  0.00    -0.397 OA
ATOM      8  H   UNK A   1       6.941  -8.491   1.592  0.00  0.00    +0.209 HD
ENDBRANCH   6   7
ENDBRANCH   5   6
BRANCH   5   9
ATOM      9  C   UNK A   1       4.753  -9.991   4.215  0.00  0.00    +0.133 C 
BRANCH   9  10
ATOM     10  C   UNK A   1       3.674 -10.171   5.252  0.00  0.00    -0.020 A 
ATOM     11  C   UNK A   1       3.016 -11.382   5.360  0.00  0.00    +0.008 A 
ATOM     12  C   UNK A   1       2.027 -11.548   6.311  0.00  0.00    +0.033 A 
ATOM     13  C   UNK A   1       1.696 -10.503   7.154  0.00  0.00    +0.126 A 
ATOM     14  C   UNK A   1       2.355  -9.292   7.046  0.00  0.00    +0.033 A 
ATOM     15  C   UNK A   1       3.347  -9.128   6.098  0.00  0.00    +0.008 A 
BRANCH  13  16
ATOM     16  N   UNK A   1       0.636 -10.680   8.172  0.00  0.00    +0.056 N 
ATOM     17  O   UNK A   1       0.059 -11.738   8.266  0.00  0.00    -0.126 OA
ATOM     18  O   UNK A   1       0.346  -9.766   8.909  0.00  0.00    -0.126 OA
ENDBRANCH  13  16
ENDBRANCH   9  10
BRANCH   9  19
ATOM     19  O   UNK A   1       5.468 -11.217   4.053  0.00  0.00    -0.389 OA
ATOM     20  H   UNK A   1       4.938 -11.935   3.681  0.00  0.00    +0.210 HD
ENDBRANCH   9  19
ENDBRANCH   5   9
ENDBRANCH   2   5
ENDBRANCH   1   2
BRANCH   1  21
ATOM     21  C   UNK A   0       2.070  -6.593   1.929  0.00  0.00    +0.123 C 
BRANCH  21  22
ATOM     22  O   UNK A   0       3.063  -5.577   2.076  0.00  0.00    -0.391 OA
ATOM     23  H   UNK A   0       3.672  -5.511   1.328  0.00  0.00    +0.210 HD
ENDBRANCH  21  22
BRANCH  21  24
ATOM     24  C   UNK A   0       1.227  -6.306   0.684  0.00  0.00    +0.190 C 
BRANCH  24  25
ATOM     25  O   UNK A   0       0.499  -5.091   0.871  0.00  0.00    -0.365 OA
BRANCH  25  26
ATOM     26  C   UNK A   0      -0.324  -4.730  -0.240  0.00  0.00    +0.178 C 
BRANCH  26  31
ATOM     27  C   UNK A   0      -0.786   1.024  -0.507  0.00  0.00    +0.044 C 
ATOM     28  C   UNK A   0      -0.665  -0.476  -0.437  0.00  0.00    -0.050 A 
ATOM     29  C   UNK A   0      -0.625  -1.221  -1.601  0.00  0.00    +0.004 A 
ATOM     30  C   UNK A   0      -0.515  -2.598  -1.537  0.00  0.00    +0.007 A 
ATOM     31  C   UNK A   0      -0.443  -3.229  -0.309  0.00  0.00    -0.014 A 
ATOM     32  C   UNK A   0      -0.482  -2.484   0.854  0.00  0.00    +0.007 A 
ATOM     33  C   UNK A   0      -0.589  -1.107   0.790  0.00  0.00    +0.004 A 
ENDBRANCH  26  31
BRANCH  26  34
ATOM     34  C   UNK A   0      -1.693  -5.336  -0.068  0.00  0.00    -0.015 A 
ATOM     35  C   UNK A   0      -2.289  -5.354   1.179  0.00  0.00    +0.006 A 
ATOM     36  C   UNK A   0      -3.545  -5.910   1.336  0.00  0.00    +0.000 A 
ATOM     37  C   UNK A   0      -4.205  -6.447   0.246  0.00  0.00    +0.000 A 
ATOM     38  C   UNK A   0      -3.609  -6.427  -1.001  0.00  0.00    +0.000 A 
ATOM     39  C   UNK A   0      -2.355  -5.867  -1.159  0.00  0.00    +0.006 A 
ENDBRANCH  26  34
ENDBRANCH  25  26
ENDBRANCH  24  25
ENDBRANCH  21  24
ENDBRANCH   1  21
TORSDOF 15
