REMARK  Name = ZINC11592695
REMARK  8 active torsions:
REMARK  status: ('A' for Active; 'I' for Inactive)
REMARK    1  A    between atoms: C_1  and  C_2
REMARK    2  A    between atoms: C_4  and  O_32
REMARK    3  A    between atoms: C_12  and  O_20
REMARK    4  A    between atoms: C_14  and  C_15
REMARK    5  A    between atoms: C_14  and  O_19
REMARK    6  A    between atoms: C_15  and  C_17
REMARK    7  A    between atoms: C_17  and  O_18
REMARK    8  A    between atoms: C_29  and  C_30
REMARK                            x       y       z     vdW  Elec       q    Type
REMARK                         _______ _______ _______ _____ _____    ______ ____
ROOT
ATOM      1  C   UNL     1       1.320   1.578   2.412  0.00  0.00    +0.015 C 
ATOM      2  C   UNL     1       2.216   1.329   1.196  0.00  0.00    +0.012 C 
ATOM      3  C   UNL     1       1.473   1.689  -0.076  0.00  0.00    +0.044 C 
ATOM      4  C   UNL     1       0.156   0.898  -0.071  0.00  0.00    +0.154 C 
ATOM      5  C   UNL     1       0.401  -0.605   0.032  0.00  0.00    +0.153 C 
ATOM      6  C   UNL     1       1.279  -0.956   1.243  0.00  0.00    +0.034 C 
ATOM      7  C   UNL     1       2.575  -0.178   1.107  0.00  0.00    +0.007 C 
ATOM      8  C   UNL     1       3.577  -0.346   2.255  0.00  0.00    +0.039 C 
ATOM      9  C   UNL     1       4.436   0.953   2.149  0.00  0.00    +0.154 C 
ATOM     10  C   UNL     1       3.570   2.001   1.406  0.00  0.00    +0.157 C 
ATOM     11  C   UNL     1       1.571  -2.458   1.247  0.00  0.00    +0.011 C 
ATOM     12  C   UNL     1       0.265  -3.237   1.425  0.00  0.00    +0.032 C 
ATOM     13  C   UNL     1      -0.699  -2.799   0.338  0.00  0.00    -0.053 C 
ATOM     14  C   UNL     1      -1.276  -3.722  -0.418  0.00  0.00    +0.051 C 
ATOM     15  C   UNL     1      -2.191  -3.336  -1.504  0.00  0.00    +0.179 C 
ATOM     16  O   UNL     1      -2.748  -4.181  -2.178  0.00  0.00    -0.288 OA
ATOM     17  C   UNL     1      -2.416  -1.903  -1.756  0.00  0.00    +0.047 C 
ATOM     18  C   UNL     1      -1.833  -0.998  -0.985  0.00  0.00    -0.009 C 
ATOM     19  C   UNL     1      -0.942  -1.329   0.164  0.00  0.00    +0.044 C 
ATOM     20  C   UNL     1      -1.628  -0.814   1.431  0.00  0.00    +0.023 C 
ATOM     21  F   UNL     1       1.050  -1.045  -1.127  0.00  0.00    -0.238 F 
ENDROOT
BRANCH  10  22
ATOM     22  C   UNL     1       4.192   2.348   0.078  0.00  0.00    +0.193 C 
ATOM     23  O   UNL     1       4.839   1.522  -0.520  0.00  0.00    -0.292 OA
BRANCH  22  24
ATOM     24  C   UNL     1       4.006   3.725  -0.504  0.00  0.00    +0.233 C 
BRANCH  24  25
ATOM     25  O   UNL     1       4.685   3.808  -1.759  0.00  0.00    -0.387 OA
ATOM     26  H   UNL     1       4.608   4.669  -2.192  0.00  0.00    +0.210 HD
ENDBRANCH  24  25
ENDBRANCH  22  24
ENDBRANCH  10  22
BRANCH  10  27
ATOM     27  O   UNL     1       3.421   3.176   2.205  0.00  0.00    -0.378 OA
ATOM     28  H   UNL     1       4.250   3.646   2.372  0.00  0.00    +0.211 HD
ENDBRANCH  10  27
BRANCH   9  29
ATOM     29  O   UNL     1       5.622   0.677   1.401  0.00  0.00    -0.388 OA
ATOM     30  H   UNL     1       6.206   0.028   1.815  0.00  0.00    +0.210 HD
ENDBRANCH   9  29
BRANCH   4  31
ATOM     31  O   UNL     1      -0.558   1.172  -1.278  0.00  0.00    -0.389 OA
ATOM     32  H   UNL     1      -0.752   2.109  -1.416  0.00  0.00    +0.210 HD
ENDBRANCH   4  31
TORSDOF 6
