REMARK  Name = ZINC20374171
REMARK  9 active torsions:
REMARK  status: ('A' for Active; 'I' for Inactive)
REMARK    1  A    between atoms: C_1  and  C_2
REMARK    2  A    between atoms: C_2  and  C_3
REMARK    3  A    between atoms: C_3  and  C_4
REMARK    4  A    between atoms: C_8  and  C_14
REMARK    5  A    between atoms: C_9  and  C_11
REMARK    6  A    between atoms: N_17  and  C_18
REMARK    7  A    between atoms: C_18  and  C_20
REMARK    8  A    between atoms: C_18  and  C_22
REMARK    9  A    between atoms: C_20  and  C_21
REMARK                            x       y       z     vdW  Elec       q    Type
REMARK                         _______ _______ _______ _____ _____    ______ ____
ROOT
ATOM      1  C   UNL     1       1.070  -1.120   2.536  0.00  0.00    +0.114 A 
ATOM      2  N   UNL     1       1.055  -2.425   2.587  0.00  0.00    -0.226 NA
ATOM      3  C   UNL     1      -0.082  -3.105   2.656  0.00  0.00    +0.116 A 
ATOM      4  C   UNL     1      -1.338  -2.458   2.683  0.00  0.00    +0.076 A 
ATOM      5  C   UNL     1      -2.453  -3.296   2.757  0.00  0.00    -0.017 A 
ATOM      6  C   UNL     1      -2.284  -4.649   2.798  0.00  0.00    +0.079 A 
ATOM      7  S   UNL     1      -0.509  -4.827   2.733  0.00  0.00    -0.064 S 
ATOM      8  C   UNL     1      -3.840  -2.708   2.791  0.00  0.00    +0.046 C 
ATOM      9  C   UNL     1      -1.281  -0.979   2.630  0.00  0.00    +0.263 A 
ATOM     10  O   UNL     1      -2.301  -0.314   2.647  0.00  0.00    -0.267 OA
ATOM     11  N   UNL     1      -0.072  -0.389   2.561  0.00  0.00    -0.282 N 
ENDROOT
BRANCH   6  12
ATOM     12  C   UNL     1      -3.306  -5.697   2.876  0.00  0.00    +0.248 C 
ATOM     13  O   UNL     1      -4.484  -5.397   2.912  0.00  0.00    -0.270 OA
ATOM     14  N   UNL     1      -2.940  -6.994   2.906  0.00  0.00    -0.325 N 
ATOM     15  H   UNL     1      -3.707  -7.781   2.965  0.00  0.00    +0.145 HD
ATOM     16  H   UNL     1      -1.875  -7.266   2.874  0.00  0.00    +0.145 HD
ENDBRANCH   6  12
BRANCH   1  17
ATOM     17  C   UNL     1       2.394  -0.406   2.453  0.00  0.00    +0.074 C 
BRANCH  17  19
ATOM     18  C   UNL     1       4.872  -0.709   2.354  0.00  0.00    +0.004 C 
ATOM     19  C   UNL     1       3.527  -1.434   2.438  0.00  0.00    +0.004 C 
ENDBRANCH  17  19
ENDBRANCH   1  17
BRANCH  11  20
ATOM     20  C   UNL     1       0.011   1.072   2.506  0.00  0.00    +0.204 C 
BRANCH  20  21
ATOM     21  C   UNL     1      -0.621   1.658   3.743  0.00  0.00    +0.378 C 
ATOM     22  O   UNL     1      -1.092   0.929   4.584  0.00  0.00    -0.244 OA
ATOM     23  O   UNL     1      -0.660   2.989   3.910  0.00  0.00    -0.244 OA
ENDBRANCH  20  21
BRANCH  20  24
ATOM     24  C   UNL     1      -0.729   1.579   1.267  0.00  0.00    +0.033 C 
ATOM     25  C   UNL     1      -0.013   1.086   0.008  0.00  0.00    +0.006 C 
ENDBRANCH  20  24
ENDBRANCH  11  20
TORSDOF 6
