REMARK  Name = ZINC62832379
REMARK  7 active torsions:
REMARK  status: ('A' for Active; 'I' for Inactive)
REMARK    1  A    between atoms: C_1  and  C_2
REMARK    2  A    between atoms: C_2  and  C_4
REMARK    3  A    between atoms: C_2  and  N_7
REMARK    4  A    between atoms: C_4  and  O_5
REMARK    5  A    between atoms: O_5  and  C_6
REMARK    6  A    between atoms: C_8  and  C_10
REMARK    7  A    between atoms: C_17  and  N_20
REMARK                            x       y       z     vdW  Elec       q    Type
REMARK                         _______ _______ _______ _____ _____    ______ ____
ROOT
ATOM      1  C   UNL     1       0.762  -1.120   3.545  0.00  0.00    +0.062 A 
ATOM      2  C   UNL     1       2.080  -1.459   3.627  0.00  0.00    +0.096 A 
ATOM      3  N   UNL     1       2.373  -1.863   4.886  0.00  0.00    -0.360 N 
ATOM      4  H   UNL     1       3.249  -2.153   5.185  0.00  0.00    +0.165 HD
ATOM      5  C   UNL     1       1.247  -1.804   5.685  0.00  0.00    +0.047 A 
ATOM      6  C   UNL     1       0.191  -1.332   4.888  0.00  0.00    +0.014 A 
ATOM      7  C   UNL     1      -1.078  -1.164   5.436  0.00  0.00    +0.033 A 
ATOM      8  C   UNL     1      -1.291  -1.462   6.771  0.00  0.00    +0.025 A 
ATOM      9  C   UNL     1      -0.241  -1.927   7.561  0.00  0.00    +0.025 A 
ATOM     10  C   UNL     1       1.014  -2.103   7.023  0.00  0.00    +0.028 A 
ENDROOT
BRANCH   1  12
ATOM     11  N   UNL     1       0.711  -0.489   1.189  0.00  0.00    -0.307 N 
ATOM     12  C   UNL     1       0.051  -0.633   2.355  0.00  0.00    +0.246 C 
ATOM     13  O   UNL     1      -1.133  -0.360   2.423  0.00  0.00    -0.270 OA
ATOM     14  H   UNL     1       1.654  -0.707   1.135  0.00  0.00    +0.149 HD
BRANCH  11  16
ATOM     15  C   UNL     1      -0.019   1.526   0.010  0.00  0.00    +0.030 C 
ATOM     16  C   UNL     1       0.002  -0.004   0.002  0.00  0.00    +0.096 C 
BRANCH  16  17
ATOM     17  C   UNL     1       0.718  -0.497  -1.257  0.00  0.00    +0.181 C 
BRANCH  17  18
ATOM     18  O   UNL     1       2.019   0.090  -1.326  0.00  0.00    -0.381 OA
ATOM     19  C   UNL     1       2.776  -0.307  -2.471  0.00  0.00    +0.194 C 
ENDBRANCH  17  18
ENDBRANCH  16  17
ENDBRANCH  11  16
ENDBRANCH   1  12
BRANCH   8  20
ATOM     20  N   UNL     1      -2.563  -1.296   7.329  0.00  0.00    -0.358 N 
ATOM     21  H   UNL     1      -3.295  -0.972   6.780  0.00  0.00    +0.142 HD
ATOM     22  H   UNL     1      -2.714  -1.504   8.264  0.00  0.00    +0.142 HD
ENDBRANCH   8  20
TORSDOF 5
