REMARK  Name = ZINC61539054
REMARK  5 active torsions:
REMARK  status: ('A' for Active; 'I' for Inactive)
REMARK    1  A    between atoms: C_1  and  C_2
REMARK    2  A    between atoms: C_2  and  C_3
REMARK    3  A    between atoms: C_9  and  N_11
REMARK    4  A    between atoms: N_19  and  C_20
REMARK    5  A    between atoms: N_19  and  C_21
REMARK                            x       y       z     vdW  Elec       q    Type
REMARK                         _______ _______ _______ _____ _____    ______ ____
ROOT
ATOM      1  N   UNL     1       1.267  -2.605  -0.145  0.00  0.00    -0.310 N 
ATOM      2  C   UNL     1       0.893  -3.859   0.294  0.00  0.00    +0.221 A 
ATOM      3  N   UNL     1       1.466  -4.385   1.371  0.00  0.00    -0.181 NA
ATOM      4  C   UNL     1       1.103  -5.593   1.791  0.00  0.00    +0.223 A 
ATOM      5  N   UNL     1       0.166  -6.271   1.131  0.00  0.00    -0.184 NA
ATOM      6  C   UNL     1      -0.403  -5.744   0.060  0.00  0.00    +0.229 A 
ATOM      7  N   UNL     1      -0.046  -4.540  -0.358  0.00  0.00    -0.184 NA
ATOM      8 CL   UNL     1      -1.623  -6.632  -0.798  0.00  0.00    -0.041 Cl
ATOM      9  N   UNL     1       1.696  -6.143   2.909  0.00  0.00    -0.306 N 
ATOM     10  C   UNL     1       2.727  -5.396   3.633  0.00  0.00    +0.132 C 
ATOM     11  C   UNL     1       1.295  -7.474   3.370  0.00  0.00    +0.132 C 
ATOM     12  H   UNL     1       1.952  -2.110   0.331  0.00  0.00    +0.149 HD
ENDROOT
BRANCH   1  18
ATOM     13  C   UNL     1       0.718  -0.497  -1.257  0.00  0.00    +0.009 C 
ATOM     14  C   UNL     1       2.187  -0.073  -1.207  0.00  0.00    +0.005 C 
ATOM     15  C   UNL     1       2.904  -0.566  -2.466  0.00  0.00    +0.000 C 
ATOM     16  C   UNL     1       2.816  -2.092  -2.538  0.00  0.00    +0.002 C 
ATOM     17  C   UNL     1       1.347  -2.517  -2.587  0.00  0.00    +0.022 C 
ATOM     18  C   UNL     1       0.630  -2.023  -1.329  0.00  0.00    +0.076 C 
BRANCH  13  20
ATOM     19  C   UNL     1      -0.019   1.526   0.010  0.00  0.00    +0.004 C 
ATOM     20  C   UNL     1       0.002  -0.004   0.002  0.00  0.00    +0.002 C 
ENDBRANCH  13  20
ENDBRANCH   1  18
TORSDOF 2
