REMARK  Name = ZINC20478608
REMARK  3 active torsions:
REMARK  status: ('A' for Active; 'I' for Inactive)
REMARK    1  A    between atoms: C_3  and  N_8
REMARK    2  A    between atoms: N_8  and  C_9
REMARK    3  A    between atoms: C_17  and  O_19
REMARK                            x       y       z     vdW  Elec       q    Type
REMARK                         _______ _______ _______ _____ _____    ______ ____
ROOT
ATOM      1  C   UNL     1       0.002  -0.004   0.002  0.00  0.00    +0.142 C 
ATOM      2  C   UNL     1      -0.019   1.543   0.011  0.00  0.00    +0.256 C 
ATOM      3  O   UNL     1       1.379   1.880  -0.001  0.00  0.00    -0.489 OA
ATOM      4  C   UNL     1       2.087   0.877   0.586  0.00  0.00    +0.129 A 
ATOM      5  C   UNL     1       1.354  -0.303   0.622  0.00  0.00    +0.018 A 
ATOM      6  C   UNL     1       1.891  -1.453   1.156  0.00  0.00    +0.013 A 
ATOM      7  C   UNL     1       3.174  -1.444   1.672  0.00  0.00    +0.046 A 
ATOM      8  C   UNL     1       3.916  -0.271   1.649  0.00  0.00    +0.120 A 
ATOM      9  C   UNL     1       3.377   0.884   1.109  0.00  0.00    +0.091 A 
ENDROOT
BRANCH   1  10
ATOM     10  N   UNL     1      -1.083  -0.547   0.823  0.00  0.00    -0.334 N 
ATOM     11  H   UNL     1      -0.900  -0.802   1.877  0.00  0.00    +0.147 HD
BRANCH  10  14
ATOM     12  C   UNL     1      -3.836  -0.611  -1.611  0.00  0.00    +0.003 A 
ATOM     13  C   UNL     1      -2.584  -0.414  -1.062  0.00  0.00    +0.023 A 
ATOM     14  C   UNL     1      -2.350  -0.741   0.267  0.00  0.00    +0.029 A 
ATOM     15  C   UNL     1      -3.380  -1.255   1.045  0.00  0.00    +0.037 A 
ATOM     16  C   UNL     1      -4.631  -1.446   0.492  0.00  0.00    +0.015 A 
ATOM     17  C   UNL     1      -4.859  -1.124  -0.835  0.00  0.00    +0.014 A 
ATOM     18  I   UNL     1      -6.185  -2.222   1.662  0.00  0.00    -0.044 I 
ENDBRANCH  10  14
ENDBRANCH   1  10
BRANCH   8  19
ATOM     19  O   UNL     1       5.176  -0.257   2.158  0.00  0.00    -0.507 OA
ATOM     20  H   UNL     1       5.765   0.671   2.141  0.00  0.00    +0.292 HD
ENDBRANCH   8  19
TORSDOF 3
