REMARK  Name = ZINC09123840
REMARK  4 active torsions:
REMARK  status: ('A' for Active; 'I' for Inactive)
REMARK    1  A    between atoms: C_1  and  C_2
REMARK    2  A    between atoms: C_12  and  C_29
REMARK    3  A    between atoms: C_29  and  C_31
REMARK    4  A    between atoms: C_35  and  N_37
REMARK                            x       y       z     vdW  Elec       q    Type
REMARK                         _______ _______ _______ _____ _____    ______ ____
ROOT
ATOM      1  C   UNL     1      -1.327   2.128   0.048  0.00  0.00    +0.045 C 
ATOM      2  C   UNL     1      -0.013   1.390   0.032  0.00  0.00    -0.029 A 
ATOM      3  C   UNL     1       0.001   0.011   0.025  0.00  0.00    +0.005 A 
ATOM      4  C   UNL     1       1.201  -0.675   0.003  0.00  0.00    +0.001 A 
ATOM      5  C   UNL     1       2.395   0.025  -0.011  0.00  0.00    +0.004 A 
ATOM      6  C   UNL     1       2.385   1.401  -0.004  0.00  0.00    -0.027 A 
ATOM      7  C   UNL     1       1.184   2.103   0.018  0.00  0.00    +0.039 A 
ATOM      8  N   UNL     1       1.427   3.477   0.023  0.00  0.00    -0.286 N 
ATOM      9  C   UNL     1       2.743   3.760   0.006  0.00  0.00    +0.212 C 
ATOM     10  O   UNL     1       3.244   4.865   0.009  0.00  0.00    -0.277 OA
ATOM     11  C   UNL     1       3.474   2.441  -0.015  0.00  0.00    +0.052 C 
ATOM     12  C   UNL     1       4.331   2.321  -1.281  0.00  0.00    +0.080 C 
ATOM     13  C   UNL     1       5.766   2.133  -0.778  0.00  0.00    +0.071 C 
ATOM     14  C   UNL     1       6.740   2.960  -1.569  0.00  0.00    -0.012 A 
ATOM     15  C   UNL     1       6.861   4.311  -1.807  0.00  0.00    +0.006 A 
ATOM     16  C   UNL     1       7.893   4.784  -2.598  0.00  0.00    +0.000 A 
ATOM     17  C   UNL     1       8.800   3.898  -3.149  0.00  0.00    +0.002 A 
ATOM     18  C   UNL     1       8.682   2.544  -2.913  0.00  0.00    +0.023 A 
ATOM     19  C   UNL     1       7.647   2.059  -2.117  0.00  0.00    +0.038 A 
ATOM     20  N   UNL     1       7.322   0.755  -1.737  0.00  0.00    -0.285 N 
ATOM     21  C   UNL     1       6.230   0.713  -0.949  0.00  0.00    +0.227 C 
ATOM     22  O   UNL     1       5.721  -0.278  -0.470  0.00  0.00    -0.275 OA
ATOM     23  C   UNL     1       5.747   2.545   0.698  0.00  0.00    -0.046 C 
ATOM     24  C   UNL     1       4.328   0.914   1.665  0.00  0.00    -0.076 C 
ATOM     25  C   UNL     1       5.683   0.786   2.405  0.00  0.00    -0.020 C 
ATOM     26  C   UNL     1       6.647   1.592   1.505  0.00  0.00    -0.016 C 
ATOM     27  H   UNL     1       0.729   4.150   0.038  0.00  0.00    +0.155 HD
ATOM     28  H   UNL     1       7.824  -0.029  -2.009  0.00  0.00    +0.155 HD
ATOM     29  N   UNL     1       4.384   2.294   1.139  0.00  0.00    +0.395 N 
ATOM     30  H   UNL     1       4.120   2.959   1.875  0.00  0.00    -0.079 HD
ENDROOT
BRANCH  12  31
ATOM     31  C   UNL     1       4.226   3.578  -2.105  0.00  0.00    +0.167 C 
ATOM     32  O   UNL     1       4.475   4.654  -1.604  0.00  0.00    -0.292 OA
BRANCH  31  33
ATOM     33  C   UNL     1       3.822   3.501  -3.518  0.00  0.00    +0.020 A 
ATOM     34  C   UNL     1       3.539   2.261  -4.101  0.00  0.00    +0.011 A 
ATOM     35  C   UNL     1       3.157   2.197  -5.425  0.00  0.00    +0.003 A 
ATOM     36  C   UNL     1       3.062   3.354  -6.178  0.00  0.00    +0.033 A 
ATOM     37  C   UNL     1       3.344   4.584  -5.609  0.00  0.00    +0.127 A 
ATOM     38  C   UNL     1       3.723   4.665  -4.286  0.00  0.00    +0.044 A 
BRANCH  37  39
ATOM     39  N   UNL     1       3.239   5.816  -6.424  0.00  0.00    +0.056 N 
ATOM     40  O   UNL     1       3.487   6.899  -5.925  0.00  0.00    -0.126 OA
ATOM     41  O   UNL     1       2.904   5.746  -7.593  0.00  0.00    -0.126 OA
ENDBRANCH  37  39
ENDBRANCH  31  33
ENDBRANCH  12  31
TORSDOF 3
