REMARK  Name = ZINC36595314
REMARK  13 active torsions:
REMARK  status: ('A' for Active; 'I' for Inactive)
REMARK    1  A    between atoms: C_1  and  C_2
REMARK    2  A    between atoms: C_2  and  C_3
REMARK    3  A    between atoms: C_3  and  C_4
REMARK    4  A    between atoms: C_4  and  N_5
REMARK    5  A    between atoms: C_6  and  C_8
REMARK    6  A    between atoms: C_8  and  C_10
REMARK    7  A    between atoms: C_8  and  N_17
REMARK    8  A    between atoms: C_15  and  O_16
REMARK    9  A    between atoms: N_17  and  C_18
REMARK   10  A    between atoms: C_18  and  C_19
REMARK   11  A    between atoms: C_22  and  C_24
REMARK   12  A    between atoms: C_25  and  C_27
REMARK   13  A    between atoms: C_32  and  O_33
REMARK                            x       y       z     vdW  Elec       q    Type
REMARK                         _______ _______ _______ _____ _____    ______ ____
ROOT
ATOM      1  N   UNL     1      -3.760  -6.571  -1.653  0.00  0.00    -0.274 N 
ATOM      2  C   UNL     1      -3.273  -6.802  -0.418  0.00  0.00    +0.251 C 
ATOM      3  O   UNL     1      -2.373  -6.111   0.020  0.00  0.00    -0.270 OA
ENDROOT
BRANCH   2   4
ATOM      4  C   UNL     1      -3.830  -7.894   0.403  0.00  0.00    +0.078 A 
ATOM      5  C   UNL     1      -5.118  -7.786   0.934  0.00  0.00    +0.017 A 
ATOM      6  C   UNL     1      -5.633  -8.809   1.700  0.00  0.00    +0.001 A 
ATOM      7  C   UNL     1      -4.880  -9.946   1.945  0.00  0.00    +0.004 A 
ATOM      8  C   UNL     1      -3.606 -10.065   1.426  0.00  0.00    +0.046 A 
ATOM      9  C   UNL     1      -3.074  -9.047   0.649  0.00  0.00    +0.129 A 
BRANCH   9  10
ATOM     10  O   UNL     1      -1.825  -9.166   0.134  0.00  0.00    -0.506 OA
ATOM     11  H   UNL     1      -1.127  -8.825   0.711  0.00  0.00    +0.292 HD
ENDBRANCH   9  10
ENDBRANCH   2   4
BRANCH   1  12
ATOM     12  C   UNL     1      -5.057  -7.128  -2.045  0.00  0.00    +0.196 C 
BRANCH  12  13
ATOM     13  C   UNL     1      -6.065  -6.014  -2.172  0.00  0.00    +0.023 A 
ATOM     14  C   UNL     1      -5.744  -4.740  -1.746  0.00  0.00    +0.009 A 
ATOM     15  C   UNL     1      -6.668  -3.718  -1.861  0.00  0.00    +0.001 A 
ATOM     16  C   UNL     1      -7.915  -3.968  -2.404  0.00  0.00    +0.004 A 
ATOM     17  C   UNL     1      -8.240  -5.240  -2.832  0.00  0.00    +0.046 A 
ATOM     18  C   UNL     1      -7.313  -6.267  -2.722  0.00  0.00    +0.122 A 
BRANCH  18  19
ATOM     19  O   UNL     1      -7.628  -7.518  -3.147  0.00  0.00    -0.506 OA
ATOM     20  H   UNL     1      -8.034  -8.074  -2.468  0.00  0.00    +0.292 HD
ENDBRANCH  18  19
ENDBRANCH  12  13
BRANCH  12  22
ATOM     21  N   UNL     1      -5.713  -8.888  -3.654  0.00  0.00    -0.313 N 
ATOM     22  C   UNL     1      -4.921  -7.835  -3.368  0.00  0.00    +0.238 C 
ATOM     23  O   UNL     1      -4.099  -7.458  -4.176  0.00  0.00    -0.273 OA
ATOM     24  H   UNL     1      -6.370  -9.190  -3.008  0.00  0.00    +0.149 HD
BRANCH  21  25
ATOM     25  C   UNL     1      -5.580  -9.576  -4.941  0.00  0.00    +0.104 C 
BRANCH  25  26
ATOM     26  C   UNL     1      -6.588 -10.725  -5.011  0.00  0.00    +0.018 C 
BRANCH  26  28
ATOM     27  C   UNL     1      -7.457 -12.593  -6.425  0.00  0.00    +0.004 C 
ATOM     28  C   UNL     1      -6.449 -11.444  -6.355  0.00  0.00    -0.002 C 
ENDBRANCH  26  28
ENDBRANCH  25  26
ENDBRANCH  21  25
ENDBRANCH  12  22
ENDBRANCH   1  12
BRANCH   1  29
ATOM     29  C   UNL     1      -2.993  -5.762  -2.604  0.00  0.00    +0.183 C 
BRANCH  29  30
ATOM     30  C   UNL     1      -1.630  -6.374  -2.799  0.00  0.00    +0.122 A 
ATOM     31  C   UNL     1      -1.150  -6.876  -3.951  0.00  0.00    +0.046 A 
ATOM     32  C   UNL     1       0.157  -7.342  -3.682  0.00  0.00    +0.045 A 
ATOM     33  C   UNL     1       0.398  -7.098  -2.381  0.00  0.00    +0.102 A 
ATOM     34  O   UNL     1      -0.686  -6.506  -1.853  0.00  0.00    -0.463 OA
ATOM     35  C   UNL     1       1.670  -7.427  -1.643  0.00  0.00    +0.086 C 
ENDBRANCH  29  30
ENDBRANCH   1  29
TORSDOF 11
