REMARK  Name = ZINC03866081
REMARK  4 active torsions:
REMARK  status: ('A' for Active; 'I' for Inactive)
REMARK    1  A    between atoms: C_7  and  S_18
REMARK    2  A    between atoms: N_9  and  C_10
REMARK    3  A    between atoms: C_10  and  C_11
REMARK    4  A    between atoms: S_18  and  C_19
REMARK                            x       y       z     vdW  Elec       q    Type
REMARK                         _______ _______ _______ _____ _____    ______ ____
ROOT
ATOM      1  C   UNL     1      -6.374  -0.914   0.230  0.00  0.00    +0.001 A 
ATOM      2  C   UNL     1      -6.969   0.340   0.177  0.00  0.00    +0.002 A 
ATOM      3  C   UNL     1      -6.202   1.478   0.071  0.00  0.00    +0.026 A 
ATOM      4  C   UNL     1      -4.815   1.374   0.016  0.00  0.00    +0.050 A 
ATOM      5  C   UNL     1      -4.217   0.102   0.063  0.00  0.00    +0.014 A 
ATOM      6  C   UNL     1      -5.014  -1.038   0.176  0.00  0.00    +0.011 A 
ATOM      7  C   UNL     1      -2.769   0.329  -0.010  0.00  0.00    +0.040 A 
ATOM      8  C   UNL     1      -2.584   1.659  -0.102  0.00  0.00    +0.102 A 
ATOM      9  N   UNL     1      -3.801   2.299  -0.088  0.00  0.00    -0.341 N 
ENDROOT
BRANCH   9  10
ATOM     10  C   UNL     1      -3.990   3.749  -0.172  0.00  0.00    +0.157 C 
BRANCH  10  11
ATOM     11  C   UNL     1      -4.114   4.321   1.217  0.00  0.00    -0.028 A 
ATOM     12  C   UNL     1      -5.358   4.431   1.810  0.00  0.00    +0.006 A 
ATOM     13  C   UNL     1      -5.473   4.950   3.086  0.00  0.00    +0.015 A 
ATOM     14  C   UNL     1      -4.343   5.370   3.765  0.00  0.00    +0.018 A 
ATOM     15  C   UNL     1      -3.099   5.264   3.170  0.00  0.00    +0.015 A 
ATOM     16  C   UNL     1      -2.985   4.740   1.896  0.00  0.00    +0.006 A 
ATOM     17 BR   UNL     1      -4.499   6.086   5.508  0.00  0.00    -0.050 Br
ENDBRANCH  10  11
ENDBRANCH   9  10
BRANCH   7  18
ATOM     18  S   UNL     1      -1.512  -0.906   0.012  0.00  0.00    -0.055 S 
BRANCH  18  19
ATOM     19  C   UNL     1      -1.519  -1.320   1.724  0.00  0.00    +0.127 C 
ATOM     20  N   UNL     1      -2.267  -0.647   2.555  0.00  0.00    -0.382 N 
ATOM     21  N   UNL     1      -0.735  -2.352   2.186  0.00  0.00    -0.339 N 
ATOM     22  H   UNL     1      -2.272  -0.906   3.624  0.00  0.00    +0.158 HD
ATOM     23  H   UNL     1      -0.739  -2.611   3.255  0.00  0.00    +0.144 HD
ATOM     24  H   UNL     1      -0.103  -2.919   1.486  0.00  0.00    +0.144 HD
ATOM     25  H   UNL     1      -2.894   0.178   2.186  0.00  0.00    +0.158 HD
ENDBRANCH  18  19
ENDBRANCH   7  18
TORSDOF 4
