REMARK  Name = ZINC55036455
REMARK  9 active torsions:
REMARK  status: ('A' for Active; 'I' for Inactive)
REMARK    1  A    between atoms: C_1  and  C_2
REMARK    2  A    between atoms: C_7  and  N_8
REMARK    3  A    between atoms: C_10  and  C_13
REMARK    4  A    between atoms: C_13  and  N_14
REMARK    5  A    between atoms: N_14  and  C_15
REMARK    6  A    between atoms: C_15  and  C_16
REMARK    7  A    between atoms: C_17  and  C_29
REMARK    8  A    between atoms: N_18  and  C_25
REMARK    9  A    between atoms: C_25  and  C_26
REMARK                            x       y       z     vdW  Elec       q    Type
REMARK                         _______ _______ _______ _____ _____    ______ ____
ROOT
ATOM      1  C   UNL     1       2.206   0.659   7.690  0.00  0.00    -0.044 C 
ENDROOT
BRANCH   1   2
ATOM      2  C   UNL     1       3.675   0.778   8.007  0.00  0.00    -0.036 A 
ATOM      3  C   UNL     1       4.554  -0.231   8.105  0.00  0.00    +0.019 A 
ATOM      4  N   UNL     1       5.796   0.259   8.406  0.00  0.00    -0.335 N 
ATOM      5  C   UNL     1       5.744   1.631   8.512  0.00  0.00    +0.050 A 
ATOM      6  C   UNL     1       4.414   2.017   8.260  0.00  0.00    +0.001 A 
ATOM      7  C   UNL     1       4.062   3.367   8.294  0.00  0.00    +0.010 A 
ATOM      8  C   UNL     1       5.013   4.309   8.568  0.00  0.00    +0.001 A 
ATOM      9  C   UNL     1       6.327   3.935   8.813  0.00  0.00    +0.002 A 
ATOM     10  C   UNL     1       6.694   2.607   8.794  0.00  0.00    +0.026 A 
ATOM     11  C   UNL     1       4.224  -1.689   7.913  0.00  0.00    +0.064 C 
BRANCH   4  12
ATOM     12  C   UNL     1       7.001  -0.554   8.589  0.00  0.00    +0.217 C 
BRANCH  12  13
ATOM     13  C   UNL     1       7.703  -0.715   7.265  0.00  0.00    +0.230 C 
ATOM     14  O   UNL     1       7.243  -0.201   6.268  0.00  0.00    -0.274 OA
ATOM     15  N   UNL     1       8.843  -1.430   7.190  0.00  0.00    -0.328 N 
ATOM     16  H   UNL     1       9.211  -1.841   7.988  0.00  0.00    +0.145 HD
ATOM     17  H   UNL     1       9.296  -1.534   6.338  0.00  0.00    +0.145 HD
ENDBRANCH  12  13
ENDBRANCH   4  12
ENDBRANCH   1   2
BRANCH   1  18
ATOM     18  N   UNL     1       2.012   0.729   6.236  0.00  0.00    +0.384 N 
ATOM     19  H   UNL     1       2.514  -0.027   5.793  0.00  0.00    -0.085 HD
ATOM     20  H   UNL     1       2.360   1.611   5.891  0.00  0.00    -0.085 HD
BRANCH  18  21
ATOM     21  C   UNL     1       0.580   0.613   5.927  0.00  0.00    -0.043 C 
BRANCH  21  24
ATOM     22  N   UNL     1       0.168   0.117   2.336  0.00  0.00    -0.239 N 
ATOM     23  C   UNL     1       0.378  -0.366   3.581  0.00  0.00    +0.116 A 
ATOM     24  C   UNL     1       0.381   0.684   4.435  0.00  0.00    -0.027 A 
ATOM     25  C   UNL     1       0.167   1.848   3.687  0.00  0.00    +0.136 A 
ATOM     26  N   UNL     1       0.045   1.510   2.429  0.00  0.00    -0.175 NA
BRANCH  22  33
ATOM     27  C   UNL     1      -1.976   0.632   0.536  0.00  0.00    +0.046 C 
ATOM     28  C   UNL     1      -0.936  -0.421   0.254  0.00  0.00    -0.025 A 
ATOM     29  C   UNL     1      -1.003  -1.166  -0.908  0.00  0.00    +0.005 A 
ATOM     30  C   UNL     1      -0.049  -2.132  -1.167  0.00  0.00    +0.000 A 
ATOM     31  C   UNL     1       0.975  -2.357  -0.266  0.00  0.00    +0.002 A 
ATOM     32  C   UNL     1       1.048  -1.616   0.898  0.00  0.00    +0.028 A 
ATOM     33  C   UNL     1       0.094  -0.640   1.158  0.00  0.00    +0.068 A 
ENDBRANCH  22  33
ENDBRANCH  21  24
ENDBRANCH  18  21
ENDBRANCH   1  18
TORSDOF 7
