REMARK  Name = ZINC26922817
REMARK  11 active torsions:
REMARK  status: ('A' for Active; 'I' for Inactive)
REMARK    1  A    between atoms: C_1  and  C_2
REMARK    2  A    between atoms: C_2  and  C_3
REMARK    3  A    between atoms: C_3  and  C_22
REMARK    4  A    between atoms: N_6  and  N_10
REMARK    5  A    between atoms: C_11  and  C_13
REMARK    6  A    between atoms: C_13  and  N_14
REMARK    7  A    between atoms: N_14  and  C_15
REMARK    8  A    between atoms: N_14  and  C_19
REMARK    9  A    between atoms: C_15  and  C_16
REMARK   10  A    between atoms: C_19  and  C_20
REMARK   11  A    between atoms: C_19  and  C_21
REMARK                            x       y       z     vdW  Elec       q    Type
REMARK                         _______ _______ _______ _____ _____    ______ ____
ROOT
ATOM      1  C   UNL     1      -3.641   1.098   7.386  0.00  0.00    +0.139 C 
ATOM      2  C   UNL     1      -3.095   0.288   6.227  0.00  0.00    +0.268 C 
ATOM      3  O   UNL     1      -3.510  -0.775   5.817  0.00  0.00    -0.271 OA
ATOM      4  N   UNL     1      -2.054   0.995   5.747  0.00  0.00    -0.137 N 
ATOM      5  C   UNL     1      -1.865   2.126   6.437  0.00  0.00    +0.327 C 
ATOM      6  O   UNL     1      -0.984   2.926   6.193  0.00  0.00    -0.251 OA
ATOM      7  N   UNL     1      -2.761   2.279   7.428  0.00  0.00    -0.280 N 
ATOM      8  H   UNL     1      -2.926   3.061   8.184  0.00  0.00    +0.152 HD
ENDROOT
BRANCH   1   9
ATOM      9  C   UNL     1      -3.546   0.316   8.671  0.00  0.00    -0.015 A 
ATOM     10  C   UNL     1      -4.601  -0.481   9.074  0.00  0.00    +0.006 A 
ATOM     11  C   UNL     1      -4.512  -1.202  10.251  0.00  0.00    +0.000 A 
ATOM     12  C   UNL     1      -3.372  -1.118  11.028  0.00  0.00    +0.000 A 
ATOM     13  C   UNL     1      -2.320  -0.316  10.627  0.00  0.00    +0.000 A 
ATOM     14  C   UNL     1      -2.407   0.401   9.449  0.00  0.00    +0.006 A 
ENDBRANCH   1   9
BRANCH   4  15
ATOM     15  N   UNL     1      -1.263   0.594   4.662  0.00  0.00    -0.225 N 
ATOM     16  C   UNL     1      -1.409   1.192   3.463  0.00  0.00    +0.213 C 
ATOM     17  O   UNL     1      -2.225   2.078   3.323  0.00  0.00    -0.276 OA
ATOM     18  H   UNL     1      -0.522  -0.210   4.789  0.00  0.00    +0.173 HD
BRANCH  16  19
ATOM     19  C   UNL     1      -0.559   0.760   2.297  0.00  0.00    +0.021 C 
BRANCH  19  20
ATOM     20  N   UNL     1      -0.842   1.619   1.139  0.00  0.00    +0.393 N 
ATOM     21  H   UNL     1      -0.927   2.655   1.500  0.00  0.00    -0.080 HD
BRANCH  20  22
ATOM     22  C   UNL     1       0.257   1.570   0.166  0.00  0.00    -0.074 C 
ATOM     23  C   UNL     1       1.504   2.219   0.769  0.00  0.00    -0.013 C 
ATOM     24  C   UNL     1       0.561   0.112  -0.186  0.00  0.00    -0.013 C 
ENDBRANCH  20  22
BRANCH  20  25
ATOM     25  C   UNL     1      -2.118   1.254   0.512  0.00  0.00    +0.019 C 
BRANCH  25  26
ATOM     26  C   UNL     1      -2.495   2.299  -0.507  0.00  0.00    +0.194 C 
ATOM     27  O   UNL     1      -1.771   3.254  -0.692  0.00  0.00    -0.278 OA
ATOM     28  N   UNL     1      -3.636   2.171  -1.212  0.00  0.00    -0.331 N 
ATOM     29  H   UNL     1      -3.911   2.934  -1.956  0.00  0.00    +0.145 HD
ATOM     30  H   UNL     1      -4.293   1.305  -1.045  0.00  0.00    +0.145 HD
ENDBRANCH  25  26
ENDBRANCH  20  25
ENDBRANCH  19  20
ENDBRANCH  16  19
ENDBRANCH   4  15
BRANCH   1  32
ATOM     31  C   UNL     1      -5.149   2.350   5.837  0.00  0.00    +0.007 C 
ATOM     32  C   UNL     1      -5.089   1.514   7.117  0.00  0.00    +0.037 C 
ENDBRANCH   1  32
TORSDOF 8
