REMARK  Name = ZINC65507414
REMARK  5 active torsions:
REMARK  status: ('A' for Active; 'I' for Inactive)
REMARK    1  A    between atoms: C_1  and  C_2
REMARK    2  A    between atoms: C_2  and  C_3
REMARK    3  A    between atoms: C_2  and  N_14
REMARK    4  A    between atoms: N_17  and  C_18
REMARK    5  A    between atoms: C_20  and  C_21
REMARK                            x       y       z     vdW  Elec       q    Type
REMARK                         _______ _______ _______ _____ _____    ______ ____
ROOT
ATOM      1  N   UNL     1      -1.372  -0.511   0.012  0.00  0.00    -0.293 N 
ATOM      2  C   UNL     1      -2.029  -0.655   1.181  0.00  0.00    +0.300 C 
ATOM      3  O   UNL     1      -1.480  -0.364   2.226  0.00  0.00    -0.253 OA
ATOM      4  N   UNL     1      -3.293  -1.122   1.190  0.00  0.00    -0.296 N 
ATOM      5  H   UNL     1      -1.810  -0.743  -0.822  0.00  0.00    +0.151 HD
ATOM      6  H   UNL     1      -3.731  -1.354   0.356  0.00  0.00    +0.151 HD
ENDROOT
BRANCH   4   7
ATOM      7  C   UNL     1      -4.006  -1.278   2.460  0.00  0.00    +0.082 C 
ATOM      8  C   UNL     1      -5.462  -0.810   2.515  0.00  0.00    +0.033 C 
ATOM      9  C   UNL     1      -5.139  -2.306   2.512  0.00  0.00    +0.041 C 
BRANCH   9  10
ATOM     10  C   UNL     1      -5.435  -3.079   1.253  0.00  0.00    -0.040 A 
ATOM     11  C   UNL     1      -5.803  -2.409   0.101  0.00  0.00    +0.004 A 
ATOM     12  C   UNL     1      -6.075  -3.118  -1.054  0.00  0.00    +0.003 A 
ATOM     13  C   UNL     1      -5.980  -4.497  -1.059  0.00  0.00    +0.038 A 
ATOM     14  C   UNL     1      -5.611  -5.168   0.094  0.00  0.00    +0.124 A 
ATOM     15  C   UNL     1      -5.333  -4.457   1.249  0.00  0.00    +0.042 A 
ATOM     16  F   UNL     1      -5.518  -6.516   0.090  0.00  0.00    -0.205 F 
ENDBRANCH   9  10
ENDBRANCH   4   7
BRANCH   1  18
ATOM     17  C   UNL     1      -0.019   1.526   0.010  0.00  0.00    +0.033 C 
ATOM     18  C   UNL     1       0.002  -0.004   0.002  0.00  0.00    +0.102 C 
BRANCH  18  19
ATOM     19  C   UNL     1       0.707  -0.490  -1.238  0.00  0.00    -0.025 A 
ATOM     20  C   UNL     1       0.035  -0.521  -2.446  0.00  0.00    +0.009 A 
ATOM     21  C   UNL     1       0.676  -0.964  -3.589  0.00  0.00    +0.048 A 
ATOM     22  C   UNL     1       1.994  -1.379  -3.523  0.00  0.00    +0.142 A 
ATOM     23  C   UNL     1       2.672  -1.350  -2.305  0.00  0.00    +0.076 A 
ATOM     24  C   UNL     1       2.027  -0.899  -1.165  0.00  0.00    +0.032 A 
ATOM     25  N   UNL     1       4.006  -1.776  -2.252  0.00  0.00    -0.280 N 
ATOM     26  C   UNL     1       4.699  -1.903  -3.404  0.00  0.00    +0.255 C 
ATOM     27  O   UNL     1       5.846  -2.299  -3.385  0.00  0.00    -0.272 OA
ATOM     28  C   UNL     1       4.043  -1.549  -4.714  0.00  0.00    +0.325 C 
ATOM     29  O   UNL     1       2.640  -1.818  -4.637  0.00  0.00    -0.481 OA
ATOM     30  H   UNL     1       4.426  -1.976  -1.400  0.00  0.00    +0.155 HD
ENDBRANCH  18  19
ENDBRANCH   1  18
TORSDOF 4
