REMARK  Name = ZINC30960756
REMARK  11 active torsions:
REMARK  status: ('A' for Active; 'I' for Inactive)
REMARK    1  A    between atoms: C_1  and  C_2
REMARK    2  A    between atoms: C_2  and  C_3
REMARK    3  A    between atoms: C_2  and  C_4
REMARK    4  A    between atoms: C_4  and  C_6
REMARK    5  A    between atoms: C_4  and  N_22
REMARK    6  A    between atoms: N_8  and  N_9
REMARK    7  A    between atoms: C_10  and  C_11
REMARK    8  A    between atoms: C_16  and  O_17
REMARK    9  A    between atoms: O_17  and  C_18
REMARK   10  A    between atoms: C_18  and  C_19
REMARK   11  A    between atoms: C_23  and  C_25
REMARK                            x       y       z     vdW  Elec       q    Type
REMARK                         _______ _______ _______ _____ _____    ______ ____
ROOT
ATOM      1  C   UNL     1       6.082   5.002   2.730  0.00  0.00    +0.253 C 
ATOM      2  O   UNL     1       5.088   5.579   3.119  0.00  0.00    -0.272 OA
ATOM      3  N   UNL     1       7.249   5.669   2.623  0.00  0.00    -0.205 N 
ATOM      4  H   UNL     1       8.154   5.142   2.286  0.00  0.00    +0.177 HD
ENDROOT
BRANCH   3   5
ATOM      5  N   UNL     1       7.309   7.032   2.940  0.00  0.00    -0.188 NA
ATOM      6  C   UNL     1       8.440   7.664   2.876  0.00  0.00    +0.142 C 
BRANCH   6   7
ATOM      7  C   UNL     1       9.581   7.063   2.163  0.00  0.00    +0.036 A 
ATOM      8  C   UNL     1       9.362   6.229   1.064  0.00  0.00    +0.013 A 
ATOM      9  C   UNL     1      10.434   5.673   0.398  0.00  0.00    +0.001 A 
ATOM     10  C   UNL     1      11.727   5.930   0.820  0.00  0.00    +0.004 A 
ATOM     11  C   UNL     1      11.957   6.750   1.908  0.00  0.00    +0.046 A 
ATOM     12  C   UNL     1      10.892   7.321   2.586  0.00  0.00    +0.130 A 
BRANCH  12  13
ATOM     13  O   UNL     1      11.117   8.127   3.656  0.00  0.00    -0.482 OA
BRANCH  13  14
ATOM     14  C   UNL     1      12.479   8.432   3.962  0.00  0.00    +0.324 C 
BRANCH  14  15
ATOM     15  C   UNL     1      12.538   9.254   5.224  0.00  0.00    +0.248 C 
ATOM     16  O   UNL     1      11.512   9.628   5.752  0.00  0.00    -0.272 OA
ATOM     17  N   UNL     1      13.730   9.575   5.765  0.00  0.00    -0.327 N 
ATOM     18  H   UNL     1      13.773  10.175   6.686  0.00  0.00    +0.145 HD
ATOM     19  H   UNL     1      14.660   9.236   5.285  0.00  0.00    +0.145 HD
ENDBRANCH  14  15
ENDBRANCH  13  14
ENDBRANCH  12  13
ENDBRANCH   6   7
ENDBRANCH   3   5
BRANCH   1  20
ATOM     20  C   UNL     1       6.013   3.541   2.367  0.00  0.00    +0.163 C 
BRANCH  20  21
ATOM     21  N   UNL     1       5.042   2.868   3.233  0.00  0.00    -0.300 N 
ATOM     22  C   UNL     1       5.181   1.557   3.510  0.00  0.00    +0.245 C 
ATOM     23  O   UNL     1       6.054   0.910   2.965  0.00  0.00    -0.270 OA
ATOM     24  H   UNL     1       4.199   3.434   3.657  0.00  0.00    +0.150 HD
BRANCH  22  25
ATOM     25  C   UNL     1       4.273   0.905   4.476  0.00  0.00    +0.038 A 
ATOM     26  C   UNL     1       3.269   1.646   5.104  0.00  0.00    +0.014 A 
ATOM     27  C   UNL     1       2.425   1.033   6.005  0.00  0.00    +0.022 A 
ATOM     28  C   UNL     1       2.570  -0.315   6.289  0.00  0.00    +0.059 A 
ATOM     29  C   UNL     1       3.563  -1.056   5.669  0.00  0.00    +0.060 A 
ATOM     30  C   UNL     1       4.415  -0.453   4.765  0.00  0.00    +0.034 A 
ATOM     31 CL   UNL     1       3.738  -2.745   6.029  0.00  0.00    -0.082 Cl
ATOM     32 CL   UNL     1       1.503  -1.079   7.425  0.00  0.00    -0.082 Cl
ENDBRANCH  22  25
ENDBRANCH  20  21
BRANCH  20  34
ATOM     33  C   UNL     1       4.154   3.933   0.744  0.00  0.00    +0.009 C 
ATOM     34  C   UNL     1       5.579   3.399   0.906  0.00  0.00    +0.012 C 
ATOM     35  C   UNL     1       6.528   4.198   0.012  0.00  0.00    +0.009 C 
ENDBRANCH  20  34
ENDBRANCH   1  20
TORSDOF 9
