REMARK  Name = ZINC04718511
REMARK  7 active torsions:
REMARK  status: ('A' for Active; 'I' for Inactive)
REMARK    1  A    between atoms: C_1  and  C_2
REMARK    2  A    between atoms: C_2  and  C_3
REMARK    3  A    between atoms: C_2  and  C_4
REMARK    4  A    between atoms: C_2  and  C_5
REMARK    5  A    between atoms: C_12  and  N_24
REMARK    6  A    between atoms: C_13  and  C_22
REMARK    7  A    between atoms: C_14  and  C_16
REMARK                            x       y       z     vdW  Elec       q    Type
REMARK                         _______ _______ _______ _____ _____    ______ ____
ROOT
ATOM      1  C   UNL     1       1.133  -0.393  -1.433  0.00  0.00    +0.049 A 
ATOM      2  C   UNL     1       1.133  -1.695  -1.756  0.00  0.00    +0.050 A 
ATOM      3  C   UNL     1       1.848  -1.847  -2.964  0.00  0.00    +0.245 A 
ATOM      4  N   UNL     1       2.258  -0.671  -3.340  0.00  0.00    -0.135 NA
ATOM      5  N   UNL     1       1.817   0.269  -2.395  0.00  0.00    -0.277 N 
ATOM      6  H   UNL     1       1.976   1.225  -2.426  0.00  0.00    +0.189 HD
ATOM      7  O   UNL     1       2.020  -3.062  -3.552  0.00  0.00    -0.421 OA
ATOM      8  C   UNL     1       1.263  -4.082  -3.101  0.00  0.00    +0.201 C 
ATOM      9  C   UNL     1       0.548  -4.057  -1.957  0.00  0.00    +0.098 C 
ATOM     10  C   UNL     1       0.515  -2.865  -1.034  0.00  0.00    +0.103 C 
ENDROOT
BRANCH  10  11
ATOM     11  C   UNL     1       1.304  -3.167   0.214  0.00  0.00    -0.016 A 
ATOM     12  C   UNL     1       0.652  -3.416   1.413  0.00  0.00    +0.007 A 
ATOM     13  C   UNL     1       1.419  -3.689   2.536  0.00  0.00    +0.020 A 
ATOM     14  C   UNL     1       2.796  -3.704   2.424  0.00  0.00    +0.111 A 
ATOM     15  N   UNL     1       3.381  -3.462   1.267  0.00  0.00    -0.263 NA
ATOM     16  C   UNL     1       2.684  -3.204   0.178  0.00  0.00    +0.115 A 
ENDBRANCH  10  11
BRANCH   1  18
ATOM     17  C   UNL     1       0.610   1.746  -0.292  0.00  0.00    +0.017 C 
ATOM     18  C   UNL     1       0.483   0.223  -0.221  0.00  0.00    +0.004 C 
ATOM     19  C   UNL     1       1.175  -0.288   1.044  0.00  0.00    +0.017 C 
ATOM     20  C   UNL     1      -0.997  -0.164  -0.184  0.00  0.00    +0.017 C 
ENDBRANCH   1  18
BRANCH   8  21
ATOM     21  N   UNL     1       1.218  -5.226  -3.858  0.00  0.00    -0.328 N 
ATOM     22  H   UNL     1       1.719  -5.280  -4.686  0.00  0.00    +0.145 HD
ATOM     23  H   UNL     1       0.683  -5.981  -3.564  0.00  0.00    +0.145 HD
ENDBRANCH   8  21
BRANCH   9  24
ATOM     24  C   UNL     1      -0.216  -5.215  -1.604  0.00  0.00    +0.101 C 
ATOM     25  N   UNL     1      -0.822  -6.134  -1.324  0.00  0.00    -0.191 NA
ENDBRANCH   9  24
TORSDOF 4
