REMARK  Name = ZINC06557808
REMARK  3 active torsions:
REMARK  status: ('A' for Active; 'I' for Inactive)
REMARK    1  A    between atoms: C_8  and  C_12
REMARK    2  A    between atoms: C_15  and  C_18
REMARK    3  A    between atoms: C_22  and  N_24
REMARK                            x       y       z     vdW  Elec       q    Type
REMARK                         _______ _______ _______ _____ _____    ______ ____
ROOT
ATOM      1  C   UNL     1       2.641  -4.211   0.265  0.00  0.00    +0.189 A 
ATOM      2  N   UNL     1       3.779  -4.873   0.506  0.00  0.00    -0.207 NA
ATOM      3  H   UNL     1       1.794  -7.210   0.059  0.00  0.00    +0.191 HD
ATOM      4  C   UNL     1       3.558  -6.170   0.448  0.00  0.00    +0.157 A 
ATOM      5  N   UNL     1       2.248  -6.359   0.164  0.00  0.00    -0.258 N 
ATOM      6  N   UNL     1       1.676  -5.082   0.055  0.00  0.00    -0.152 NA
ENDROOT
BRANCH   1  14
ATOM      7  C   UNL     1      -0.017   1.362   0.009  0.00  0.00    +0.001 A 
ATOM      8  C   UNL     1       1.169   2.084   0.002  0.00  0.00    +0.004 A 
ATOM      9  C   UNL     1       2.387   1.436  -0.015  0.00  0.00    +0.047 A 
ATOM     10  C   UNL     1       2.430   0.049  -0.024  0.00  0.00    +0.139 A 
ATOM     11  C   UNL     1       1.227  -0.681  -0.013  0.00  0.00    +0.018 A 
ATOM     12  C   UNL     1       0.002  -0.004   0.002  0.00  0.00    +0.011 A 
ATOM     13  C   UNL     1       1.277  -2.145  -0.014  0.00  0.00    +0.030 A 
ATOM     14  C   UNL     1       2.491  -2.737   0.244  0.00  0.00    +0.106 A 
ATOM     15  C   UNL     1       3.636  -1.846   0.499  0.00  0.00    +0.348 A 
ATOM     16  O   UNL     1       4.575  -2.214   1.180  0.00  0.00    -0.244 OA
ATOM     17  O   UNL     1       3.614  -0.608  -0.045  0.00  0.00    -0.422 OA
ENDBRANCH   1  14
BRANCH   4  18
ATOM     18  C   UNL     1       4.565  -7.233   0.658  0.00  0.00    +0.021 A 
ATOM     19  C   UNL     1       4.197  -8.575   0.562  0.00  0.00    +0.012 A 
ATOM     20  C   UNL     1       5.141  -9.562   0.758  0.00  0.00    +0.003 A 
ATOM     21  C   UNL     1       6.450  -9.224   1.050  0.00  0.00    +0.033 A 
ATOM     22  C   UNL     1       6.821  -7.895   1.147  0.00  0.00    +0.127 A 
ATOM     23  C   UNL     1       5.888  -6.898   0.947  0.00  0.00    +0.044 A 
BRANCH  22  24
ATOM     24  N   UNL     1       8.224  -7.541   1.461  0.00  0.00    +0.056 N 
ATOM     25  O   UNL     1       9.043  -8.413   1.632  0.00  0.00    -0.126 OA
ATOM     26  O   UNL     1       8.550  -6.380   1.546  0.00  0.00    -0.126 OA
ENDBRANCH  22  24
ENDBRANCH   4  18
TORSDOF 3
