REMARK  Name = ZINC40333678
REMARK  4 active torsions:
REMARK  status: ('A' for Active; 'I' for Inactive)
REMARK    1  A    between atoms: C_2  and  N_22
REMARK    2  A    between atoms: C_6  and  C_7
REMARK    3  A    between atoms: N_12  and  C_15
REMARK    4  A    between atoms: C_15  and  C_16
REMARK                            x       y       z     vdW  Elec       q    Type
REMARK                         _______ _______ _______ _____ _____    ______ ____
ROOT
ATOM      1  C   UNL     1      -1.718  -1.109  -0.387  0.00  0.00    +0.263 C 
ATOM      2  O   UNL     1      -2.894  -0.798  -0.375  0.00  0.00    -0.268 OA
ATOM      3  N   UNL     1      -1.365  -2.410  -0.390  0.00  0.00    -0.294 N 
ATOM      4  C   UNL     1       0.042  -2.811  -0.233  0.00  0.00    +0.123 C 
ATOM      5  C   UNL     1       0.128  -3.859   0.881  0.00  0.00    +0.103 C 
ATOM      6  N   UNL     1      -0.803  -4.957   0.589  0.00  0.00    -0.297 NA
ATOM      7  C   UNL     1      -2.195  -4.488   0.577  0.00  0.00    +0.103 C 
ATOM      8  C   UNL     1      -2.377  -3.466  -0.544  0.00  0.00    +0.123 C 
ENDROOT
BRANCH   1  14
ATOM      9  C   UNL     1      -0.823   1.222   0.070  0.00  0.00    +0.055 A 
ATOM     10  C   UNL     1       0.404   1.869  -0.133  0.00  0.00    +0.043 A 
ATOM     11  C   UNL     1       1.252   0.977  -0.710  0.00  0.00    +0.106 A 
ATOM     12  N   UNL     1       0.599  -0.204  -0.874  0.00  0.00    -0.355 N 
ATOM     13  H   UNL     1       0.976  -1.009  -1.263  0.00  0.00    +0.166 HD
ATOM     14  C   UNL     1      -0.684  -0.069  -0.397  0.00  0.00    +0.104 A 
BRANCH  10  15
ATOM     15  N   UNL     1       0.704   3.203   0.200  0.00  0.00    -0.357 N 
ATOM     16  H   UNL     1       0.027   3.764   0.611  0.00  0.00    +0.142 HD
ATOM     17  H   UNL     1       1.587   3.561   0.019  0.00  0.00    +0.142 HD
ENDBRANCH  10  15
ENDBRANCH   1  14
BRANCH   6  18
ATOM     18  C   UNL     1      -0.628  -6.063   1.541  0.00  0.00    +0.116 C 
BRANCH  18  19
ATOM     19  C   UNL     1       0.635  -6.848   1.184  0.00  0.00    +0.132 C 
ATOM     20  C   UNL     1       0.812  -8.049   2.147  0.00  0.00    +0.035 C 
ATOM     21  C   UNL     1       1.669  -9.005   1.272  0.00  0.00    +0.031 C 
ATOM     22  C   UNL     1       1.132  -8.720  -0.147  0.00  0.00    +0.160 C 
ATOM     23  O   UNL     1       0.509  -7.429  -0.124  0.00  0.00    -0.375 OA
ENDBRANCH  18  19
ENDBRANCH   6  18
TORSDOF 4
