REMARK  Name = ZINC05785168
REMARK  9 active torsions:
REMARK  status: ('A' for Active; 'I' for Inactive)
REMARK    1  A    between atoms: C_1  and  C_2
REMARK    2  A    between atoms: C_3  and  C_20
REMARK    3  A    between atoms: C_4  and  C_10
REMARK    4  A    between atoms: C_13  and  C_16
REMARK    5  A    between atoms: C_16  and  C_17
REMARK    6  A    between atoms: C_16  and  C_18
REMARK    7  A    between atoms: C_16  and  C_19
REMARK    8  A    between atoms: N_22  and  C_23
REMARK    9  A    between atoms: N_22  and  C_24
REMARK                            x       y       z     vdW  Elec       q    Type
REMARK                         _______ _______ _______ _____ _____    ______ ____
ROOT
ATOM      1  C   UNL     1       1.226  -2.315   0.194  0.00  0.00    +0.061 C 
ATOM      2  C   UNL     1       1.240  -0.815   0.051  0.00  0.00    +0.019 C 
ATOM      3  C   UNL     1       2.417  -0.156   0.089  0.00  0.00    +0.056 C 
ATOM      4  C   UNL     1       2.387   1.351  -0.059  0.00  0.00    +0.142 C 
ATOM      5  N   UNL     1       1.066   1.978  -0.235  0.00  0.00    -0.288 N 
ATOM      6  C   UNL     1      -0.023   1.185  -0.253  0.00  0.00    +0.304 C 
ATOM      7  O   UNL     1      -1.117   1.692  -0.404  0.00  0.00    -0.252 OA
ATOM      8  N   UNL     1       0.062  -0.144  -0.117  0.00  0.00    -0.273 N 
ATOM      9  H   UNL     1       0.982   2.939  -0.336  0.00  0.00    +0.151 HD
ATOM     10  H   UNL     1      -0.759  -0.660  -0.139  0.00  0.00    +0.156 HD
ENDROOT
BRANCH   4  11
ATOM     11  C   UNL     1       3.027   1.952   1.167  0.00  0.00    -0.023 A 
ATOM     12  C   UNL     1       2.278   2.149   2.311  0.00  0.00    +0.006 A 
ATOM     13  C   UNL     1       2.866   2.694   3.437  0.00  0.00    +0.004 A 
ATOM     14  C   UNL     1       4.201   3.053   3.414  0.00  0.00    -0.042 A 
ATOM     15  C   UNL     1       4.949   2.861   2.268  0.00  0.00    +0.004 A 
ATOM     16  C   UNL     1       4.362   2.310   1.144  0.00  0.00    +0.006 A 
BRANCH  14  17
ATOM     17  C   UNL     1       4.841   3.652   4.640  0.00  0.00    -0.013 C 
ATOM     18  C   UNL     1       5.372   5.048   4.307  0.00  0.00    +0.015 C 
ATOM     19  C   UNL     1       3.803   3.755   5.759  0.00  0.00    +0.015 C 
ATOM     20  C   UNL     1       5.998   2.763   5.098  0.00  0.00    +0.015 C 
ENDBRANCH  14  17
ENDBRANCH   4  11
BRANCH   3  21
ATOM     21  C   UNL     1       3.640  -0.851   0.263  0.00  0.00    +0.246 C 
ATOM     22  O   UNL     1       4.198  -0.841   1.345  0.00  0.00    -0.270 OA
ATOM     23  N   UNL     1       4.186  -1.522  -0.771  0.00  0.00    -0.304 N 
ATOM     24  C   UNL     1       5.380  -2.345  -0.561  0.00  0.00    +0.132 C 
ATOM     25  C   UNL     1       3.585  -1.429  -2.104  0.00  0.00    +0.132 C 
ENDBRANCH   3  21
TORSDOF 3
