REMARK  Name = ZINC05022872
REMARK  5 active torsions:
REMARK  status: ('A' for Active; 'I' for Inactive)
REMARK    1  A    between atoms: N_5  and  C1*_10
REMARK    2  A    between atoms: C2*_12  and  O2*_22
REMARK    3  A    between atoms: C3*_14  and  O3*_21
REMARK    4  A    between atoms: C4*_16  and  C5*_19
REMARK    5  A    between atoms: C5*_19  and  O5*_20
REMARK                            x       y       z     vdW  Elec       q    Type
REMARK                         _______ _______ _______ _____ _____    ______ ____
ROOT
ATOM      1  C1* UNL     1       1.423   1.645  -0.003  0.00  0.00    +0.252 C 
ATOM      2  C2* UNL     1      -0.013   1.086   0.008  0.00  0.00    +0.195 C 
ATOM      3  C3* UNL     1      -0.640   1.626  -1.300  0.00  0.00    +0.178 C 
ATOM      4  C4* UNL     1       0.275   2.835  -1.624  0.00  0.00    +0.177 C 
ATOM      5  O4* UNL     1       1.587   2.380  -1.227  0.00  0.00    -0.346 OA
ENDROOT
BRANCH   1  10
ATOM      6  C   UNL     1       4.331  -1.849   1.801  0.00  0.00    +0.125 A 
ATOM      7  C   UNL     1       3.736  -1.070   0.810  0.00  0.00    +0.050 A 
ATOM      8  C   UNL     1       3.814  -1.011  -0.650  0.00  0.00    +0.042 A 
ATOM      9  C   UNL     1       2.982  -0.032  -1.044  0.00  0.00    +0.105 A 
ATOM     10  N   UNL     1       2.387   0.543   0.049  0.00  0.00    -0.302 N 
ATOM     11  C   UNL     1       2.821  -0.067   1.194  0.00  0.00    +0.147 A 
ATOM     12  N   UNL     1       2.563   0.095   2.488  0.00  0.00    -0.218 NA
ATOM     13  C   UNL     1       3.151  -0.666   3.386  0.00  0.00    +0.223 A 
ATOM     14  N   UNL     1       4.013  -1.614   3.063  0.00  0.00    -0.243 NA
ATOM     15  I   UNL     1       4.989  -2.225  -1.888  0.00  0.00    -0.042 I 
ENDBRANCH   1  10
BRANCH   3  16
ATOM     16  O3* UNL     1      -0.578   0.647  -2.338  0.00  0.00    -0.386 OA
ATOM     17  H3* UNL     1      -0.958   0.939  -3.178  0.00  0.00    +0.210 HD
ENDBRANCH   3  16
BRANCH   2  18
ATOM     18  O2* UNL     1      -0.729   1.569   1.146  0.00  0.00    -0.385 OA
ATOM     19  H2* UNL     1      -1.648   1.271   1.188  0.00  0.00    +0.210 HD
ENDBRANCH   2  18
BRANCH   4  20
ATOM     20  C5* UNL     1       0.243   3.149  -3.121  0.00  0.00    +0.190 C 
BRANCH  20  21
ATOM     21  O5* UNL     1       1.084   4.272  -3.390  0.00  0.00    -0.392 OA
ATOM     22  H5* UNL     1       1.113   4.528  -4.322  0.00  0.00    +0.210 HD
ENDBRANCH  20  21
ENDBRANCH   4  20
TORSDOF 5
