REMARK  Name = ZINC13642697
REMARK  6 active torsions:
REMARK  status: ('A' for Active; 'I' for Inactive)
REMARK    1  A    between atoms: C_1  and  C_2
REMARK    2  A    between atoms: C_2  and  N_3
REMARK    3  A    between atoms: C_14  and  C_16
REMARK    4  A    between atoms: C_29  and  C_32
REMARK    5  A    between atoms: N_34  and  C_35
REMARK    6  A    between atoms: C_35  and  C_36
REMARK                            x       y       z     vdW  Elec       q    Type
REMARK                         _______ _______ _______ _____ _____    ______ ____
ROOT
ATOM      1  C   UNL     1      -5.296  -1.363   0.022  0.00  0.00    +0.105 C 
ATOM      2  C   UNL     1      -5.864  -1.648  -1.370  0.00  0.00    +0.029 C 
ATOM      3  C   UNL     1      -4.726  -1.423  -2.405  0.00  0.00    +0.033 C 
ATOM      4  C   UNL     1      -4.735   0.077  -2.623  0.00  0.00    -0.030 C 
ATOM      5  C   UNL     1      -5.890   0.585  -2.274  0.00  0.00    -0.023 C 
ATOM      6  C   UNL     1      -6.814  -0.498  -1.767  0.00  0.00    +0.049 C 
ATOM      7  C   UNL     1      -7.605  -0.008  -0.590  0.00  0.00    -0.019 A 
ATOM      8  C   UNL     1      -8.610   0.920  -0.822  0.00  0.00    +0.006 A 
ATOM      9  C   UNL     1      -9.375   1.418   0.217  0.00  0.00    +0.001 A 
ATOM     10  C   UNL     1      -9.149   0.996   1.509  0.00  0.00    +0.015 A 
ATOM     11  C   UNL     1      -8.144   0.062   1.763  0.00  0.00    +0.058 A 
ATOM     12  C   UNL     1      -7.367  -0.444   0.702  0.00  0.00    +0.044 A 
ATOM     13  N   UNL     1      -6.382  -1.372   1.002  0.00  0.00    -0.336 N 
ATOM     14  H   UNL     1      -6.774  -2.296   1.099  0.00  0.00    +0.147 HD
ENDROOT
BRANCH   1  26
ATOM     15  N   UNL     1      -3.005   3.799   0.127  0.00  0.00    -0.340 N 
ATOM     16  C   UNL     1      -4.020   4.533   0.713  0.00  0.00    +0.050 A 
ATOM     17  C   UNL     1      -4.130   5.880   1.046  0.00  0.00    +0.026 A 
ATOM     18  C   UNL     1      -5.283   6.354   1.635  0.00  0.00    +0.002 A 
ATOM     19  C   UNL     1      -6.341   5.499   1.901  0.00  0.00    +0.001 A 
ATOM     20  C   UNL     1      -6.252   4.162   1.578  0.00  0.00    +0.010 A 
ATOM     21  C   UNL     1      -5.090   3.669   0.988  0.00  0.00    +0.008 A 
ATOM     22  C   UNL     1      -4.673   2.330   0.533  0.00  0.00    +0.008 A 
ATOM     23  C   UNL     1      -3.376   2.470   0.018  0.00  0.00    +0.050 A 
ATOM     24  C   UNL     1      -2.720   1.353  -0.490  0.00  0.00    +0.027 A 
ATOM     25  C   UNL     1      -3.345   0.124  -0.484  0.00  0.00    +0.007 A 
ATOM     26  C   UNL     1      -4.627  -0.013   0.025  0.00  0.00    -0.026 A 
ATOM     27  C   UNL     1      -5.292   1.082   0.533  0.00  0.00    +0.016 A 
BRANCH  15  29
ATOM     28  C   UNL     1      -0.715   4.258   0.853  0.00  0.00    +0.027 C 
ATOM     29  C   UNL     1      -1.715   4.346  -0.302  0.00  0.00    +0.119 C 
ENDBRANCH  15  29
ENDBRANCH   1  26
BRANCH  11  30
ATOM     30  C   UNL     1      -7.895  -0.395   3.143  0.00  0.00    +0.246 C 
ATOM     31  O   UNL     1      -7.019  -1.209   3.365  0.00  0.00    -0.270 OA
ATOM     32  N   UNL     1      -8.638   0.089   4.157  0.00  0.00    -0.308 N 
ATOM     33  H   UNL     1      -9.337   0.738   3.981  0.00  0.00    +0.149 HD
BRANCH  32  34
ATOM     34  C   UNL     1      -8.391  -0.366   5.528  0.00  0.00    +0.131 C 
BRANCH  34  35
ATOM     35  C   UNL     1      -9.349   0.322   6.466  0.00  0.00    -0.016 C 
ATOM     36  C   UNL     1     -10.114  -0.388   7.258  0.00  0.00    +0.005 C 
ENDBRANCH  34  35
ENDBRANCH  32  34
ENDBRANCH  11  30
TORSDOF 5
