REMARK  Name = ZINC67056075
REMARK  5 active torsions:
REMARK  status: ('A' for Active; 'I' for Inactive)
REMARK    1  A    between atoms: C_2  and  C_3
REMARK    2  A    between atoms: C_7  and  N_9
REMARK    3  A    between atoms: C_10  and  C_12
REMARK    4  A    between atoms: C_12  and  N_13
REMARK    5  A    between atoms: C_14  and  C_16
REMARK                            x       y       z     vdW  Elec       q    Type
REMARK                         _______ _______ _______ _____ _____    ______ ____
ROOT
ATOM      1  N   UNL     1       3.320   7.800  -0.317  0.00  0.00    -0.303 N 
ATOM      2  C   UNL     1       4.327   8.688  -0.437  0.00  0.00    +0.248 C 
ATOM      3  O   UNL     1       5.478   8.301  -0.475  0.00  0.00    -0.270 OA
ATOM      4  H   UNL     1       2.401   8.109  -0.287  0.00  0.00    +0.150 HD
ENDROOT
BRANCH   2   5
ATOM      5  C   UNL     1       4.030  10.131  -0.523  0.00  0.00    +0.082 A 
ATOM      6  C   UNL     1       2.708  10.580  -0.474  0.00  0.00    +0.017 A 
ATOM      7  C   UNL     1       2.436  11.928  -0.555  0.00  0.00    +0.005 A 
ATOM      8  C   UNL     1       3.467  12.843  -0.687  0.00  0.00    +0.049 A 
ATOM      9  C   UNL     1       4.784  12.414  -0.738  0.00  0.00    +0.163 A 
ATOM     10  C   UNL     1       5.074  11.057  -0.648  0.00  0.00    +0.174 A 
ATOM     11  O   UNL     1       6.358  10.616  -0.683  0.00  0.00    -0.484 OA
ATOM     12  C   UNL     1       7.340  11.530  -1.182  0.00  0.00    +0.270 C 
ATOM     13  C   UNL     1       7.103  12.896  -0.523  0.00  0.00    +0.270 C 
ATOM     14  O   UNL     1       5.781  13.331  -0.871  0.00  0.00    -0.485 OA
ENDBRANCH   2   5
BRANCH   1  15
ATOM     15  C   UNL     1       3.614   6.367  -0.232  0.00  0.00    +0.200 C 
BRANCH  15  17
ATOM     16  N   UNL     1       2.350   4.253  -0.009  0.00  0.00    -0.284 N 
ATOM     17  C   UNL     1       2.325   5.597  -0.104  0.00  0.00    +0.234 C 
ATOM     18  O   UNL     1       1.266   6.186  -0.085  0.00  0.00    -0.274 OA
ATOM     19  H   UNL     1       3.199   3.787   0.053  0.00  0.00    +0.155 HD
BRANCH  16  24
ATOM     20  C   UNL     1      -1.127   3.258  -0.721  0.00  0.00    +0.026 A 
ATOM     21  C   UNL     1      -1.216   2.082   0.025  0.00  0.00    +0.017 A 
ATOM     22  C   UNL     1      -0.128   1.639   0.749  0.00  0.00    +0.003 A 
ATOM     23  C   UNL     1       1.054   2.357   0.738  0.00  0.00    +0.023 A 
ATOM     24  C   UNL     1       1.153   3.529  -0.002  0.00  0.00    +0.035 A 
ATOM     25  C   UNL     1       0.066   3.979  -0.736  0.00  0.00    +0.040 A 
BRANCH  20  27
ATOM     26  C   UNL     1      -3.180   4.098  -2.089  0.00  0.00    +0.009 C 
ATOM     27  C   UNL     1      -2.255   3.720  -1.472  0.00  0.00    -0.070 C 
ENDBRANCH  20  27
ENDBRANCH  16  24
ENDBRANCH  15  17
ENDBRANCH   1  15
TORSDOF 5
