REMARK  Name = ZINC03204833
REMARK  8 active torsions:
REMARK  status: ('A' for Active; 'I' for Inactive)
REMARK    1  A    between atoms: C_1  and  C_2
REMARK    2  A    between atoms: C_2  and  O_3
REMARK    3  A    between atoms: O_3  and  C_4
REMARK    4  A    between atoms: C_9  and  C_15
REMARK    5  A    between atoms: C_18  and  C_27
REMARK    6  A    between atoms: C_21  and  C_23
REMARK    7  A    between atoms: C_23  and  C_24
REMARK    8  A    between atoms: C_24  and  C_25
REMARK                            x       y       z     vdW  Elec       q    Type
REMARK                         _______ _______ _______ _____ _____    ______ ____
ROOT
ATOM      1  C   UNL     1       1.392   1.823  -0.001  0.00  0.00    +0.154 C 
ATOM      2  C   UNL     1       2.184   0.535  -0.016  0.00  0.00    +0.027 C 
ATOM      3  C   UNL     1       1.310  -0.468  -0.013  0.00  0.00    +0.050 C 
ATOM      4  N   UNL     1       0.002  -0.004   0.002  0.00  0.00    -0.261 N 
ATOM      5  N   UNL     1      -0.017   1.397   0.010  0.00  0.00    -0.211 N 
ATOM      6  C   UNL     1      -1.105   2.193   0.019  0.00  0.00    +0.233 C 
ATOM      7  O   UNL     1      -0.974   3.399   0.025  0.00  0.00    -0.274 OA
ATOM      8  H   UNL     1      -0.786  -0.569   0.006  0.00  0.00    +0.170 HD
ENDROOT
BRANCH   1  14
ATOM      9  C   UNL     1       1.832   4.862  -5.665  0.00  0.00    +0.123 A 
ATOM     10  C   UNL     1       0.706   4.034  -5.691  0.00  0.00    +0.046 A 
ATOM     11  C   UNL     1       0.376   3.272  -4.614  0.00  0.00    +0.013 A 
ATOM     12  C   UNL     1       1.175   3.316  -3.459  0.00  0.00    +0.001 A 
ATOM     13  C   UNL     1       0.865   2.542  -2.326  0.00  0.00    +0.018 A 
ATOM     14  C   UNL     1       1.686   2.634  -1.238  0.00  0.00    +0.016 A 
ATOM     15  C   UNL     1       2.792   3.482  -1.270  0.00  0.00    +0.135 A 
ATOM     16  N   UNL     1       3.080   4.199  -2.330  0.00  0.00    -0.235 NA
ATOM     17  C   UNL     1       2.318   4.154  -3.428  0.00  0.00    +0.076 A 
ATOM     18  C   UNL     1       2.629   4.928  -4.558  0.00  0.00    +0.074 A 
ATOM     19 CL   UNL     1       3.817   3.588   0.127  0.00  0.00    -0.062 Cl
BRANCH   9  20
ATOM     20  O   UNL     1       2.137   5.613  -6.755  0.00  0.00    -0.492 OA
BRANCH  20  22
ATOM     21  C   UNL     1       1.767   6.414  -9.005  0.00  0.00    +0.048 C 
ATOM     22  C   UNL     1       1.266   5.502  -7.883  0.00  0.00    +0.225 C 
ENDBRANCH  20  22
ENDBRANCH   9  20
ENDBRANCH   1  14
BRANCH   3  23
ATOM     23  C   UNL     1       1.686  -1.901  -0.024  0.00  0.00    -0.003 A 
ATOM     24  C   UNL     1       3.030  -2.272  -0.044  0.00  0.00    +0.010 A 
ATOM     25  C   UNL     1       3.374  -3.608  -0.049  0.00  0.00    +0.001 A 
ATOM     26  C   UNL     1       2.389  -4.579  -0.045  0.00  0.00    +0.000 A 
ATOM     27  C   UNL     1       1.054  -4.217  -0.031  0.00  0.00    +0.001 A 
ATOM     28  C   UNL     1       0.698  -2.884  -0.021  0.00  0.00    +0.010 A 
ENDBRANCH   3  23
BRANCH   6  29
ATOM     29  C   UNL     1      -2.483   1.585   0.024  0.00  0.00    +0.109 C 
BRANCH  29  30
ATOM     30  C   UNL     1      -3.532   2.699   0.035  0.00  0.00    +0.134 C 
BRANCH  30  31
ATOM     31  C   UNL     1      -4.911   2.091   0.039  0.00  0.00    +0.356 C 
ATOM     32  O   UNL     1      -5.041   0.889   0.033  0.00  0.00    -0.246 OA
ATOM     33  O   UNL     1      -5.994   2.883   0.049  0.00  0.00    -0.246 OA
ENDBRANCH  30  31
ENDBRANCH  29  30
ENDBRANCH   6  29
TORSDOF 7
