REMARK  Name = ZINC13040669
REMARK  6 active torsions:
REMARK  status: ('A' for Active; 'I' for Inactive)
REMARK    1  A    between atoms: C_1  and  C_2
REMARK    2  A    between atoms: C_2  and  C_3
REMARK    3  A    between atoms: N_11  and  C_15
REMARK    4  A    between atoms: C_15  and  C_16
REMARK    5  A    between atoms: C_16  and  N_18
REMARK    6  A    between atoms: N_20  and  C_28
REMARK                            x       y       z     vdW  Elec       q    Type
REMARK                         _______ _______ _______ _____ _____    ______ ____
ROOT
ATOM      1  C   UNL     1       0.718  -0.497  -1.257  0.00  0.00    -0.011 C 
ATOM      2  C   UNL     1      -0.089  -0.096  -2.493  0.00  0.00    +0.006 C 
ATOM      3  C   UNL     1       0.635  -0.580  -3.752  0.00  0.00    +0.035 C 
ATOM      4  C   UNL     1       0.795  -2.095  -3.700  0.00  0.00    +0.113 C 
ATOM      5  C   UNL     1       1.577  -2.512  -2.459  0.00  0.00    +0.035 C 
ATOM      6  C   UNL     1       0.849  -2.021  -1.205  0.00  0.00    +0.006 C 
ATOM      7  C   UNL     1      -0.556  -2.771  -3.725  0.00  0.00    +0.247 C 
ATOM      8  O   UNL     1      -1.447  -2.660  -2.910  0.00  0.00    -0.273 OA
ATOM      9  N   UNL     1      -0.562  -3.523  -4.845  0.00  0.00    -0.215 N 
ATOM     10  C   UNL     1       0.589  -3.413  -5.519  0.00  0.00    +0.310 C 
ATOM     11  O   UNL     1       0.821  -3.996  -6.559  0.00  0.00    -0.252 OA
ATOM     12  N   UNL     1       1.461  -2.583  -4.914  0.00  0.00    -0.285 N 
ATOM     13  H   UNL     1       2.352  -2.354  -5.221  0.00  0.00    +0.151 HD
ENDROOT
BRANCH   1  15
ATOM     14  C   UNL     1      -0.019   1.526   0.010  0.00  0.00    +0.004 C 
ATOM     15  C   UNL     1       0.002  -0.004   0.002  0.00  0.00    -0.000 C 
ENDBRANCH   1  15
BRANCH   9  16
ATOM     16  C   UNL     1      -1.689  -4.357  -5.270  0.00  0.00    +0.215 C 
BRANCH  16  17
ATOM     17  C   UNL     1      -2.610  -3.550  -6.148  0.00  0.00    +0.256 C 
ATOM     18  O   UNL     1      -2.349  -2.388  -6.395  0.00  0.00    -0.272 OA
BRANCH  17  19
ATOM     19  N   UNL     1      -3.705  -4.107  -6.652  0.00  0.00    -0.155 NA
ATOM     20  C   UNL     1      -4.519  -3.393  -7.427  0.00  0.00    +0.166 A 
ATOM     21  N   UNL     1      -5.673  -3.796  -8.017  0.00  0.00    -0.324 N 
ATOM     22  C   UNL     1      -6.393  -2.910  -8.795  0.00  0.00    +0.057 A 
ATOM     23  C   UNL     1      -7.595  -3.114  -9.487  0.00  0.00    +0.027 A 
ATOM     24  C   UNL     1      -8.164  -2.096 -10.217  0.00  0.00    +0.002 A 
ATOM     25  C   UNL     1      -7.571  -0.847 -10.290  0.00  0.00    +0.001 A 
ATOM     26  C   UNL     1      -6.384  -0.620  -9.616  0.00  0.00    +0.017 A 
ATOM     27  C   UNL     1      -5.814  -1.636  -8.886  0.00  0.00    +0.039 A 
ATOM     28  S   UNL     1      -4.352  -1.786  -7.892  0.00  0.00    -0.052 S 
ATOM     29  C   UNL     1      -6.153  -5.167  -7.829  0.00  0.00    +0.151 C 
ENDBRANCH  17  19
ENDBRANCH  16  17
ENDBRANCH   9  16
TORSDOF 4
