REMARK  Name = ZINC35087256
REMARK  12 active torsions:
REMARK  status: ('A' for Active; 'I' for Inactive)
REMARK    1  A    between atoms: C_1  and  C_2
REMARK    2  A    between atoms: C_2  and  N_3
REMARK    3  A    between atoms: N_3  and  C_4
REMARK    4  A    between atoms: N_3  and  C_6
REMARK    5  A    between atoms: C_4  and  C_5
REMARK    6  A    between atoms: C_6  and  C_7
REMARK    7  A    between atoms: C_7  and  S_8
REMARK    8  A    between atoms: S_8  and  C_9
REMARK    9  A    between atoms: C_10  and  C_25
REMARK   10  A    between atoms: C_11  and  C_18
REMARK   11  A    between atoms: C_12  and  C_16
REMARK   12  A    between atoms: C_13  and  N_15
REMARK                            x       y       z     vdW  Elec       q    Type
REMARK                         _______ _______ _______ _____ _____    ______ ____
ROOT
ATOM      1  C   UNL     1       3.380  -3.975  -1.850  0.00  0.00    +0.117 A 
ATOM      2  C   UNL     1       3.874  -5.223  -2.274  0.00  0.00    +0.093 A 
ATOM      3  C   UNL     1       4.644  -5.287  -3.452  0.00  0.00    +0.023 A 
ATOM      4  C   UNL     1       4.884  -4.088  -4.153  0.00  0.00    +0.100 A 
ATOM      5  C   UNL     1       4.349  -2.887  -3.652  0.00  0.00    +0.136 A 
ATOM      6  N   UNL     1       3.626  -2.874  -2.544  0.00  0.00    -0.224 NA
ENDROOT
BRANCH   3   7
ATOM      7  C   UNL     1       5.186  -6.575  -3.938  0.00  0.00    -0.014 A 
ATOM      8  C   UNL     1       6.135  -7.266  -3.183  0.00  0.00    +0.008 A 
ATOM      9  C   UNL     1       6.636  -8.466  -3.642  0.00  0.00    +0.002 A 
ATOM     10  C   UNL     1       6.202  -8.986  -4.848  0.00  0.00    +0.020 A 
ATOM     11  C   UNL     1       5.261  -8.306  -5.602  0.00  0.00    +0.042 A 
ATOM     12  C   UNL     1       4.746  -7.106  -5.151  0.00  0.00    +0.028 A 
ATOM     13 CL   UNL     1       4.721  -8.966  -7.115  0.00  0.00    -0.084 Cl
ENDBRANCH   3   7
BRANCH   5  14
ATOM     14  N   UNL     1       4.577  -1.706  -4.330  0.00  0.00    -0.342 N 
ATOM     15  H   UNL     1       5.103  -1.708  -5.145  0.00  0.00    +0.144 HD
ATOM     16  H   UNL     1       4.211  -0.874  -3.991  0.00  0.00    +0.144 HD
ENDBRANCH   5  14
BRANCH   4  17
ATOM     17  C   UNL     1       5.661  -4.092  -5.356  0.00  0.00    +0.103 C 
ATOM     18  N   UNL     1       6.277  -4.096  -6.310  0.00  0.00    -0.191 NA
ENDBRANCH   4  17
BRANCH   2  19
ATOM     19  C   UNL     1       3.599  -6.409  -1.520  0.00  0.00    +0.102 C 
ATOM     20  N   UNL     1       3.380  -7.349  -0.922  0.00  0.00    -0.191 NA
ENDBRANCH   2  19
BRANCH   1  21
ATOM     21  S   UNL     1       2.415  -3.877  -0.379  0.00  0.00    -0.106 S 
BRANCH  21  22
ATOM     22  C   UNL     1       2.004  -2.115  -0.240  0.00  0.00    +0.057 C 
BRANCH  22  23
ATOM     23  C   UNL     1       1.156  -1.887   1.013  0.00  0.00    -0.068 C 
BRANCH  23  24
ATOM     24  N   UNL     1       0.823  -0.461   1.126  0.00  0.00    +0.380 N 
ATOM     25  H   UNL     1       1.671   0.085   1.109  0.00  0.00    -0.082 HD
BRANCH  24  27
ATOM     26  C   UNL     1      -0.264   1.445   0.037  0.00  0.00    -0.017 C 
ATOM     27  C   UNL     1      -0.034  -0.067  -0.001  0.00  0.00    -0.082 C 
ENDBRANCH  24  27
BRANCH  24  28
ATOM     28  C   UNL     1       0.111  -0.222   2.389  0.00  0.00    -0.082 C 
ATOM     29  C   UNL     1       1.053  -0.495   3.563  0.00  0.00    -0.017 C 
ENDBRANCH  24  28
ENDBRANCH  23  24
ENDBRANCH  22  23
ENDBRANCH  21  22
ENDBRANCH   1  21
TORSDOF 10
