REMARK  Name = ZINC66286068
REMARK  7 active torsions:
REMARK  status: ('A' for Active; 'I' for Inactive)
REMARK    1  A    between atoms: C_1  and  C_2
REMARK    2  A    between atoms: C_2  and  C_4
REMARK    3  A    between atoms: C_2  and  N_14
REMARK    4  A    between atoms: C_7  and  O_10
REMARK    5  A    between atoms: O_10  and  C_11
REMARK    6  A    between atoms: C_15  and  C_17
REMARK    7  A    between atoms: C_19  and  N_27
REMARK                            x       y       z     vdW  Elec       q    Type
REMARK                         _______ _______ _______ _____ _____    ______ ____
ROOT
ATOM      1  N   UNL     1       0.711  -0.489   1.189  0.00  0.00    -0.305 N 
ATOM      2  C   UNL     1       0.051  -0.633   2.355  0.00  0.00    +0.248 C 
ATOM      3  O   UNL     1      -1.132  -0.361   2.423  0.00  0.00    -0.270 OA
ATOM      4  H   UNL     1       1.654  -0.707   1.135  0.00  0.00    +0.150 HD
ENDROOT
BRANCH   2   5
ATOM      5  C   UNL     1       0.765  -1.122   3.551  0.00  0.00    +0.084 A 
ATOM      6  C   UNL     1       2.126  -1.431   3.478  0.00  0.00    +0.049 A 
ATOM      7  C   UNL     1       2.788  -1.887   4.596  0.00  0.00    +0.131 A 
ATOM      8  C   UNL     1       2.112  -2.043   5.795  0.00  0.00    +0.082 A 
ATOM      9  C   UNL     1       0.762  -1.741   5.883  0.00  0.00    +0.165 A 
ATOM     10  C   UNL     1       0.082  -1.273   4.765  0.00  0.00    +0.174 A 
ATOM     11  O   UNL     1      -1.238  -0.960   4.832  0.00  0.00    -0.484 OA
ATOM     12  C   UNL     1      -1.965  -1.475   5.953  0.00  0.00    +0.270 C 
ATOM     13  C   UNL     1      -1.136  -1.225   7.220  0.00  0.00    +0.270 C 
ATOM     14  O   UNL     1       0.118  -1.905   7.071  0.00  0.00    -0.485 OA
BRANCH   7  15
ATOM     15  N   UNL     1       4.230  -2.213   4.517  0.00  0.00    +0.057 N 
ATOM     16  O   UNL     1       4.823  -2.078   3.472  0.00  0.00    -0.126 OA
ATOM     17  O   UNL     1       4.814  -2.613   5.497  0.00  0.00    -0.126 OA
ENDBRANCH   7  15
ENDBRANCH   2   5
BRANCH   1  19
ATOM     18  C   UNL     1      -0.019   1.526   0.010  0.00  0.00    +0.033 C 
ATOM     19  C   UNL     1       0.002  -0.004   0.002  0.00  0.00    +0.100 C 
BRANCH  19  20
ATOM     20  C   UNL     1       0.707  -0.490  -1.238  0.00  0.00    -0.027 A 
ATOM     21  C   UNL     1       2.089  -0.510  -1.283  0.00  0.00    +0.009 A 
ATOM     22  C   UNL     1       2.738  -0.955  -2.418  0.00  0.00    +0.046 A 
ATOM     23  C   UNL     1       2.002  -1.382  -3.514  0.00  0.00    +0.127 A 
ATOM     24  C   UNL     1       0.616  -1.361  -3.466  0.00  0.00    +0.046 A 
ATOM     25  C   UNL     1      -0.028  -0.920  -2.327  0.00  0.00    +0.009 A 
BRANCH  23  26
ATOM     26  O   UNL     1       2.638  -1.819  -4.633  0.00  0.00    -0.434 OA
BRANCH  26  27
ATOM     27  C   UNL     1       1.817  -2.244  -5.722  0.00  0.00    +0.541 C 
ATOM     28  F   UNL     1       1.008  -3.308  -5.309  0.00  0.00    -0.166 F 
ATOM     29  F   UNL     1       1.011  -1.179  -6.140  0.00  0.00    -0.166 F 
ENDBRANCH  26  27
ENDBRANCH  23  26
ENDBRANCH  19  20
ENDBRANCH   1  19
TORSDOF 6
