REMARK  Name = ZINC32073887
REMARK  6 active torsions:
REMARK  status: ('A' for Active; 'I' for Inactive)
REMARK    1  A    between atoms: C_1  and  C_2
REMARK    2  A    between atoms: C_3  and  C_7
REMARK    3  A    between atoms: C_7  and  N_8
REMARK    4  A    between atoms: N_11  and  C_14
REMARK    5  A    between atoms: C_14  and  C_16
REMARK    6  A    between atoms: C_14  and  C_27
REMARK                            x       y       z     vdW  Elec       q    Type
REMARK                         _______ _______ _______ _____ _____    ______ ____
ROOT
ATOM      1  C   UNL     1      -2.545   1.335   0.019  0.00  0.00    +0.080 C 
ENDROOT
BRANCH   1   2
ATOM      2  C   UNL     1      -1.122   1.831   0.017  0.00  0.00    -0.025 A 
ATOM      3  C   UNL     1      -0.013   1.076   0.008  0.00  0.00    +0.086 A 
ATOM      4  N   UNL     1       1.097   1.876   0.002  0.00  0.00    -0.360 N 
ATOM      5  H   UNL     1       2.100   1.426  -0.010  0.00  0.00    +0.165 HD
ATOM      6  C   UNL     1       0.719   3.201   0.012  0.00  0.00    +0.047 A 
ATOM      7  C   UNL     1      -0.688   3.230   0.026  0.00  0.00    +0.003 A 
ATOM      8  C   UNL     1      -1.359   4.454   0.039  0.00  0.00    +0.025 A 
ATOM      9  C   UNL     1      -0.637   5.627   0.038  0.00  0.00    +0.019 A 
ATOM     10  C   UNL     1       0.751   5.597   0.024  0.00  0.00    +0.017 A 
ATOM     11  C   UNL     1       1.428   4.397   0.012  0.00  0.00    +0.027 A 
ATOM     12 BR   UNL     1      -1.542   7.288   0.056  0.00  0.00    -0.050 Br
ENDBRANCH   1   2
BRANCH   1  16
ATOM     13  N   UNL     1      -3.326  -2.152  -2.235  0.00  0.00    -0.300 NA
ATOM     14  C   UNL     1      -3.939  -2.041  -0.904  0.00  0.00    +0.066 C 
ATOM     15  C   UNL     1      -3.955  -0.572  -0.473  0.00  0.00    -0.062 C 
ATOM     16  N   UNL     1      -2.580  -0.053  -0.462  0.00  0.00    +0.393 N 
ATOM     17  C   UNL     1      -1.967  -0.164  -1.793  0.00  0.00    -0.062 C 
ATOM     18  C   UNL     1      -1.952  -1.633  -2.224  0.00  0.00    +0.066 C 
ATOM     19  H   UNL     1      -1.991  -0.667   0.236  0.00  0.00    -0.080 HD
BRANCH  13  20
ATOM     20  C   UNL     1      -3.361  -3.539  -2.716  0.00  0.00    +0.145 C 
BRANCH  20  23
ATOM     21  C   UNL     1      -0.414  -3.889  -3.773  0.00  0.00    +0.071 C 
ATOM     22  C   UNL     1      -1.637  -3.735  -4.639  0.00  0.00    +0.106 A 
ATOM     23  C   UNL     1      -2.955  -3.578  -4.167  0.00  0.00    +0.121 A 
ATOM     24  N   UNL     1      -3.767  -3.478  -5.177  0.00  0.00    -0.052 NA
ATOM     25  O   UNL     1      -2.986  -3.559  -6.359  0.00  0.00    -0.242 OA
ATOM     26  N   UNL     1      -1.641  -3.725  -5.939  0.00  0.00    -0.054 NA
ENDBRANCH  20  23
ENDBRANCH  13  20
ENDBRANCH   1  16
BRANCH   1  27
ATOM     27  C   UNL     1      -3.095   1.394   1.421  0.00  0.00    +0.347 C 
ATOM     28  O   UNL     1      -3.477   0.384   1.963  0.00  0.00    -0.248 OA
ATOM     29  O   UNL     1      -3.161   2.569   2.067  0.00  0.00    -0.248 OA
ENDBRANCH   1  27
TORSDOF 5
