REMARK  Name = ZINC09892564
REMARK  10 active torsions:
REMARK  status: ('A' for Active; 'I' for Inactive)
REMARK    1  A    between atoms: C_1  and  C_2
REMARK    2  A    between atoms: C_4  and  C_37
REMARK    3  A    between atoms: C_6  and  N_8
REMARK    4  A    between atoms: C_12  and  C_13
REMARK    5  A    between atoms: C_15  and  O_30
REMARK    6  A    between atoms: C_16  and  O_22
REMARK    7  A    between atoms: C_18  and  N_19
REMARK    8  A    between atoms: O_22  and  C_23
REMARK    9  A    between atoms: C_23  and  C_24
REMARK   10  A    between atoms: O_30  and  C_31
REMARK                            x       y       z     vdW  Elec       q    Type
REMARK                         _______ _______ _______ _____ _____    ______ ____
ROOT
ATOM      1  C   UNL     1      -2.212   9.545  -0.174  0.00  0.00    +0.010 A 
ATOM      2  C   UNL     1      -0.953  10.158  -0.269  0.00  0.00    +0.059 A 
ATOM      3  C   UNL     1      -0.864  11.531  -0.355  0.00  0.00    +0.162 A 
ATOM      4  C   UNL     1      -2.023  12.309  -0.336  0.00  0.00    +0.165 A 
ATOM      5  C   UNL     1      -3.271  11.704  -0.236  0.00  0.00    +0.082 A 
ATOM      6  C   UNL     1      -3.371  10.334  -0.155  0.00  0.00    +0.137 A 
ENDROOT
BRANCH   1  11
ATOM      7  N   UNL     1      -0.662   5.306   1.693  0.00  0.00    -0.188 N 
ATOM      8  C   UNL     1      -1.452   5.918   0.786  0.00  0.00    +0.264 C 
ATOM      9  O   UNL     1      -2.086   5.272  -0.027  0.00  0.00    -0.269 OA
ATOM     10  C   UNL     1      -1.527   7.392   0.809  0.00  0.00    +0.102 C 
ATOM     11  C   UNL     1      -2.314   8.088  -0.088  0.00  0.00    +0.028 C 
ATOM     12  C   UNL     1      -0.723   8.089   1.833  0.00  0.00    +0.276 C 
ATOM     13  O   UNL     1      -0.732   9.302   1.915  0.00  0.00    -0.268 OA
ATOM     14  N   UNL     1       0.022   7.343   2.674  0.00  0.00    -0.123 NA
ATOM     15  C   UNL     1       0.037   6.005   2.598  0.00  0.00    +0.340 C 
ATOM     16  O   UNL     1       0.727   5.392   3.389  0.00  0.00    -0.250 OA
BRANCH   7  22
ATOM     17  C   UNL     1       1.978   1.230   0.918  0.00  0.00    +0.044 C 
ATOM     18  C   UNL     1       0.693   1.906   1.320  0.00  0.00    -0.048 A 
ATOM     19  C   UNL     1      -0.402   1.146   1.689  0.00  0.00    +0.006 A 
ATOM     20  C   UNL     1      -1.584   1.763   2.054  0.00  0.00    -0.048 A 
ATOM     21  C   UNL     1      -1.672   3.142   2.061  0.00  0.00    +0.027 A 
ATOM     22  C   UNL     1      -0.574   3.908   1.691  0.00  0.00    +0.046 A 
ATOM     23  C   UNL     1       0.610   3.285   1.320  0.00  0.00    +0.027 A 
ATOM     24  C   UNL     1      -2.777   0.931   2.449  0.00  0.00    +0.044 C 
ENDBRANCH   7  22
ENDBRANCH   1  11
BRANCH   6  25
ATOM     25  N   UNL     1      -4.702   9.694  -0.050  0.00  0.00    +0.057 N 
ATOM     26  O   UNL     1      -5.701  10.382   0.064  0.00  0.00    -0.126 OA
ATOM     27  O   UNL     1      -4.797   8.480  -0.076  0.00  0.00    -0.126 OA
ENDBRANCH   6  25
BRANCH   3  28
ATOM     28  O   UNL     1       0.354  12.129  -0.452  0.00  0.00    -0.491 OA
ATOM     29  C   UNL     1       1.497  11.272  -0.466  0.00  0.00    +0.277 C 
ENDBRANCH   3  28
BRANCH   4  30
ATOM     30  O   UNL     1      -1.932  13.661  -0.415  0.00  0.00    -0.484 OA
BRANCH  30  31
ATOM     31  C   UNL     1      -3.157  14.397  -0.390  0.00  0.00    +0.264 C 
BRANCH  31  32
ATOM     32  C   UNL     1      -2.859  15.871  -0.486  0.00  0.00    -0.010 A 
ATOM     33  C   UNL     1      -2.665  16.613   0.663  0.00  0.00    +0.007 A 
ATOM     34  C   UNL     1      -2.387  17.965   0.575  0.00  0.00    +0.000 A 
ATOM     35  C   UNL     1      -2.314  18.575  -0.663  0.00  0.00    +0.000 A 
ATOM     36  C   UNL     1      -2.514  17.834  -1.813  0.00  0.00    +0.000 A 
ATOM     37  C   UNL     1      -2.787  16.482  -1.724  0.00  0.00    +0.007 A 
ENDBRANCH  31  32
ENDBRANCH  30  31
ENDBRANCH   4  30
TORSDOF 7
