REMARK  Name = ZINC35677867
REMARK  8 active torsions:
REMARK  status: ('A' for Active; 'I' for Inactive)
REMARK    1  A    between atoms: C_1  and  C_2
REMARK    2  A    between atoms: C_2  and  C_4
REMARK    3  A    between atoms: C_2  and  O_22
REMARK    4  A    between atoms: C_7  and  O_10
REMARK    5  A    between atoms: O_10  and  C_11
REMARK    6  A    between atoms: C_11  and  C_12
REMARK    7  A    between atoms: C_12  and  C_13
REMARK    8  A    between atoms: C_16  and  N_19
REMARK                            x       y       z     vdW  Elec       q    Type
REMARK                         _______ _______ _______ _____ _____    ______ ____
ROOT
ATOM      1  O   UNL     1       2.726  -1.871   4.565  0.00  0.00    -0.492 OA
ENDROOT
BRANCH   1   5
ATOM      2  C   UNL     1       0.731  -0.503   1.223  0.00  0.00    -0.019 A 
ATOM      3  C   UNL     1       2.113  -0.513   1.245  0.00  0.00    +0.010 A 
ATOM      4  C   UNL     1       2.784  -0.971   2.363  0.00  0.00    +0.046 A 
ATOM      5  C   UNL     1       2.069  -1.420   3.464  0.00  0.00    +0.121 A 
ATOM      6  C   UNL     1       0.682  -1.409   3.439  0.00  0.00    +0.046 A 
ATOM      7  C   UNL     1       0.016  -0.945   2.321  0.00  0.00    +0.010 A 
BRANCH   2   9
ATOM      8  C   UNL     1      -0.019   1.526   0.010  0.00  0.00    +0.043 C 
ATOM      9  C   UNL     1       0.002  -0.004   0.002  0.00  0.00    +0.141 C 
BRANCH   9  10
ATOM     10  O   UNL     1       0.671  -0.465  -1.174  0.00  0.00    -0.387 OA
ATOM     11  H   UNL     1       1.588  -0.167  -1.247  0.00  0.00    +0.210 HD
ENDBRANCH   9  10
ENDBRANCH   2   9
ENDBRANCH   1   5
BRANCH   1  12
ATOM     12  C   UNL     1       1.926  -2.318   5.660  0.00  0.00    +0.233 C 
BRANCH  12  13
ATOM     13  C   UNL     1       2.835  -2.785   6.799  0.00  0.00    +0.076 C 
BRANCH  13  14
ATOM     14  C   UNL     1       1.990  -3.257   7.955  0.00  0.00    -0.044 A 
ATOM     15  C   UNL     1       1.600  -2.364   8.935  0.00  0.00    +0.006 A 
ATOM     16  C   UNL     1       0.825  -2.796   9.995  0.00  0.00    +0.033 A 
ATOM     17  C   UNL     1       0.441  -4.122  10.075  0.00  0.00    +0.126 A 
ATOM     18  C   UNL     1       0.831  -5.015   9.094  0.00  0.00    +0.033 A 
ATOM     19  C   UNL     1       1.602  -4.581   8.032  0.00  0.00    +0.006 A 
BRANCH  17  20
ATOM     20  N   UNL     1      -0.388  -4.585  11.211  0.00  0.00    +0.056 N 
ATOM     21  O   UNL     1      -0.728  -3.805  12.069  0.00  0.00    -0.126 OA
ATOM     22  O   UNL     1      -0.724  -5.745  11.280  0.00  0.00    -0.126 OA
ENDBRANCH  17  20
ENDBRANCH  13  14
ENDBRANCH  12  13
ENDBRANCH   1  12
TORSDOF 7
