REMARK  Name = ZINC02080830
REMARK  9 active torsions:
REMARK  status: ('A' for Active; 'I' for Inactive)
REMARK    1  A    between atoms: C_1  and  C_2
REMARK    2  A    between atoms: C_5  and  N_33
REMARK    3  A    between atoms: C_7  and  N_8
REMARK    4  A    between atoms: C_11  and  C_18
REMARK    5  A    between atoms: C_13  and  C_16
REMARK    6  A    between atoms: C_14  and  N_15
REMARK    7  A    between atoms: C_21  and  O_24
REMARK    8  A    between atoms: O_24  and  C_25
REMARK    9  A    between atoms: C_25  and  C_26
REMARK                            x       y       z     vdW  Elec       q    Type
REMARK                         _______ _______ _______ _____ _____    ______ ____
ROOT
ATOM      1  N   UNL     1       0.103  -0.254  -0.109  0.00  0.00    -0.260 N 
ATOM      2  C   UNL     1       1.194  -0.890  -0.642  0.00  0.00    +0.024 C 
ATOM      3  C   UNL     1       2.403  -0.289  -0.653  0.00  0.00    +0.025 C 
ATOM      4  C   UNL     1       2.588   1.091  -0.075  0.00  0.00    +0.097 C 
ATOM      5  C   UNL     1       1.273   1.800   0.068  0.00  0.00    +0.077 C 
ATOM      6  C   UNL     1       0.101   1.114   0.051  0.00  0.00    +0.107 C 
ATOM      7  C   UNL     1       3.527  -0.933  -1.198  0.00  0.00    +0.162 C 
ATOM      8  O   UNL     1       4.597  -0.358  -1.209  0.00  0.00    -0.292 OA
ATOM      9  C   UNL     1       3.430  -2.322  -1.769  0.00  0.00    +0.080 C 
ATOM     10  C   UNL     1       2.300  -3.074  -1.058  0.00  0.00    +0.014 C 
ATOM     11  C   UNL     1       1.007  -2.272  -1.218  0.00  0.00    +0.052 C 
ENDROOT
BRANCH   1  18
ATOM     12  C   UNL     1      -1.944  -0.696  -2.035  0.00  0.00    +0.045 C 
ATOM     13  C   UNL     1      -2.039  -1.240  -0.632  0.00  0.00    -0.029 A 
ATOM     14  C   UNL     1      -3.140  -1.981  -0.251  0.00  0.00    +0.007 A 
ATOM     15  C   UNL     1      -3.230  -2.475   1.037  0.00  0.00    +0.033 A 
ATOM     16  C   UNL     1      -2.216  -2.234   1.946  0.00  0.00    +0.128 A 
ATOM     17  C   UNL     1      -1.110  -1.498   1.570  0.00  0.00    +0.056 A 
ATOM     18  C   UNL     1      -1.016  -1.000   0.276  0.00  0.00    +0.045 A 
BRANCH  16  19
ATOM     19  N   UNL     1      -2.317  -2.765   3.324  0.00  0.00    +0.056 N 
ATOM     20  O   UNL     1      -1.424  -2.552   4.125  0.00  0.00    -0.126 OA
ATOM     21  O   UNL     1      -3.292  -3.414   3.657  0.00  0.00    -0.126 OA
ENDBRANCH  16  19
ENDBRANCH   1  18
BRANCH   4  22
ATOM     22  C   UNL     1       3.237   0.977   1.280  0.00  0.00    -0.034 A 
ATOM     23  C   UNL     1       2.616   0.257   2.284  0.00  0.00    +0.008 A 
ATOM     24  C   UNL     1       3.211   0.146   3.526  0.00  0.00    +0.046 A 
ATOM     25  C   UNL     1       4.428   0.768   3.768  0.00  0.00    +0.121 A 
ATOM     26  C   UNL     1       5.046   1.494   2.761  0.00  0.00    +0.046 A 
ATOM     27  C   UNL     1       4.449   1.597   1.520  0.00  0.00    +0.008 A 
BRANCH  25  28
ATOM     28  O   UNL     1       5.012   0.665   4.991  0.00  0.00    -0.488 OA
BRANCH  28  29
ATOM     29  C   UNL     1       4.319  -0.099   5.980  0.00  0.00    +0.256 C 
BRANCH  29  30
ATOM     30  C   UNL     1       5.113  -0.100   7.261  0.00  0.00    +0.006 C 
ATOM     31  C   UNL     1       4.509   0.105   8.405  0.00  0.00    +0.007 C 
ENDBRANCH  29  30
ENDBRANCH  28  29
ENDBRANCH  25  28
ENDBRANCH   4  22
BRANCH   6  32
ATOM     32  N   UNL     1      -1.090   1.786   0.187  0.00  0.00    -0.345 N 
ATOM     33  H   UNL     1      -1.928   1.298   0.170  0.00  0.00    +0.144 HD
ATOM     34  H   UNL     1      -1.093   2.750   0.299  0.00  0.00    +0.144 HD
ENDBRANCH   6  32
BRANCH   5  35
ATOM     35  C   UNL     1       1.253   3.223   0.226  0.00  0.00    +0.099 C 
ATOM     36  N   UNL     1       1.238   4.352   0.351  0.00  0.00    -0.191 NA
ENDBRANCH   5  35
TORSDOF 8
