REMARK  Name = ZINC44191981
REMARK  7 active torsions:
REMARK  status: ('A' for Active; 'I' for Inactive)
REMARK    1  A    between atoms: C_1  and  C_2
REMARK    2  A    between atoms: C_5  and  C_8
REMARK    3  A    between atoms: C_8  and  C_10
REMARK    4  A    between atoms: C_8  and  O_11
REMARK    5  A    between atoms: O_11  and  C_12
REMARK    6  A    between atoms: C_12  and  C_14
REMARK    7  A    between atoms: C_14  and  N_15
REMARK                            x       y       z     vdW  Elec       q    Type
REMARK                         _______ _______ _______ _____ _____    ______ ____
ROOT
ATOM      1  C   UNL     1      -2.300  -6.538   1.847  0.00  0.00    +0.238 C 
ENDROOT
BRANCH   1   2
ATOM      2  N   UNL     1      -2.815  -7.828   1.381  0.00  0.00    -0.213 N 
ATOM      3  C   UNL     1      -3.950  -7.978   0.663  0.00  0.00    +0.247 C 
ATOM      4  O   UNL     1      -4.708  -7.106   0.295  0.00  0.00    -0.273 OA
ATOM      5  C   UNL     1      -4.071  -9.460   0.416  0.00  0.00    +0.113 C 
ATOM      6  C   UNL     1      -4.074  -9.771  -1.086  0.00  0.00    +0.035 C 
ATOM      7  C   UNL     1      -5.040 -10.977  -1.218  0.00  0.00    +0.003 C 
ATOM      8  C   UNL     1      -6.141 -10.652  -0.176  0.00  0.00    +0.003 C 
ATOM      9  C   UNL     1      -5.371 -10.016   1.003  0.00  0.00    +0.035 C 
ATOM     10  N   UNL     1      -2.898 -10.039   1.074  0.00  0.00    -0.285 N 
ATOM     11  C   UNL     1      -2.217  -9.005   1.608  0.00  0.00    +0.310 C 
ATOM     12  O   UNL     1      -1.179  -9.126   2.228  0.00  0.00    -0.252 OA
ATOM     13  H   UNL     1      -2.657 -10.977   1.115  0.00  0.00    +0.151 HD
ENDBRANCH   1   2
BRANCH   1  14
ATOM     14  C   UNL     1      -1.386  -5.955   0.801  0.00  0.00    +0.326 C 
ATOM     15  O   UNL     1      -1.185  -6.554  -0.229  0.00  0.00    -0.249 OA
BRANCH  14  16
ATOM     16  O   UNL     1      -0.795  -4.768   1.013  0.00  0.00    -0.456 OA
BRANCH  16  17
ATOM     17  C   UNL     1       0.059  -4.275  -0.021  0.00  0.00    +0.204 C 
ATOM     18  C   UNL     1       1.488  -4.768   0.218  0.00  0.00    +0.057 C 
BRANCH  17  23
ATOM     19  C   UNL     1      -0.018   1.503   0.010  0.00  0.00    +0.044 C 
ATOM     20  C   UNL     1       0.002  -0.004   0.002  0.00  0.00    -0.050 A 
ATOM     21  C   UNL     1       0.006  -0.689  -1.199  0.00  0.00    +0.004 A 
ATOM     22  C   UNL     1       0.025  -2.071  -1.206  0.00  0.00    +0.007 A 
ATOM     23  C   UNL     1       0.040  -2.768  -0.013  0.00  0.00    -0.008 A 
ATOM     24  C   UNL     1       0.037  -2.084   1.188  0.00  0.00    +0.007 A 
ATOM     25  C   UNL     1       0.023  -0.702   1.195  0.00  0.00    +0.004 A 
ENDBRANCH  17  23
ENDBRANCH  16  17
ENDBRANCH  14  16
ENDBRANCH   1  14
TORSDOF 5
