REMARK  Name = ZINC36057953
REMARK  10 active torsions:
REMARK  status: ('A' for Active; 'I' for Inactive)
REMARK    1  A    between atoms: C_1  and  N_2
REMARK    2  A    between atoms: C_5  and  C_8
REMARK    3  A    between atoms: C_5  and  N_22
REMARK    4  A    between atoms: N_10  and  C_11
REMARK    5  A    between atoms: C_11  and  C_12
REMARK    6  A    between atoms: C_16  and  O_20
REMARK    7  A    between atoms: C_17  and  O_18
REMARK    8  A    between atoms: O_18  and  C_19
REMARK    9  A    between atoms: O_20  and  C_21
REMARK   10  A    between atoms: C_23  and  C_28
REMARK                            x       y       z     vdW  Elec       q    Type
REMARK                         _______ _______ _______ _____ _____    ______ ____
ROOT
ATOM      1  C   UNL     1       0.532   1.937  -1.583  0.00  0.00    -0.096 C 
ATOM      2  N   UNL     1       0.361   0.481  -1.481  0.00  0.00    +0.378 N 
ATOM      3  C   UNL     1       1.232  -0.182  -2.458  0.00  0.00    -0.077 C 
ATOM      4  C   UNL     1       0.999  -1.693  -2.413  0.00  0.00    +0.017 C 
ATOM      5  C   UNL     1       1.319  -2.212  -1.007  0.00  0.00    +0.110 C 
ATOM      6  C   UNL     1       0.457  -1.460   0.011  0.00  0.00    +0.017 C 
ATOM      7  C   UNL     1       0.711   0.043  -0.124  0.00  0.00    -0.077 C 
ATOM      8  H   UNL     1      -0.600   0.242  -1.673  0.00  0.00    -0.082 HD
ENDROOT
BRANCH   5   9
ATOM      9  N   UNL     1       2.736  -1.985  -0.713  0.00  0.00    -0.280 N 
ATOM     10  C   UNL     1       3.434  -1.353   0.400  0.00  0.00    +0.116 C 
ATOM     11  C   UNL     1       4.743  -1.673  -0.312  0.00  0.00    +0.123 C 
ATOM     12  C   UNL     1       3.866  -2.286  -1.363  0.00  0.00    +0.219 C 
ATOM     13  O   UNL     1       4.097  -2.847  -2.413  0.00  0.00    -0.275 OA
BRANCH  10  14
ATOM     14  C   UNL     1       3.266  -2.085   1.707  0.00  0.00    -0.026 A 
ATOM     15  C   UNL     1       3.411  -3.459   1.753  0.00  0.00    +0.008 A 
ATOM     16  C   UNL     1       3.258  -4.131   2.950  0.00  0.00    +0.038 A 
ATOM     17  C   UNL     1       2.959  -3.427   4.105  0.00  0.00    +0.123 A 
ATOM     18  C   UNL     1       2.814  -2.051   4.058  0.00  0.00    +0.038 A 
ATOM     19  C   UNL     1       2.974  -1.381   2.860  0.00  0.00    +0.008 A 
ATOM     20  F   UNL     1       2.808  -4.083   5.277  0.00  0.00    -0.205 F 
ENDBRANCH  10  14
ENDBRANCH   5   9
BRANCH   5  21
ATOM     21  C   UNL     1       1.017  -3.686  -0.933  0.00  0.00    +0.237 C 
ATOM     22  O   UNL     1       1.916  -4.481  -0.756  0.00  0.00    -0.273 OA
ATOM     23  N   UNL     1      -0.252  -4.121  -1.064  0.00  0.00    -0.309 N 
ATOM     24  H   UNL     1      -0.960  -3.494  -1.276  0.00  0.00    +0.149 HD
BRANCH  23  25
ATOM     25  C   UNL     1      -0.561  -5.542  -0.885  0.00  0.00    +0.143 C 
BRANCH  25  26
ATOM     26  C   UNL     1      -2.052  -5.745  -0.961  0.00  0.00    +0.015 A 
ATOM     27  C   UNL     1      -2.785  -5.929   0.197  0.00  0.00    +0.009 A 
ATOM     28  C   UNL     1      -4.153  -6.116   0.130  0.00  0.00    +0.004 A 
ATOM     29  C   UNL     1      -4.794  -6.120  -1.095  0.00  0.00    +0.049 A 
ATOM     30  C   UNL     1      -4.066  -5.937  -2.259  0.00  0.00    +0.162 A 
ATOM     31  C   UNL     1      -2.689  -5.743  -2.192  0.00  0.00    +0.166 A 
BRANCH  31  32
ATOM     32  O   UNL     1      -1.970  -5.557  -3.331  0.00  0.00    -0.491 OA
ATOM     33  C   UNL     1      -1.546  -6.730  -4.029  0.00  0.00    +0.277 C 
ENDBRANCH  31  32
BRANCH  30  34
ATOM     34  O   UNL     1      -4.695  -5.942  -3.465  0.00  0.00    -0.491 OA
ATOM     35  C   UNL     1      -6.110  -6.141  -3.458  0.00  0.00    +0.277 C 
ENDBRANCH  30  34
ENDBRANCH  25  26
ENDBRANCH  23  25
ENDBRANCH   5  21
TORSDOF 7
