REMARK  Name = ZINC31813413
REMARK  3 active torsions:
REMARK  status: ('A' for Active; 'I' for Inactive)
REMARK    1  A    between atoms: C_11  and  C_13
REMARK    2  A    between atoms: C_17  and  N_19
REMARK    3  A    between atoms: N_22  and  C_23
REMARK                            x       y       z     vdW  Elec       q    Type
REMARK                         _______ _______ _______ _____ _____    ______ ____
ROOT
ATOM      1  C   UNL     1       4.633  -5.723  -0.264  0.00  0.00    +0.039 A 
ATOM      2  C   UNL     1       3.641  -6.691  -0.092  0.00  0.00    +0.013 A 
ATOM      3  C   UNL     1       3.990  -8.015   0.074  0.00  0.00    +0.003 A 
ATOM      4  C   UNL     1       5.321  -8.389   0.070  0.00  0.00    +0.023 A 
ATOM      5  C   UNL     1       6.316  -7.434  -0.101  0.00  0.00    +0.035 A 
ATOM      6  C   UNL     1       5.975  -6.102  -0.274  0.00  0.00    +0.036 A 
ENDROOT
BRANCH   1  17
ATOM      7  C   UNL     1      -0.018   1.320  -1.016  0.00  0.00    +0.002 A 
ATOM      8  C   UNL     1       1.153   2.048  -1.169  0.00  0.00    +0.001 A 
ATOM      9  C   UNL     1       2.369   1.391  -1.135  0.00  0.00    +0.017 A 
ATOM     10  C   UNL     1       2.399   0.031  -0.950  0.00  0.00    +0.041 A 
ATOM     11  C   UNL     1       1.227  -0.743  -0.790  0.00  0.00    +0.080 A 
ATOM     12  C   UNL     1       0.002  -0.037  -0.830  0.00  0.00    +0.029 A 
ATOM     13  N   UNL     1       1.420  -2.068  -0.617  0.00  0.00    -0.225 NA
ATOM     14  C   UNL     1       2.616  -2.611  -0.598  0.00  0.00    +0.166 A 
ATOM     15  S   UNL     1       3.680  -1.195  -0.841  0.00  0.00    -0.052 S 
ATOM     16  N   UNL     1       2.964  -3.940  -0.431  0.00  0.00    -0.261 N 
ATOM     17  C   UNL     1       4.261  -4.303  -0.442  0.00  0.00    +0.250 C 
ATOM     18  O   UNL     1       5.126  -3.464  -0.596  0.00  0.00    -0.270 OA
ATOM     19  H   UNL     1       2.273  -4.610  -0.308  0.00  0.00    +0.157 HD
ENDBRANCH   1  17
BRANCH   5  20
ATOM     20  N   UNL     1       7.662  -7.818  -0.103  0.00  0.00    -0.269 N 
ATOM     21  C   UNL     1       8.601  -6.987   0.391  0.00  0.00    +0.304 C 
ATOM     22  O   UNL     1       8.271  -5.947   0.926  0.00  0.00    -0.253 OA
ATOM     23  N   UNL     1       9.906  -7.310   0.292  0.00  0.00    -0.295 N 
ATOM     24  H   UNL     1       7.919  -8.683  -0.461  0.00  0.00    +0.156 HD
ATOM     25  H   UNL     1      10.169  -8.140  -0.136  0.00  0.00    +0.151 HD
BRANCH  23  26
ATOM     26  C   UNL     1      10.926  -6.407   0.829  0.00  0.00    +0.097 C 
ATOM     27  C   UNL     1      11.293  -5.351  -0.227  0.00  0.00    +0.046 C 
ATOM     28  C   UNL     1      12.578  -4.601   0.200  0.00  0.00    +0.168 C 
ATOM     29  S   UNL     1      13.458  -5.856   1.217  0.00  0.00    -0.029 S 
ATOM     30  O   UNL     1      13.572  -5.374   2.549  0.00  0.00    -0.174 OA
ATOM     31  O   UNL     1      14.625  -6.278   0.524  0.00  0.00    -0.174 OA
ATOM     32  C   UNL     1      12.211  -7.212   1.174  0.00  0.00    +0.188 C 
ENDBRANCH  23  26
ENDBRANCH   5  20
TORSDOF 3
