REMARK  Name = ZINC52303464
REMARK  5 active torsions:
REMARK  status: ('A' for Active; 'I' for Inactive)
REMARK    1  A    between atoms: C_1  and  C_2
REMARK    2  A    between atoms: C_5  and  N_7
REMARK    3  A    between atoms: C_8  and  C_10
REMARK    4  A    between atoms: C_12  and  N_20
REMARK    5  A    between atoms: C_15  and  N_16
REMARK                            x       y       z     vdW  Elec       q    Type
REMARK                         _______ _______ _______ _____ _____    ______ ____
ROOT
ATOM      1  C   UNL     1      -0.423  -3.558   3.478  0.00  0.00    +0.069 A 
ATOM      2  C   UNL     1      -1.267  -4.294   2.644  0.00  0.00    +0.041 A 
ATOM      3  C   UNL     1      -1.604  -5.594   2.980  0.00  0.00    +0.061 A 
ATOM      4  C   UNL     1      -1.101  -6.164   4.148  0.00  0.00    +0.146 A 
ATOM      5  C   UNL     1      -0.265  -5.433   4.975  0.00  0.00    +0.073 A 
ATOM      6  C   UNL     1       0.081  -4.139   4.644  0.00  0.00    +0.141 A 
ATOM      7  F   UNL     1      -1.431  -7.433   4.475  0.00  0.00    -0.203 F 
ENDROOT
BRANCH   1   9
ATOM      8  N   UNL     1       0.493  -1.903   1.926  0.00  0.00    -0.308 N 
ATOM      9  C   UNL     1      -0.059  -2.171   3.126  0.00  0.00    +0.247 C 
ATOM     10  O   UNL     1      -0.258  -1.270   3.918  0.00  0.00    -0.270 OA
ATOM     11  H   UNL     1       0.651  -2.621   1.294  0.00  0.00    +0.149 HD
BRANCH   8  15
ATOM     12  C   UNL     1       0.475   1.242  -0.314  0.00  0.00    +0.009 C 
ATOM     13  C   UNL     1       0.912  -0.168   0.090  0.00  0.00    +0.008 C 
ATOM     14  C   UNL     1       2.206  -0.302   0.895  0.00  0.00    +0.027 C 
ATOM     15  C   UNL     1       0.854  -0.527   1.576  0.00  0.00    +0.076 C 
ENDBRANCH   8  15
ENDBRANCH   1   9
BRANCH   6  16
ATOM     16  N   UNL     1       0.981  -3.365   5.527  0.00  0.00    +0.057 N 
ATOM     17  O   UNL     1       1.318  -3.820   6.595  0.00  0.00    -0.126 OA
ATOM     18  O   UNL     1       1.379  -2.277   5.181  0.00  0.00    -0.126 OA
ENDBRANCH   6  16
BRANCH   3  19
ATOM     19  N   UNL     1      -2.449  -6.335   2.148  0.00  0.00    -0.356 N 
ATOM     20  H   UNL     1      -2.800  -5.939   1.335  0.00  0.00    +0.142 HD
ATOM     21  H   UNL     1      -2.686  -7.246   2.384  0.00  0.00    +0.142 HD
ENDBRANCH   3  19
TORSDOF 4
