REMARK  Name = ZINC22473004
REMARK  7 active torsions:
REMARK  status: ('A' for Active; 'I' for Inactive)
REMARK    1  A    between atoms: C_1  and  N_2
REMARK    2  A    between atoms: N_2  and  C_3
REMARK    3  A    between atoms: C_3  and  C_4
REMARK    4  A    between atoms: C_4  and  C_5
REMARK    5  A    between atoms: C_5  and  N_6
REMARK    6  A    between atoms: C_9  and  O_10
REMARK    7  A    between atoms: C_18  and  C_20
REMARK                            x       y       z     vdW  Elec       q    Type
REMARK                         _______ _______ _______ _____ _____    ______ ____
ROOT
ATOM      1  C   UNL     1      -3.452   2.631   0.489  0.00  0.00    +0.040 C 
ENDROOT
BRANCH   1   2
ATOM      2  C   UNL     1      -4.704   1.890   0.018  0.00  0.00    +0.109 C 
BRANCH   2   4
ATOM      3  C   UNL     1      -6.194   3.610  -1.106  0.00  0.00    +0.132 C 
ATOM      4  N   UNL     1      -5.854   2.796   0.064  0.00  0.00    -0.301 N 
ATOM      5  C   UNL     1      -6.600   2.882   1.183  0.00  0.00    +0.246 C 
ATOM      6  O   UNL     1      -6.250   2.302   2.193  0.00  0.00    -0.270 OA
BRANCH   5   7
ATOM      7  C   UNL     1      -7.844   3.681   1.183  0.00  0.00    +0.037 A 
ATOM      8  C   UNL     1      -8.484   3.975  -0.034  0.00  0.00    +0.013 A 
ATOM      9  C   UNL     1      -9.630   4.702  -0.060  0.00  0.00    +0.009 A 
ATOM     10  C   UNL     1     -10.187   5.181   1.140  0.00  0.00    -0.018 A 
ATOM     11  C   UNL     1     -11.368   5.941   1.138  0.00  0.00    +0.008 A 
ATOM     12  C   UNL     1     -11.883   6.392   2.315  0.00  0.00    +0.001 A 
ATOM     13  C   UNL     1     -11.255   6.112   3.528  0.00  0.00    +0.001 A 
ATOM     14  C   UNL     1     -10.109   5.379   3.570  0.00  0.00    +0.008 A 
ATOM     15  C   UNL     1      -9.547   4.896   2.374  0.00  0.00    -0.017 A 
ATOM     16  C   UNL     1      -8.367   4.138   2.381  0.00  0.00    +0.021 A 
ENDBRANCH   5   7
ENDBRANCH   2   4
ENDBRANCH   1   2
BRANCH   1  17
ATOM     17  C   UNL     1      -2.250   1.685   0.441  0.00  0.00    +0.114 C 
BRANCH  17  18
ATOM     18  N   UNL     1      -1.051   2.395   0.893  0.00  0.00    -0.384 N 
ATOM     19  C   UNL     1       0.161   1.741   0.935  0.00  0.00    +0.053 A 
ATOM     20  C   UNL     1       0.269   0.427   0.560  0.00  0.00    +0.113 A 
ATOM     21  C   UNL     1       1.516  -0.209   0.609  0.00  0.00    +0.286 A 
ATOM     22  O   UNL     1       2.623   0.433   1.015  0.00  0.00    -0.425 OA
ATOM     23  C   UNL     1       2.594   1.727   1.400  0.00  0.00    +0.141 A 
ATOM     24  C   UNL     1       1.382   2.435   1.379  0.00  0.00    +0.041 A 
ATOM     25  C   UNL     1       1.347   3.773   1.775  0.00  0.00    +0.013 A 
ATOM     26  C   UNL     1       2.507   4.392   2.184  0.00  0.00    +0.001 A 
ATOM     27  C   UNL     1       3.705   3.693   2.204  0.00  0.00    +0.004 A 
ATOM     28  C   UNL     1       3.752   2.370   1.816  0.00  0.00    +0.047 A 
ATOM     29  H   UNL     1      -1.118   3.450   1.198  0.00  0.00    +0.160 HD
BRANCH  21  30
ATOM     30  O   UNL     1       1.598  -1.377   0.272  0.00  0.00    -0.480 OA
ATOM     31  H   UNL     1       2.570  -1.892   0.304  0.00  0.00    +0.295 HD
ENDBRANCH  21  30
ENDBRANCH  17  18
ENDBRANCH   1  17
TORSDOF 6
