REMARK  Name = ZINC40069145
REMARK  6 active torsions:
REMARK  status: ('A' for Active; 'I' for Inactive)
REMARK    1  A    between atoms: C_1  and  C_2
REMARK    2  A    between atoms: C_10  and  C_11
REMARK    3  A    between atoms: N_13  and  N_14
REMARK    4  A    between atoms: C_15  and  C_17
REMARK    5  A    between atoms: N_22  and  S_23
REMARK    6  A    between atoms: S_23  and  C_26
REMARK                            x       y       z     vdW  Elec       q    Type
REMARK                         _______ _______ _______ _____ _____    ______ ____
ROOT
ATOM      1  N   UNL     1      -0.004  -1.470   4.607  0.00  0.00    -0.233 N 
ATOM      2  C   UNL     1       0.342  -2.124   5.734  0.00  0.00    +0.248 C 
ATOM      3  O   UNL     1       0.785  -3.251   5.668  0.00  0.00    -0.273 OA
ATOM      4  H   UNL     1      -0.358  -0.568   4.660  0.00  0.00    +0.173 HD
ENDROOT
BRANCH   2   5
ATOM      5  C   UNL     1       0.176  -1.456   7.074  0.00  0.00    +0.167 C 
ATOM      6  C   UNL     1       1.450  -0.658   7.424  0.00  0.00    +0.031 C 
ATOM      7  C   UNL     1       1.604  -0.900   8.949  0.00  0.00    +0.019 C 
ATOM      8  C   UNL     1       1.108  -2.361   9.084  0.00  0.00    +0.110 C 
ATOM      9  N   UNL     1      -0.007  -2.473   8.121  0.00  0.00    -0.165 NA
BRANCH   9  10
ATOM     10  S   UNL     1      -1.254  -3.559   8.203  0.00  0.00    +0.062 S 
ATOM     11  O   UNL     1      -1.836  -3.608   6.908  0.00  0.00    -0.153 OA
ATOM     12  O   UNL     1      -0.743  -4.715   8.853  0.00  0.00    -0.153 OA
BRANCH  10  13
ATOM     13  C   UNL     1      -2.471  -2.875   9.277  0.00  0.00    +0.106 A 
ATOM     14  C   UNL     1      -2.373  -3.063  10.643  0.00  0.00    +0.028 A 
ATOM     15  C   UNL     1      -3.328  -2.526  11.485  0.00  0.00    +0.002 A 
ATOM     16  C   UNL     1      -4.381  -1.800  10.962  0.00  0.00    +0.000 A 
ATOM     17  C   UNL     1      -4.480  -1.611   9.596  0.00  0.00    +0.002 A 
ATOM     18  C   UNL     1      -3.522  -2.145   8.754  0.00  0.00    +0.028 A 
ENDBRANCH  10  13
ENDBRANCH   9  10
ENDBRANCH   2   5
BRANCH   1  21
ATOM     19  C   UNL     1      -0.195  -1.436   2.235  0.00  0.00    +0.296 C 
ATOM     20  O   UNL     1      -0.640  -0.306   2.300  0.00  0.00    -0.265 OA
ATOM     21  N   UNL     1       0.150  -2.091   3.361  0.00  0.00    -0.228 N 
ATOM     22  H   UNL     1       0.505  -2.992   3.309  0.00  0.00    +0.173 HD
BRANCH  19  32
ATOM     23  C   UNL     1      -0.912  -0.150  -0.505  0.00  0.00    +0.048 C 
ATOM     24  C   UNL     1      -0.347  -1.527  -0.270  0.00  0.00    +0.008 A 
ATOM     25  C   UNL     1      -0.018  -2.528  -1.284  0.00  0.00    +0.024 A 
ATOM     26  C   UNL     1      -0.100  -2.564  -2.678  0.00  0.00    +0.012 A 
ATOM     27  C   UNL     1       0.300  -3.684  -3.351  0.00  0.00    +0.001 A 
ATOM     28  C   UNL     1       0.787  -4.785  -2.658  0.00  0.00    +0.004 A 
ATOM     29  C   UNL     1       0.876  -4.768  -1.283  0.00  0.00    +0.047 A 
ATOM     30  C   UNL     1       0.475  -3.640  -0.577  0.00  0.00    +0.136 A 
ATOM     31  O   UNL     1       0.445  -3.335   0.735  0.00  0.00    -0.450 OA
ATOM     32  C   UNL     1      -0.034  -2.088   0.927  0.00  0.00    +0.195 A 
ENDBRANCH  19  32
ENDBRANCH   1  21
TORSDOF 5
