REMARK  Name = ZINC67012848
REMARK  6 active torsions:
REMARK  status: ('A' for Active; 'I' for Inactive)
REMARK    1  A    between atoms: C_1  and  N_2
REMARK    2  A    between atoms: N_2  and  C_3
REMARK    3  A    between atoms: C_3  and  C_4
REMARK    4  A    between atoms: N_6  and  C_7
REMARK    5  A    between atoms: N_17  and  C_18
REMARK    6  A    between atoms: C_22  and  C_24
REMARK                            x       y       z     vdW  Elec       q    Type
REMARK                         _______ _______ _______ _____ _____    ______ ____
ROOT
ATOM      1  C   UNL     1       0.011   1.527   0.054  0.00  0.00    +0.134 C 
ATOM      2  N   UNL     1       0.214   0.076   0.039  0.00  0.00    -0.280 N 
ATOM      3  C   UNL     1       0.250  -0.587  -1.133  0.00  0.00    +0.307 C 
ATOM      4  O   UNL     1       0.419  -1.791  -1.145  0.00  0.00    -0.252 OA
ATOM      5  N   UNL     1       0.099   0.083  -2.292  0.00  0.00    -0.269 N 
ATOM      6  H   UNL     1       0.040   1.052  -2.288  0.00  0.00    +0.156 HD
ENDROOT
BRANCH   5   7
ATOM      7  C   UNL     1       0.028  -0.617  -3.502  0.00  0.00    +0.036 A 
ATOM      8  C   UNL     1      -0.568  -1.872  -3.545  0.00  0.00    +0.025 A 
ATOM      9  C   UNL     1      -0.641  -2.569  -4.736  0.00  0.00    +0.022 A 
ATOM     10  C   UNL     1      -0.121  -2.022  -5.893  0.00  0.00    +0.053 A 
ATOM     11  C   UNL     1       0.479  -0.761  -5.861  0.00  0.00    +0.057 A 
ATOM     12  C   UNL     1       0.547  -0.057  -4.658  0.00  0.00    +0.037 A 
ATOM     13 CL   UNL     1      -0.214  -2.902  -7.387  0.00  0.00    -0.083 Cl
BRANCH  11  14
ATOM     14  C   UNL     1       1.037  -0.174  -7.097  0.00  0.00    +0.243 C 
ATOM     15  O   UNL     1       0.973  -0.788  -8.144  0.00  0.00    -0.270 OA
ATOM     16  N   UNL     1       1.616   1.043  -7.063  0.00  0.00    -0.325 N 
ATOM     17  H   UNL     1       1.667   1.533  -6.227  0.00  0.00    +0.145 HD
ATOM     18  H   UNL     1       1.982   1.429  -7.874  0.00  0.00    +0.145 HD
ENDBRANCH  11  14
ENDBRANCH   5   7
BRANCH   2  19
ATOM     19  C   UNL     1       0.379  -0.653   1.299  0.00  0.00    +0.205 C 
BRANCH  19  20
ATOM     20  C   UNL     1      -0.970  -1.101   1.800  0.00  0.00    +0.235 C 
ATOM     21  O   UNL     1      -1.971  -0.837   1.167  0.00  0.00    -0.274 OA
ATOM     22  N   UNL     1      -1.065  -1.794   2.952  0.00  0.00    -0.284 N 
ATOM     23  H   UNL     1      -0.262  -2.064   3.423  0.00  0.00    +0.155 HD
BRANCH  22  24
ATOM     24  C   UNL     1      -2.323  -2.126   3.467  0.00  0.00    +0.039 A 
ATOM     25  C   UNL     1      -2.533  -2.132   4.839  0.00  0.00    +0.061 A 
ATOM     26  C   UNL     1      -3.777  -2.461   5.347  0.00  0.00    +0.128 A 
ATOM     27  C   UNL     1      -4.814  -2.783   4.487  0.00  0.00    +0.076 A 
ATOM     28  C   UNL     1      -4.607  -2.778   3.118  0.00  0.00    +0.128 A 
ATOM     29  C   UNL     1      -3.365  -2.444   2.606  0.00  0.00    +0.061 A 
ATOM     30  F   UNL     1      -5.619  -3.094   2.281  0.00  0.00    -0.205 F 
ATOM     31  F   UNL     1      -3.982  -2.467   6.682  0.00  0.00    -0.205 F 
ENDBRANCH  22  24
ENDBRANCH  19  20
ENDBRANCH   2  19
TORSDOF 5
