REMARK  Name = ZINC40750125
REMARK  3 active torsions:
REMARK  status: ('A' for Active; 'I' for Inactive)
REMARK    1  A    between atoms: C_2  and  C_12
REMARK    2  A    between atoms: C_12  and  N_13
REMARK    3  A    between atoms: C_21  and  N_23
REMARK                            x       y       z     vdW  Elec       q    Type
REMARK                         _______ _______ _______ _____ _____    ______ ____
ROOT
ATOM      1  C   UNL     1       1.146   3.598   0.011  0.00  0.00    +0.121 C 
ENDROOT
BRANCH   1   3
ATOM      2  C   UNL     1      -0.017   1.382   0.010  0.00  0.00    +0.055 A 
ATOM      3  C   UNL     1       1.170   2.091   0.002  0.00  0.00    -0.016 A 
ATOM      4  C   UNL     1       2.379   1.420  -0.014  0.00  0.00    +0.026 A 
ATOM      5  C   UNL     1       2.404   0.037  -0.024  0.00  0.00    +0.065 A 
ATOM      6  C   UNL     1       1.217  -0.679  -0.017  0.00  0.00    +0.163 A 
ATOM      7  C   UNL     1       0.002  -0.004   0.002  0.00  0.00    +0.162 A 
ATOM      8  O   UNL     1      -1.175  -0.688   0.016  0.00  0.00    -0.485 OA
ATOM      9  C   UNL     1      -1.122  -2.066  -0.368  0.00  0.00    +0.270 C 
ATOM     10  C   UNL     1       0.060  -2.723   0.357  0.00  0.00    +0.270 C 
ATOM     11  O   UNL     1       1.258  -2.040  -0.031  0.00  0.00    -0.485 OA
ATOM     12 BR   UNL     1       4.000   2.394  -0.023  0.00  0.00    -0.050 Br
ENDBRANCH   1   3
BRANCH   1  13
ATOM     13  N   UNL     1       1.510   4.086   1.348  0.00  0.00    -0.292 NA
ATOM     14  C   UNL     1       0.383   3.913   2.303  0.00  0.00    +0.056 C 
ATOM     15  C   UNL     1      -0.585   5.069   1.961  0.00  0.00    +0.020 C 
ATOM     16  C   UNL     1       0.306   6.155   1.323  0.00  0.00    +0.020 C 
ATOM     17  C   UNL     1       1.731   5.556   1.337  0.00  0.00    +0.056 C 
ATOM     18  C   UNL     1       2.385   5.929   2.677  0.00  0.00    +0.003 C 
ATOM     19  C   UNL     1       1.401   5.623   3.810  0.00  0.00    -0.072 C 
ATOM     20  C   UNL     1       0.942   4.151   3.715  0.00  0.00    +0.003 C 
BRANCH  19  21
ATOM     21  N   UNL     1       2.063   5.840   5.104  0.00  0.00    +0.380 N 
ATOM     22  H   UNL     1       2.364   6.801   5.170  0.00  0.00    -0.090 HD
ATOM     23  H   UNL     1       1.415   5.639   5.851  0.00  0.00    -0.090 HD
ATOM     24  H   UNL     1       2.863   5.231   5.179  0.00  0.00    -0.090 HD
ENDBRANCH  19  21
ENDBRANCH   1  13
TORSDOF 3
