REMARK  Name = ZINC37696192
REMARK  4 active torsions:
REMARK  status: ('A' for Active; 'I' for Inactive)
REMARK    1  A    between atoms: C_3  and  N_17
REMARK    2  A    between atoms: C_5  and  O_7
REMARK    3  A    between atoms: O_7  and  C_8
REMARK    4  A    between atoms: C_14  and  O_16
REMARK                            x       y       z     vdW  Elec       q    Type
REMARK                         _______ _______ _______ _____ _____    ______ ____
ROOT
ATOM      1  C   UNL     1       2.345   1.399  -0.448  0.00  0.00    +0.006 A 
ATOM      2  C   UNL     1       1.135   2.038  -0.643  0.00  0.00    +0.033 A 
ATOM      3  C   UNL     1      -0.042   1.313  -0.631  0.00  0.00    +0.130 A 
ATOM      4  C   UNL     1      -0.011  -0.053  -0.423  0.00  0.00    +0.078 A 
ATOM      5  C   UNL     1       1.202  -0.696  -0.227  0.00  0.00    +0.123 A 
ATOM      6  C   UNL     1       2.382   0.034  -0.241  0.00  0.00    +0.046 A 
ENDROOT
BRANCH   3   7
ATOM      7  N   UNL     1      -1.337   2.000  -0.840  0.00  0.00    +0.057 N 
ATOM      8  O   UNL     1      -1.364   3.195  -1.021  0.00  0.00    -0.126 OA
ATOM      9  O   UNL     1      -2.366   1.366  -0.829  0.00  0.00    -0.126 OA
ENDBRANCH   3   7
BRANCH   5  10
ATOM     10  O   UNL     1       1.235  -2.039  -0.022  0.00  0.00    -0.486 OA
BRANCH  10  11
ATOM     11  C   UNL     1      -0.022  -2.708   0.097  0.00  0.00    +0.202 C 
ATOM     12  C   UNL     1      -0.552  -3.051  -1.296  0.00  0.00    +0.047 C 
ATOM     13  C   UNL     1      -1.898  -3.768  -1.169  0.00  0.00    +0.004 C 
ATOM     14  C   UNL     1      -1.716  -5.054  -0.361  0.00  0.00    +0.003 C 
ATOM     15  C   UNL     1      -1.186  -4.711   1.033  0.00  0.00    +0.035 C 
ATOM     16  C   UNL     1       0.160  -3.995   0.905  0.00  0.00    +0.155 C 
BRANCH  16  17
ATOM     17  O   UNL     1       0.654  -3.674   2.207  0.00  0.00    -0.388 OA
ATOM     18  H   UNL     1       0.793  -4.444   2.775  0.00  0.00    +0.210 HD
ENDBRANCH  16  17
ENDBRANCH  10  11
ENDBRANCH   5  10
TORSDOF 4
