REMARK  Name = ZINC66233658
REMARK  8 active torsions:
REMARK  status: ('A' for Active; 'I' for Inactive)
REMARK    1  A    between atoms: C_1  and  N_2
REMARK    2  A    between atoms: C_6  and  C_7
REMARK    3  A    between atoms: C_7  and  C_8
REMARK    4  A    between atoms: C_8  and  N_9
REMARK    5  A    between atoms: N_12  and  C_13
REMARK    6  A    between atoms: C_13  and  C_14
REMARK    7  A    between atoms: C_17  and  N_20
REMARK    8  A    between atoms: C_21  and  C_23
REMARK                            x       y       z     vdW  Elec       q    Type
REMARK                         _______ _______ _______ _____ _____    ______ ____
ROOT
ATOM      1  N   UNL     1       1.570   0.557   4.298  0.00  0.00    -0.299 N 
ATOM      2  C   UNL     1       2.708   0.505   5.018  0.00  0.00    +0.300 C 
ATOM      3  O   UNL     1       3.739   0.122   4.499  0.00  0.00    -0.253 OA
ATOM      4  N   UNL     1       2.704   0.877   6.313  0.00  0.00    -0.295 N 
ATOM      5  H   UNL     1       0.748   0.863   4.711  0.00  0.00    +0.150 HD
ATOM      6  H   UNL     1       1.881   1.183   6.727  0.00  0.00    +0.151 HD
ENDROOT
BRANCH   1   7
ATOM      7  C   UNL     1       1.575   0.153   2.889  0.00  0.00    +0.113 C 
BRANCH   7   8
ATOM      8  C   UNL     1       0.168   0.307   2.310  0.00  0.00    +0.091 C 
BRANCH   8  14
ATOM      9  C   UNL     1       0.492   2.172  -0.143  0.00  0.00    +0.150 C 
ATOM     10  N   UNL     1       0.315   0.719  -0.195  0.00  0.00    -0.339 N 
ATOM     11  C   UNL     1       0.269  -0.053  -1.325  0.00  0.00    +0.104 A 
ATOM     12  C   UNL     1       0.095  -1.326  -0.919  0.00  0.00    +0.101 A 
ATOM     13  N   UNL     1       0.036  -1.330   0.420  0.00  0.00    -0.350 N 
ATOM     14  C   UNL     1       0.173  -0.110   0.861  0.00  0.00    +0.088 A 
ATOM     15  H   UNL     1      -0.084  -2.117   0.975  0.00  0.00    +0.166 HD
ENDBRANCH   8  14
ENDBRANCH   7   8
ENDBRANCH   1   7
BRANCH   4  16
ATOM     16  C   UNL     1       3.941   0.820   7.096  0.00  0.00    +0.141 C 
BRANCH  16  17
ATOM     17  C   UNL     1       3.667   1.286   8.503  0.00  0.00    -0.030 A 
ATOM     18  C   UNL     1       3.792   2.626   8.823  0.00  0.00    +0.007 A 
ATOM     19  C   UNL     1       3.542   3.055  10.111  0.00  0.00    +0.023 A 
ATOM     20  C   UNL     1       3.163   2.141  11.085  0.00  0.00    +0.034 A 
ATOM     21  C   UNL     1       3.038   0.797  10.761  0.00  0.00    +0.023 A 
ATOM     22  C   UNL     1       3.285   0.374   9.469  0.00  0.00    +0.007 A 
BRANCH  20  23
ATOM     23  N   UNL     1       2.910   2.573  12.392  0.00  0.00    -0.278 N 
ATOM     24  C   UNL     1       2.376   3.792  12.607  0.00  0.00    +0.321 C 
ATOM     25  O   UNL     1       2.028   4.476  11.667  0.00  0.00    -0.266 OA
ATOM     26  H   UNL     1       3.118   1.996  13.143  0.00  0.00    +0.155 HD
BRANCH  24  27
ATOM     27  C   UNL     1       2.213   4.306  14.014  0.00  0.00    +0.470 C 
ATOM     28  F   UNL     1       1.642   5.583  13.981  0.00  0.00    -0.162 F 
ATOM     29  F   UNL     1       1.380   3.441  14.732  0.00  0.00    -0.162 F 
ATOM     30  F   UNL     1       3.465   4.371  14.635  0.00  0.00    -0.162 F 
ENDBRANCH  24  27
ENDBRANCH  20  23
ENDBRANCH  16  17
ENDBRANCH   4  16
TORSDOF 7
