REMARK  Name = ZINC22816592
REMARK  10 active torsions:
REMARK  status: ('A' for Active; 'I' for Inactive)
REMARK    1  A    between atoms: C_1  and  C_2
REMARK    2  A    between atoms: C_3  and  C_30
REMARK    3  A    between atoms: C_4  and  C_29
REMARK    4  A    between atoms: C_7  and  C_8
REMARK    5  A    between atoms: C_8  and  C_10
REMARK    6  A    between atoms: C_10  and  C_12
REMARK    7  A    between atoms: C_10  and  N_13
REMARK    8  A    between atoms: N_16  and  C_19
REMARK    9  A    between atoms: C_19  and  C_20
REMARK   10  A    between atoms: C_30  and  C_32
REMARK                            x       y       z     vdW  Elec       q    Type
REMARK                         _______ _______ _______ _____ _____    ______ ____
ROOT
ATOM      1  N   UNL     1      -2.257   8.287   3.617  0.00  0.00    -0.296 NA
ATOM      2  C   UNL     1      -3.684   8.143   3.300  0.00  0.00    +0.066 C 
ATOM      3  C   UNL     1      -4.504   9.038   4.233  0.00  0.00    -0.063 C 
ATOM      4  N   UNL     1      -4.070  10.433   4.076  0.00  0.00    +0.387 N 
ATOM      5  C   UNL     1      -2.642  10.576   4.394  0.00  0.00    -0.063 C 
ATOM      6  C   UNL     1      -1.822   9.682   3.461  0.00  0.00    +0.066 C 
ATOM      7  H   UNL     1      -4.214  10.718   3.023  0.00  0.00    -0.081 HD
ENDROOT
BRANCH   1   8
ATOM      8  C   UNL     1      -1.441   7.386   2.792  0.00  0.00    +0.126 C 
ATOM      9  C   UNL     1       0.025   7.494   3.216  0.00  0.00    +0.033 C 
BRANCH   8  10
ATOM     10  C   UNL     1      -1.915   5.967   2.979  0.00  0.00    +0.196 C 
ATOM     11  O   UNL     1      -2.642   5.687   3.910  0.00  0.00    -0.289 OA
BRANCH  10  18
ATOM     12  C   UNL     1      -2.756   2.981   3.151  0.00  0.00    +0.047 C 
ATOM     13  C   UNL     1      -1.869   3.632   2.121  0.00  0.00    -0.012 A 
ATOM     14  C   UNL     1      -1.245   2.996   1.024  0.00  0.00    +0.041 A 
ATOM     15  C   UNL     1      -0.524   3.968   0.346  0.00  0.00    +0.024 A 
ATOM     16  N   UNL     1      -0.692   5.141   0.972  0.00  0.00    -0.355 N 
ATOM     17  H   UNL     1      -0.203   6.047   0.584  0.00  0.00    +0.166 HD
ATOM     18  C   UNL     1      -1.511   4.961   2.068  0.00  0.00    +0.088 A 
ATOM     19  C   UNL     1       0.307   3.743  -0.891  0.00  0.00    +0.064 C 
BRANCH  14  20
ATOM     20  C   UNL     1      -1.337   1.575   0.672  0.00  0.00    +0.162 C 
ATOM     21  O   UNL     1      -0.548   0.782   1.142  0.00  0.00    -0.292 OA
ATOM     22  C   UNL     1      -2.411   1.101  -0.272  0.00  0.00    +0.091 C 
ENDBRANCH  14  20
ENDBRANCH  10  18
ENDBRANCH   8  10
ENDBRANCH   1   8
BRANCH   4  23
ATOM     23  C   UNL     1      -4.885  11.334   4.901  0.00  0.00    +0.019 C 
BRANCH  23  24
ATOM     24  C   UNL     1      -4.583  12.764   4.533  0.00  0.00    +0.199 C 
ATOM     25  O   UNL     1      -3.854  13.007   3.595  0.00  0.00    -0.278 OA
ATOM     26  N   UNL     1      -5.123  13.772   5.246  0.00  0.00    -0.303 N 
ATOM     27  C   UNL     1      -5.993  13.448   6.355  0.00  0.00    +0.107 C 
ATOM     28  C   UNL     1      -7.450  13.328   5.861  0.00  0.00    +0.019 C 
ATOM     29  C   UNL     1      -7.983  14.654   5.513  0.00  0.00    +0.002 C 
ATOM     30  C   UNL     1      -7.250  15.344   4.367  0.00  0.00    +0.002 C 
ATOM     31  C   UNL     1      -6.046  16.074   4.910  0.00  0.00    +0.019 C 
ATOM     32  C   UNL     1      -4.807  15.161   4.859  0.00  0.00    +0.107 C 
ENDBRANCH  23  24
ENDBRANCH   4  23
TORSDOF 6
