REMARK  Name = ZINC12923476
REMARK  6 active torsions:
REMARK  status: ('A' for Active; 'I' for Inactive)
REMARK    1  A    between atoms: C_3  and  C_6
REMARK    2  A    between atoms: C_6  and  N_7
REMARK    3  A    between atoms: C_11  and  S_13
REMARK    4  A    between atoms: S_13  and  C_14
REMARK    5  A    between atoms: C_14  and  C_15
REMARK    6  A    between atoms: N_21  and  C_22
REMARK                            x       y       z     vdW  Elec       q    Type
REMARK                         _______ _______ _______ _____ _____    ______ ____
ROOT
ATOM      1  C   UNL     1       4.387  11.246   3.042  0.00  0.00    +0.146 A 
ATOM      2  N   UNL     1       3.491  12.114   3.480  0.00  0.00    -0.199 NA
ATOM      3  C   UNL     1       3.886  13.256   4.038  0.00  0.00    +0.217 A 
ATOM      4  N   UNL     1       5.182  13.528   4.145  0.00  0.00    -0.181 NA
ATOM      5  C   UNL     1       6.079  12.656   3.699  0.00  0.00    +0.224 A 
ATOM      6  N   UNL     1       5.677  11.514   3.147  0.00  0.00    -0.198 NA
ATOM      7  N   UNL     1       7.428  12.935   3.808  0.00  0.00    -0.284 N 
ATOM      8  N   UNL     1       2.950  14.158   4.500  0.00  0.00    -0.327 N 
ATOM      9  H   UNL     1       8.083  12.265   3.557  0.00  0.00    +0.155 HD
ATOM     10  H   UNL     1       3.238  14.992   4.904  0.00  0.00    +0.145 HD
ATOM     11  H   UNL     1       2.003  13.959   4.422  0.00  0.00    +0.145 HD
ENDROOT
BRANCH   7  12
ATOM     12  C   UNL     1       7.848  14.182   4.282  0.00  0.00    +0.034 A 
ATOM     13  C   UNL     1       7.102  15.320   4.003  0.00  0.00    +0.025 A 
ATOM     14  C   UNL     1       7.516  16.549   4.477  0.00  0.00    +0.022 A 
ATOM     15  C   UNL     1       8.680  16.649   5.220  0.00  0.00    +0.041 A 
ATOM     16  C   UNL     1       9.428  15.518   5.494  0.00  0.00    +0.022 A 
ATOM     17  C   UNL     1       9.016  14.285   5.027  0.00  0.00    +0.025 A 
ATOM     18 CL   UNL     1       9.201  18.197   5.809  0.00  0.00    -0.084 Cl
ENDBRANCH   7  12
BRANCH   1  19
ATOM     19  C   UNL     1       3.936   9.952   2.416  0.00  0.00    +0.152 C 
BRANCH  19  20
ATOM     20  S   UNL     1       3.787   8.679   3.700  0.00  0.00    -0.089 S 
BRANCH  20  25
ATOM     21  N   UNL     1       2.063   3.556   1.605  0.00  0.00    -0.315 N 
ATOM     22  C   UNL     1       2.461   4.860   1.876  0.00  0.00    +0.183 A 
ATOM     23  N   UNL     1       2.610   5.876   1.049  0.00  0.00    -0.125 NA
ATOM     24  N   UNL     1       3.019   7.098   1.532  0.00  0.00    -0.133 NA
ATOM     25  C   UNL     1       3.259   7.246   2.821  0.00  0.00    +0.160 A 
ATOM     26  S   UNL     1       2.899   5.609   3.437  0.00  0.00    -0.025 S 
ATOM     27  H   UNL     1       1.997   2.909   2.326  0.00  0.00    +0.148 HD
BRANCH  21  28
ATOM     28  C   UNL     1       1.742   3.158   0.233  0.00  0.00    +0.178 C 
BRANCH  28  31
ATOM     29  C   UNL     1       0.174  -0.178   0.275  0.00  0.00    +0.041 A 
ATOM     30  C   UNL     1       0.091   1.231   0.362  0.00  0.00    +0.046 A 
ATOM     31  C   UNL     1       1.341   1.705   0.212  0.00  0.00    +0.122 A 
ATOM     32  O   UNL     1       2.172   0.664   0.039  0.00  0.00    -0.466 OA
ATOM     33  C   UNL     1       1.470  -0.481   0.077  0.00  0.00    +0.195 A 
ENDBRANCH  28  31
ENDBRANCH  21  28
ENDBRANCH  20  25
ENDBRANCH  19  20
ENDBRANCH   1  19
TORSDOF 6
