REMARK  Name = ZINC10037814
REMARK  7 active torsions:
REMARK  status: ('A' for Active; 'I' for Inactive)
REMARK    1  A    between atoms: C_1  and  C_2
REMARK    2  A    between atoms: C_5  and  N_8
REMARK    3  A    between atoms: C_12  and  S_13
REMARK    4  A    between atoms: S_13  and  C_14
REMARK    5  A    between atoms: C_14  and  C_15
REMARK    6  A    between atoms: N_17  and  N_18
REMARK    7  A    between atoms: C_24  and  C_27
REMARK                            x       y       z     vdW  Elec       q    Type
REMARK                         _______ _______ _______ _____ _____    ______ ____
ROOT
ATOM      1  C   UNL     1      -0.798   4.072   0.028  0.00  0.00    +0.174 C 
ENDROOT
BRANCH   1   2
ATOM      2  C   UNL     1      -1.940   5.055   0.039  0.00  0.00    +0.240 C 
ATOM      3  O   UNL     1      -3.085   4.655   0.043  0.00  0.00    -0.273 OA
ATOM      4  N   UNL     1      -1.690   6.380   0.045  0.00  0.00    -0.223 N 
ATOM      5  H   UNL     1      -0.774   6.700   0.042  0.00  0.00    +0.174 HD
BRANCH   4   6
ATOM      6  N   UNL     1      -2.752   7.293   0.055  0.00  0.00    -0.137 N 
ATOM      7  C   UNL     1      -3.133   8.001   1.139  0.00  0.00    +0.263 C 
ATOM      8  O   UNL     1      -2.641   7.969   2.247  0.00  0.00    -0.271 OA
ATOM      9  C   UNL     1      -4.302   8.843   0.681  0.00  0.00    +0.114 C 
ATOM     10  C   UNL     1      -3.977  10.326   0.824  0.00  0.00    +0.035 C 
ATOM     11  C   UNL     1      -5.161  11.160   0.330  0.00  0.00    +0.006 C 
ATOM     12  C   UNL     1      -6.406  10.812   1.148  0.00  0.00    -0.014 C 
ATOM     13  C   UNL     1      -6.733   9.328   0.974  0.00  0.00    +0.006 C 
ATOM     14  C   UNL     1      -5.556   8.486   1.471  0.00  0.00    +0.035 C 
ATOM     15  C   UNL     1      -7.587  11.655   0.662  0.00  0.00    +0.007 C 
ATOM     16  N   UNL     1      -4.465   8.486  -0.734  0.00  0.00    -0.284 N 
ATOM     17  C   UNL     1      -3.510   7.577  -1.010  0.00  0.00    +0.326 C 
ATOM     18  O   UNL     1      -3.357   7.069  -2.104  0.00  0.00    -0.251 OA
ATOM     19  H   UNL     1      -5.127   8.838  -1.349  0.00  0.00    +0.151 HD
ENDBRANCH   4   6
ENDBRANCH   1   2
BRANCH   1  20
ATOM     20  S   UNL     1      -1.456   2.382   0.022  0.00  0.00    -0.076 S 
BRANCH  20  25
ATOM     21  N   UNL     1       0.002  -0.004   0.002  0.00  0.00    -0.259 N 
ATOM     22  C   UNL     1       1.310  -0.407  -0.013  0.00  0.00    +0.225 A 
ATOM     23  N   UNL     1       2.064   0.664  -0.014  0.00  0.00    -0.112 NA
ATOM     24  N   UNL     1       1.225   1.786   0.000  0.00  0.00    -0.120 NA
ATOM     25  C   UNL     1      -0.017   1.365   0.009  0.00  0.00    +0.198 A 
ATOM     26  N   UNL     1       1.759  -1.722  -0.024  0.00  0.00    -0.299 N 
ATOM     27  C   UNL     1       1.315  -2.425  -1.256  0.00  0.00    +0.108 C 
ATOM     28  C   UNL     1       2.298  -3.618  -1.356  0.00  0.00    +0.020 C 
ATOM     29  C   UNL     1       3.635  -3.006  -0.876  0.00  0.00    +0.020 C 
ATOM     30  C   UNL     1       3.237  -1.777  -0.039  0.00  0.00    +0.108 C 
BRANCH  21  35
ATOM     31  C   UNL     1      -4.542  -3.406   0.025  0.00  0.00    +0.044 C 
ATOM     32  C   UNL     1      -3.336  -2.503   0.019  0.00  0.00    -0.050 A 
ATOM     33  C   UNL     1      -3.097  -1.677  -1.064  0.00  0.00    +0.005 A 
ATOM     34  C   UNL     1      -1.992  -0.849  -1.073  0.00  0.00    +0.026 A 
ATOM     35  C   UNL     1      -1.121  -0.845   0.008  0.00  0.00    +0.052 A 
ATOM     36  C   UNL     1      -1.360  -1.678   1.092  0.00  0.00    +0.026 A 
ATOM     37  C   UNL     1      -2.470  -2.501   1.097  0.00  0.00    +0.005 A 
ENDBRANCH  21  35
ENDBRANCH  20  25
ENDBRANCH   1  20
TORSDOF 5
