REMARK  Name = ZINC07256068
REMARK  5 active torsions:
REMARK  status: ('A' for Active; 'I' for Inactive)
REMARK    1  A    between atoms: C_1  and  C_2
REMARK    2  A    between atoms: C_5  and  N_8
REMARK    3  A    between atoms: C_11  and  C_16
REMARK    4  A    between atoms: C_16  and  N_17
REMARK    5  A    between atoms: C_19  and  C_25
REMARK                            x       y       z     vdW  Elec       q    Type
REMARK                         _______ _______ _______ _____ _____    ______ ____
ROOT
ATOM      1  N   UNL     1       2.432  -1.527  -3.975  0.00  0.00    -0.284 N 
ATOM      2  C   UNL     1       2.971  -0.461  -3.282  0.00  0.00    +0.224 A 
ATOM      3  N   UNL     1       2.603  -0.230  -2.023  0.00  0.00    -0.197 NA
ATOM      4  C   UNL     1       3.115   0.792  -1.361  0.00  0.00    +0.156 A 
ATOM      5  N   UNL     1       4.001   1.583  -1.940  0.00  0.00    -0.198 NA
ATOM      6  C   UNL     1       4.377   1.356  -3.196  0.00  0.00    +0.217 A 
ATOM      7  N   UNL     1       3.861   0.332  -3.868  0.00  0.00    -0.181 NA
ATOM      8  N   UNL     1       5.302   2.183  -3.801  0.00  0.00    -0.327 N 
ATOM      9  H   UNL     1       1.844  -2.152  -3.523  0.00  0.00    +0.155 HD
ATOM     10  H   UNL     1       5.678   2.930  -3.311  0.00  0.00    +0.145 HD
ATOM     11  H   UNL     1       5.576   2.017  -4.717  0.00  0.00    +0.145 HD
ENDROOT
BRANCH   1  16
ATOM     12  C   UNL     1       3.657  -2.250  -9.466  0.00  0.00    +0.044 C 
ATOM     13  C   UNL     1       3.332  -2.058  -8.007  0.00  0.00    -0.050 A 
ATOM     14  C   UNL     1       3.123  -3.159  -7.196  0.00  0.00    +0.005 A 
ATOM     15  C   UNL     1       2.825  -2.986  -5.859  0.00  0.00    +0.023 A 
ATOM     16  C   UNL     1       2.735  -1.705  -5.329  0.00  0.00    +0.034 A 
ATOM     17  C   UNL     1       2.940  -0.602  -6.147  0.00  0.00    +0.023 A 
ATOM     18  C   UNL     1       3.244  -0.782  -7.482  0.00  0.00    +0.005 A 
ENDBRANCH   1  16
BRANCH   4  19
ATOM     19  C   UNL     1       2.691   1.053   0.062  0.00  0.00    +0.201 C 
BRANCH  19  20
ATOM     20  N   UNL     1       1.532   1.950   0.070  0.00  0.00    -0.306 N 
ATOM     21  C   UNL     1       1.724   3.293   0.116  0.00  0.00    +0.102 A 
ATOM     22  C   UNL     1       0.669   4.142   0.124  0.00  0.00    +0.073 A 
ATOM     23  C   UNL     1      -0.638   3.635   0.084  0.00  0.00    +0.039 A 
ATOM     24  C   UNL     1      -0.828   2.285   0.031  0.00  0.00    +0.106 A 
ATOM     25  C   UNL     1       0.290   1.432   0.030  0.00  0.00    +0.270 A 
ATOM     26  O   UNL     1       0.134   0.222  -0.012  0.00  0.00    -0.266 OA
ATOM     27 CL   UNL     1      -2.434   1.627  -0.027  0.00  0.00    -0.078 Cl
BRANCH  22  28
ATOM     28  C   UNL     1       0.899   5.630   0.176  0.00  0.00    +0.419 C 
ATOM     29  F   UNL     1       0.881   6.150  -1.122  0.00  0.00    -0.166 F 
ATOM     30  F   UNL     1      -0.110   6.232   0.934  0.00  0.00    -0.166 F 
ATOM     31  F   UNL     1       2.142   5.890   0.765  0.00  0.00    -0.166 F 
ENDBRANCH  22  28
ENDBRANCH  19  20
ENDBRANCH   4  19
TORSDOF 4
