REMARK  Name = ZINC66602747
REMARK  9 active torsions:
REMARK  status: ('A' for Active; 'I' for Inactive)
REMARK    1  A    between atoms: C_1  and  C_2
REMARK    2  A    between atoms: C_4  and  C_26
REMARK    3  A    between atoms: C_9  and  C_10
REMARK    4  A    between atoms: C_10  and  N_11
REMARK    5  A    between atoms: C_12  and  C_14
REMARK    6  A    between atoms: C_14  and  C_15
REMARK    7  A    between atoms: C_18  and  C_25
REMARK    8  A    between atoms: C_21  and  C_23
REMARK    9  A    between atoms: C_21  and  C_24
REMARK                            x       y       z     vdW  Elec       q    Type
REMARK                         _______ _______ _______ _____ _____    ______ ____
ROOT
ATOM      1  N   UNL     1      -1.348   0.142   2.992  0.00  0.00    -0.311 N 
ATOM      2  C   UNL     1      -1.592   0.762   4.163  0.00  0.00    +0.214 C 
ATOM      3  O   UNL     1      -0.674   1.227   4.806  0.00  0.00    -0.276 OA
ATOM      4  H   UNL     1      -2.083  -0.230   2.478  0.00  0.00    +0.149 HD
ENDROOT
BRANCH   1   5
ATOM      5  C   UNL     1       0.025   0.030   2.493  0.00  0.00    +0.145 C 
BRANCH   5  14
ATOM      6  C   UNL     1      -0.018   1.503   0.010  0.00  0.00    +0.044 C 
ATOM      7  C   UNL     1       0.002  -0.004   0.002  0.00  0.00    -0.039 A 
ATOM      8  C   UNL     1       0.006  -0.706  -1.212  0.00  0.00    +0.024 A 
ATOM      9  C   UNL     1       0.025  -2.059  -1.209  0.00  0.00    +0.016 A 
ATOM     10  N   UNL     1       0.040  -2.750  -0.040  0.00  0.00    -0.326 N 
ATOM     11  H   UNL     1       0.054  -3.720  -0.057  0.00  0.00    +0.169 HD
ATOM     12  C   UNL     1       0.037  -2.105   1.141  0.00  0.00    +0.254 A 
ATOM     13  O   UNL     1       0.051  -2.740   2.183  0.00  0.00    -0.268 OA
ATOM     14  C   UNL     1       0.023  -0.700   1.175  0.00  0.00    +0.037 A 
ATOM     15  C   UNL     1       0.029  -2.807  -2.517  0.00  0.00    +0.063 C 
ENDBRANCH   5  14
ENDBRANCH   1   5
BRANCH   2  16
ATOM     16  C   UNL     1      -3.004   0.877   4.676  0.00  0.00    +0.099 C 
BRANCH  16  17
ATOM     17  C   UNL     1      -3.002   1.618   6.015  0.00  0.00    -0.002 C 
ATOM     18  C   UNL     1      -2.531   3.058   5.800  0.00  0.00    +0.007 C 
ATOM     19  C   UNL     1      -2.529   3.799   7.138  0.00  0.00    -0.013 C 
ATOM     20  C   UNL     1      -3.944   3.807   7.719  0.00  0.00    +0.009 C 
ATOM     21  C   UNL     1      -4.415   2.368   7.934  0.00  0.00    -0.034 C 
ATOM     22  C   UNL     1      -4.418   1.626   6.595  0.00  0.00    +0.010 C 
ATOM     23  C   UNL     1      -3.469   1.661   8.906  0.00  0.00    +0.011 C 
ATOM     24  C   UNL     1      -5.831   2.376   8.514  0.00  0.00    +0.011 C 
ATOM     25  C   UNL     1      -2.057   5.239   6.923  0.00  0.00    +0.007 C 
ENDBRANCH  16  17
ENDBRANCH   2  16
TORSDOF 4
