REMARK  Name = ZINC45827837
REMARK  14 active torsions:
REMARK  status: ('A' for Active; 'I' for Inactive)
REMARK    1  A    between atoms: C_1  and  C_2
REMARK    2  A    between atoms: C_2  and  C_3
REMARK    3  A    between atoms: C_2  and  C_4
REMARK    4  A    between atoms: C_2  and  C_5
REMARK    5  A    between atoms: C_7  and  C_16
REMARK    6  A    between atoms: C_9  and  C_12
REMARK    7  A    between atoms: C_10  and  O_11
REMARK    8  A    between atoms: C_12  and  C_13
REMARK    9  A    between atoms: C_12  and  C_14
REMARK   10  A    between atoms: C_12  and  C_15
REMARK   11  A    between atoms: C_16  and  C_17
REMARK   12  A    between atoms: C_17  and  C_18
REMARK   13  A    between atoms: N_20  and  C_21
REMARK   14  A    between atoms: C_21  and  C_22
REMARK                            x       y       z     vdW  Elec       q    Type
REMARK                         _______ _______ _______ _____ _____    ______ ____
ROOT
ATOM      1  C   UNL     1       2.418   0.968  -4.270  0.00  0.00    +0.044 C 
ENDROOT
BRANCH   1   4
ATOM      2  C   UNL     1       0.707  -0.490  -1.238  0.00  0.00    -0.000 A 
ATOM      3  C   UNL     1       1.217   0.419  -2.145  0.00  0.00    +0.011 A 
ATOM      4  C   UNL     1       1.864  -0.026  -3.283  0.00  0.00    -0.046 A 
ATOM      5  C   UNL     1       2.003  -1.382  -3.516  0.00  0.00    +0.011 A 
ATOM      6  C   UNL     1       1.496  -2.295  -2.612  0.00  0.00    -0.000 A 
ATOM      7  C   UNL     1       0.851  -1.851  -1.467  0.00  0.00    +0.124 A 
BRANCH   2   9
ATOM      8  C   UNL     1      -0.019   1.526   0.010  0.00  0.00    +0.015 C 
ATOM      9  C   UNL     1       0.002  -0.004   0.002  0.00  0.00    -0.009 C 
ATOM     10  C   UNL     1       0.742  -0.511   1.242  0.00  0.00    +0.015 C 
ATOM     11  C   UNL     1      -1.433  -0.534   0.013  0.00  0.00    +0.015 C 
ENDBRANCH   2   9
BRANCH   6  12
ATOM     12  C   UNL     1       1.648  -3.773  -2.867  0.00  0.00    -0.009 C 
ATOM     13  C   UNL     1       2.396  -3.989  -4.184  0.00  0.00    +0.015 C 
ATOM     14  C   UNL     1       2.438  -4.409  -1.722  0.00  0.00    +0.015 C 
ATOM     15  C   UNL     1       0.264  -4.420  -2.953  0.00  0.00    +0.015 C 
ENDBRANCH   6  12
BRANCH   7  16
ATOM     16  O   UNL     1       0.356  -2.747  -0.573  0.00  0.00    -0.506 OA
ATOM     17  H   UNL     1      -0.556  -3.015  -0.749  0.00  0.00    +0.292 HD
ENDBRANCH   7  16
ENDBRANCH   1   4
BRANCH   1  18
ATOM     18  C   UNL     1       3.861   1.311  -3.894  0.00  0.00    +0.100 C 
BRANCH  18  19
ATOM     19  C   UNL     1       4.415   2.305  -4.881  0.00  0.00    +0.214 C 
ATOM     20  O   UNL     1       3.724   2.700  -5.797  0.00  0.00    -0.276 OA
ATOM     21  N   UNL     1       5.678   2.756  -4.748  0.00  0.00    -0.308 N 
ATOM     22  H   UNL     1       6.231   2.440  -4.016  0.00  0.00    +0.149 HD
BRANCH  21  23
ATOM     23  C   UNL     1       6.217   3.722  -5.708  0.00  0.00    +0.180 C 
BRANCH  23  24
ATOM     24  C   UNL     1       7.638   4.060  -5.337  0.00  0.00    +0.151 A 
ATOM     25  N   UNL     1       8.024   5.021  -4.540  0.00  0.00    -0.133 NA
ATOM     26  N   UNL     1       9.308   5.015  -4.443  0.00  0.00    -0.134 NA
ATOM     27  C   UNL     1       9.795   4.051  -5.170  0.00  0.00    +0.133 A 
ATOM     28  N   UNL     1       8.751   3.423  -5.761  0.00  0.00    -0.314 N 
ATOM     29  C   UNL     1       8.826   2.293  -6.688  0.00  0.00    +0.125 C 
ATOM     30  C   UNL     1      10.082   1.472  -6.387  0.00  0.00    +0.022 C 
ATOM     31  C   UNL     1      11.259   2.015  -7.197  0.00  0.00    +0.002 C 
ATOM     32  C   UNL     1      11.549   3.463  -6.812  0.00  0.00    +0.008 C 
ATOM     33  C   UNL     1      11.245   3.674  -5.331  0.00  0.00    +0.076 C 
ENDBRANCH  23  24
ENDBRANCH  21  23
ENDBRANCH  18  19
ENDBRANCH   1  18
TORSDOF 8
