REMARK  Name = ZINC36579166
REMARK  17 active torsions:
REMARK  status: ('A' for Active; 'I' for Inactive)
REMARK    1  A    between atoms: C_1  and  C_2
REMARK    2  A    between atoms: C_2  and  C_3
REMARK    3  A    between atoms: C_3  and  C_4
REMARK    4  A    between atoms: C_4  and  N_5
REMARK    5  A    between atoms: C_6  and  C_8
REMARK    6  A    between atoms: C_8  and  C_10
REMARK    7  A    between atoms: C_8  and  N_19
REMARK    8  A    between atoms: C_11  and  O_18
REMARK    9  A    between atoms: C_13  and  O_17
REMARK   10  A    between atoms: C_15  and  O_16
REMARK   11  A    between atoms: N_19  and  C_36
REMARK   12  A    between atoms: C_20  and  C_22
REMARK   13  A    between atoms: C_22  and  C_30
REMARK   14  A    between atoms: C_23  and  C_24
REMARK   15  A    between atoms: C_36  and  C_37
REMARK   16  A    between atoms: C_36  and  C_38
REMARK   17  A    between atoms: C_36  and  C_39
REMARK                            x       y       z     vdW  Elec       q    Type
REMARK                         _______ _______ _______ _____ _____    ______ ____
ROOT
ATOM      1  C   UNL     1       4.124  -5.213   5.760  0.00  0.00    +0.200 C 
ENDROOT
BRANCH   1   2
ATOM      2  C   UNL     1       3.823  -4.769   7.168  0.00  0.00    +0.065 A 
ATOM      3  C   UNL     1       2.532  -4.867   7.665  0.00  0.00    +0.129 A 
ATOM      4  C   UNL     1       2.255  -4.458   8.961  0.00  0.00    +0.091 A 
ATOM      5  C   UNL     1       3.268  -3.950   9.759  0.00  0.00    +0.124 A 
ATOM      6  C   UNL     1       4.560  -3.853   9.263  0.00  0.00    +0.091 A 
ATOM      7  C   UNL     1       4.838  -4.266   7.968  0.00  0.00    +0.129 A 
BRANCH   7   8
ATOM      8  O   UNL     1       6.104  -4.175   7.483  0.00  0.00    -0.506 OA
ATOM      9  H   UNL     1       6.299  -3.333   7.049  0.00  0.00    +0.292 HD
ENDBRANCH   7   8
BRANCH   5  10
ATOM     10  O   UNL     1       2.997  -3.549  11.029  0.00  0.00    -0.507 OA
ATOM     11  H   UNL     1       3.093  -4.246  11.691  0.00  0.00    +0.292 HD
ENDBRANCH   5  10
BRANCH   3  12
ATOM     12  O   UNL     1       1.538  -5.364   6.882  0.00  0.00    -0.506 OA
ATOM     13  H   UNL     1       1.565  -6.325   6.776  0.00  0.00    +0.292 HD
ENDBRANCH   3  12
ENDBRANCH   1   2
BRANCH   1  15
ATOM     14  N   UNL     1       3.731  -2.944   4.857  0.00  0.00    -0.313 N 
ATOM     15  C   UNL     1       3.476  -4.265   4.784  0.00  0.00    +0.238 C 
ATOM     16  O   UNL     1       2.724  -4.691   3.933  0.00  0.00    -0.273 OA
ATOM     17  H   UNL     1       4.332  -2.603   5.538  0.00  0.00    +0.149 HD
BRANCH  14  18
ATOM     18  C   UNL     1       3.101  -2.022   3.909  0.00  0.00    +0.104 C 
BRANCH  18  19
ATOM     19  C   UNL     1       3.555  -0.593   4.208  0.00  0.00    +0.018 C 
BRANCH  19  21
ATOM     20  C   UNL     1       3.352   1.800   3.517  0.00  0.00    +0.004 C 
ATOM     21  C   UNL     1       2.897   0.370   3.218  0.00  0.00    -0.002 C 
ENDBRANCH  19  21
ENDBRANCH  18  19
ENDBRANCH  14  18
ENDBRANCH   1  15
BRANCH   1  22
ATOM     22  N   UNL     1       3.597  -6.564   5.551  0.00  0.00    -0.277 N 
ATOM     23  C   UNL     1       4.428  -7.625   5.593  0.00  0.00    +0.248 C 
ATOM     24  O   UNL     1       5.625  -7.455   5.725  0.00  0.00    -0.270 OA
BRANCH  22  25
ATOM     25  C   UNL     1       2.168  -6.763   5.298  0.00  0.00    +0.030 C 
ATOM     26  C   UNL     1       1.469  -5.403   5.229  0.00  0.00    +0.031 C 
ATOM     27  C   UNL     1       1.983  -7.499   3.970  0.00  0.00    +0.031 C 
ATOM     28  C   UNL     1       1.559  -7.592   6.430  0.00  0.00    +0.031 C 
ENDBRANCH  22  25
BRANCH  23  29
ATOM     29  C   UNL     1       3.886  -8.989   5.479  0.00  0.00    +0.045 C 
ATOM     30  C   UNL     1       4.654 -10.057   5.822  0.00  0.00    +0.021 C 
BRANCH  30  31
ATOM     31  C   UNL     1       4.155 -11.421   5.606  0.00  0.00    -0.024 A 
ATOM     32  C   UNL     1       4.893 -12.521   6.058  0.00  0.00    +0.008 A 
ATOM     33  C   UNL     1       4.417 -13.798   5.851  0.00  0.00    +0.001 A 
ATOM     34  C   UNL     1       3.213 -13.995   5.197  0.00  0.00    +0.000 A 
ATOM     35  C   UNL     1       2.477 -12.912   4.746  0.00  0.00    +0.001 A 
ATOM     36  C   UNL     1       2.936 -11.629   4.950  0.00  0.00    +0.008 A 
ENDBRANCH  30  31
BRANCH  29  37
ATOM     37  C   UNL     1       2.504  -9.198   4.989  0.00  0.00    -0.013 A 
ATOM     38  C   UNL     1       2.241  -9.217   3.619  0.00  0.00    +0.008 A 
ATOM     39  C   UNL     1       0.952  -9.412   3.170  0.00  0.00    +0.001 A 
ATOM     40  C   UNL     1      -0.080  -9.589   4.075  0.00  0.00    +0.000 A 
ATOM     41  C   UNL     1       0.174  -9.571   5.434  0.00  0.00    +0.001 A 
ATOM     42  C   UNL     1       1.460  -9.383   5.896  0.00  0.00    +0.008 A 
ENDBRANCH  29  37
ENDBRANCH  23  29
ENDBRANCH   1  22
TORSDOF 13
