REMARK  Name = ZINC09421849
REMARK  4 active torsions:
REMARK  status: ('A' for Active; 'I' for Inactive)
REMARK    1  A    between atoms: C_4  and  C_7
REMARK    2  A    between atoms: N_9  and  C_10
REMARK    3  A    between atoms: C_10  and  C_28
REMARK    4  A    between atoms: N_16  and  C_21
REMARK                            x       y       z     vdW  Elec       q    Type
REMARK                         _______ _______ _______ _____ _____    ______ ____
ROOT
ATOM      1  C   UNL     1       6.117  -3.425  -0.900  0.00  0.00    +0.242 C 
ATOM      2  C   UNL     1       5.281  -4.537  -0.312  0.00  0.00    +0.094 C 
ATOM      3  C   UNL     1       4.128  -5.153  -0.686  0.00  0.00    +0.252 C 
ATOM      4  O   UNL     1       3.492  -4.778  -1.816  0.00  0.00    -0.270 OA
ATOM      5  N   UNL     1       3.617  -6.159   0.094  0.00  0.00    -0.263 N 
ATOM      6  C   UNL     1       4.249  -6.534   1.220  0.00  0.00    +0.149 C 
ATOM      7  N   UNL     1       5.391  -5.943   1.615  0.00  0.00    -0.237 N 
ATOM      8  C   UNL     1       5.944  -4.925   0.861  0.00  0.00    +0.135 C 
ATOM      9  N   UNL     1       7.044  -4.199   1.040  0.00  0.00    -0.162 NA
ATOM     10  C   UNL     1       7.256  -3.300   0.094  0.00  0.00    +0.275 C 
ATOM     11  O   UNL     1       8.188  -2.521   0.033  0.00  0.00    -0.271 OA
ATOM     12  S   UNL     1       3.585  -7.792   2.173  0.00  0.00    -0.018 S 
ATOM     13  H   UNL     1       2.795  -6.601  -0.168  0.00  0.00    +0.157 HD
ENDROOT
BRANCH   7  14
ATOM     14  C   UNL     1       6.021  -6.359   2.794  0.00  0.00    +0.042 A 
ATOM     15  C   UNL     1       6.970  -7.372   2.755  0.00  0.00    +0.024 A 
ATOM     16  C   UNL     1       7.590  -7.780   3.920  0.00  0.00    +0.002 A 
ATOM     17  C   UNL     1       7.267  -7.182   5.124  0.00  0.00    +0.000 A 
ATOM     18  C   UNL     1       6.322  -6.173   5.166  0.00  0.00    +0.002 A 
ATOM     19  C   UNL     1       5.702  -5.757   4.004  0.00  0.00    +0.024 A 
ENDBRANCH   7  14
BRANCH   1  22
ATOM     20  C   UNL     1       5.949  -1.039  -1.367  0.00  0.00    +0.245 C 
ATOM     21  O   UNL     1       7.127  -1.045  -1.669  0.00  0.00    -0.270 OA
ATOM     22  N   UNL     1       5.350  -2.179  -0.969  0.00  0.00    -0.287 N 
ATOM     23  H   UNL     1       4.410  -2.174  -0.728  0.00  0.00    +0.151 HD
BRANCH  20  27
ATOM     24  C   UNL     1       3.724   2.573  -1.568  0.00  0.00    +0.000 A 
ATOM     25  C   UNL     1       5.064   2.570  -1.912  0.00  0.00    +0.001 A 
ATOM     26  C   UNL     1       5.792   1.400  -1.849  0.00  0.00    +0.013 A 
ATOM     27  C   UNL     1       5.175   0.218  -1.437  0.00  0.00    +0.037 A 
ATOM     28  C   UNL     1       3.822   0.228  -1.091  0.00  0.00    +0.013 A 
ATOM     29  C   UNL     1       3.105   1.405  -1.159  0.00  0.00    +0.001 A 
ENDBRANCH  20  27
ENDBRANCH   1  22
BRANCH   1  30
ATOM     30  C   UNL     1       6.645  -3.811  -2.283  0.00  0.00    +0.424 C 
ATOM     31  F   UNL     1       7.463  -2.787  -2.773  0.00  0.00    -0.167 F 
ATOM     32  F   UNL     1       7.386  -4.994  -2.186  0.00  0.00    -0.167 F 
ATOM     33  F   UNL     1       5.569  -4.006  -3.156  0.00  0.00    -0.167 F 
ENDBRANCH   1  30
TORSDOF 4
