REMARK  Name = ZINC40303340
REMARK  7 active torsions:
REMARK  status: ('A' for Active; 'I' for Inactive)
REMARK    1  A    between atoms: C_1  and  C_2
REMARK    2  A    between atoms: C_2  and  CA_3
REMARK    3  A    between atoms: CA_3  and  C_5
REMARK    4  A    between atoms: CA_3  and  N_7
REMARK    5  A    between atoms: C_5  and  O_6
REMARK    6  A    between atoms: C_8  and  C_10
REMARK    7  A    between atoms: C_14  and  N_19
REMARK                            x       y       z     vdW  Elec       q    Type
REMARK                         _______ _______ _______ _____ _____    ______ ____
ROOT
ATOM      1  C   UNL     1      -0.215   0.413  -4.819  0.00  0.00    +0.190 A 
ATOM      2  C   UNL     1       0.297   0.579  -6.066  0.00  0.00    +0.063 A 
ATOM      3  C   UNL     1      -0.830   0.958  -6.918  0.00  0.00    +0.023 A 
ATOM      4  C   UNL     1      -0.962   1.262  -8.275  0.00  0.00    +0.034 A 
ATOM      5  C   UNL     1      -2.206   1.590  -8.782  0.00  0.00    +0.025 A 
ATOM      6  C   UNL     1      -3.319   1.616  -7.943  0.00  0.00    +0.026 A 
ATOM      7  C   UNL     1      -3.197   1.318  -6.604  0.00  0.00    +0.048 A 
ATOM      8  C   UNL     1      -1.955   0.985  -6.074  0.00  0.00    +0.136 A 
ATOM      9  O   UNL     1      -1.543   0.648  -4.835  0.00  0.00    -0.450 OA
ENDROOT
BRANCH   1  11
ATOM     10  N   UNL     1      -0.055  -0.114  -2.441  0.00  0.00    -0.304 N 
ATOM     11  C   UNL     1       0.561   0.028  -3.631  0.00  0.00    +0.280 C 
ATOM     12  O   UNL     1       1.759  -0.163  -3.722  0.00  0.00    -0.267 OA
ATOM     13  H   UNL     1      -1.010   0.038  -2.368  0.00  0.00    +0.149 HD
BRANCH  10  14
ATOM     14  CA  UNL     1       0.718  -0.497  -1.257  0.00  0.00    +0.098 C 
BRANCH  14  16
ATOM     15  C   UNL     1      -0.019   1.526   0.010  0.00  0.00    +0.006 C 
ATOM     16  C   UNL     1       0.002  -0.004   0.002  0.00  0.00    +0.021 C 
ENDBRANCH  14  16
BRANCH  14  17
ATOM     17  C   UNL     1       0.849  -2.021  -1.205  0.00  0.00    +0.178 C 
BRANCH  17  18
ATOM     18  O   UNL     1      -0.442  -2.604  -1.018  0.00  0.00    -0.393 OA
ATOM     19  H   UNL     1      -0.435  -3.570  -0.976  0.00  0.00    +0.209 HD
ENDBRANCH  17  18
ENDBRANCH  14  17
ENDBRANCH  10  14
ENDBRANCH   1  11
BRANCH   5  20
ATOM     20  N   UNL     1      -2.348   1.897 -10.140  0.00  0.00    -0.358 N 
ATOM     21  H   UNL     1      -1.574   1.880 -10.724  0.00  0.00    +0.142 HD
ATOM     22  H   UNL     1      -3.220   2.127 -10.496  0.00  0.00    +0.142 HD
ENDBRANCH   5  20
TORSDOF 6
