REMARK  Name = ZINC63521498
REMARK  8 active torsions:
REMARK  status: ('A' for Active; 'I' for Inactive)
REMARK    1  A    between atoms: C_1  and  O_2
REMARK    2  A    between atoms: O_2  and  C_3
REMARK    3  A    between atoms: C_10  and  C_18
REMARK    4  A    between atoms: C_21  and  O_26
REMARK    5  A    between atoms: C_22  and  O_24
REMARK    6  A    between atoms: O_24  and  C_25
REMARK    7  A    between atoms: O_26  and  C_27
REMARK    8  A    between atoms: C_27  and  C_28
REMARK                            x       y       z     vdW  Elec       q    Type
REMARK                         _______ _______ _______ _____ _____    ______ ____
ROOT
ATOM      1  C   UNL     1       0.460  -1.397   0.235  0.00  0.00    +0.121 A 
ATOM      2  C   UNL     1       0.832  -0.416   1.171  0.00  0.00    +0.047 A 
ATOM      3  C   UNL     1       1.405  -0.722   2.354  0.00  0.00    +0.029 A 
ATOM      4  C   UNL     1       1.661  -2.122   2.701  0.00  0.00    +0.043 A 
ATOM      5  N   UNL     1       2.215  -2.677   3.754  0.00  0.00    -0.376 N 
ATOM      6  C   UNL     1       2.130  -4.127   3.611  0.00  0.00    +0.128 C 
ATOM      7  C   UNL     1       3.498  -4.809   3.703  0.00  0.00    +0.111 C 
ATOM      8  N   UNL     1       3.349  -6.205   3.261  0.00  0.00    -0.307 NA
ATOM      9  C   UNL     1       3.024  -6.329   1.837  0.00  0.00    +0.086 C 
ATOM     10  C   UNL     1       1.633  -5.729   1.559  0.00  0.00    +0.048 C 
ATOM     11  C   UNL     1       1.606  -4.361   2.203  0.00  0.00    -0.035 C 
ATOM     12  C   UNL     1       1.279  -3.161   1.710  0.00  0.00    +0.003 A 
ATOM     13  C   UNL     1       0.653  -2.719   0.458  0.00  0.00    +0.055 A 
ATOM     14  H   UNL     1       4.168  -6.747   3.493  0.00  0.00    +0.123 HD
ATOM     15  H   UNL     1       2.614  -2.203   4.501  0.00  0.00    +0.160 HD
ENDROOT
BRANCH   7  16
ATOM     16  C   UNL     1       4.482  -4.096   2.812  0.00  0.00    -0.024 A 
ATOM     17  C   UNL     1       4.177  -3.880   1.481  0.00  0.00    +0.009 A 
ATOM     18  C   UNL     1       5.077  -3.226   0.660  0.00  0.00    +0.050 A 
ATOM     19  C   UNL     1       6.287  -2.785   1.170  0.00  0.00    +0.163 A 
ATOM     20  C   UNL     1       6.594  -3.002   2.510  0.00  0.00    +0.162 A 
ATOM     21  C   UNL     1       5.686  -3.654   3.329  0.00  0.00    +0.054 A 
BRANCH  20  22
ATOM     22  O   UNL     1       7.781  -2.572   3.016  0.00  0.00    -0.491 OA
ATOM     23  C   UNL     1       8.028  -2.830   4.399  0.00  0.00    +0.277 C 
ENDBRANCH  20  22
BRANCH  19  24
ATOM     24  O   UNL     1       7.173  -2.142   0.364  0.00  0.00    -0.479 OA
BRANCH  24  25
ATOM     25  C   UNL     1       6.791  -1.955  -1.000  0.00  0.00    +0.324 C 
BRANCH  25  26
ATOM     26  C   UNL     1       7.890  -1.230  -1.735  0.00  0.00    +0.248 C 
ATOM     27  O   UNL     1       8.900  -0.906  -1.148  0.00  0.00    -0.272 OA
ATOM     28  N   UNL     1       7.749  -0.942  -3.044  0.00  0.00    -0.327 N 
ATOM     29  H   UNL     1       6.941  -1.202  -3.513  0.00  0.00    +0.145 HD
ATOM     30  H   UNL     1       8.456  -0.476  -3.516  0.00  0.00    +0.145 HD
ENDBRANCH  25  26
ENDBRANCH  24  25
ENDBRANCH  19  24
ENDBRANCH   7  16
BRANCH   1  32
ATOM     31  C   UNL     1      -0.301   0.397  -1.126  0.00  0.00    +0.277 C 
ATOM     32  O   UNL     1      -0.117  -1.006  -0.932  0.00  0.00    -0.495 OA
ENDBRANCH   1  32
TORSDOF 6
