REMARK  Name = ZINC06732485
REMARK  6 active torsions:
REMARK  status: ('A' for Active; 'I' for Inactive)
REMARK    1  A    between atoms: C_1  and  O_2
REMARK    2  A    between atoms: O_2  and  C_3
REMARK    3  A    between atoms: C_5  and  C_11
REMARK    4  A    between atoms: C_7  and  O_9
REMARK    5  A    between atoms: O_9  and  C_10
REMARK    6  A    between atoms: C_16  and  C_26
REMARK                            x       y       z     vdW  Elec       q    Type
REMARK                         _______ _______ _______ _____ _____    ______ ____
ROOT
ATOM      1  C   UNL     1      -2.504   0.999   0.019  0.00  0.00    +0.183 A 
ATOM      2  N   UNL     1      -2.618  -0.340   0.012  0.00  0.00    -0.193 NA
ATOM      3  C   UNL     1      -3.879  -0.670   0.018  0.00  0.00    +0.219 A 
ATOM      4  N   UNL     1      -4.615   0.470   0.024  0.00  0.00    -0.220 N 
ATOM      5  N   UNL     1      -3.710   1.531   0.033  0.00  0.00    -0.147 NA
ATOM      6  C   UNL     1      -6.073   0.484   0.021  0.00  0.00    +0.175 C 
ATOM      7  C   UNL     1      -6.604  -0.894   0.350  0.00  0.00    +0.041 C 
ATOM      8  C   UNL     1      -5.818  -1.991   0.327  0.00  0.00    +0.020 C 
ATOM      9  N   UNL     1      -4.480  -1.918   0.022  0.00  0.00    -0.287 N 
ATOM     10  C   UNL     1      -6.382  -3.356   0.643  0.00  0.00    +0.052 C 
ATOM     11  C   UNL     1      -7.524  -3.220   1.652  0.00  0.00    +0.014 C 
ATOM     12  C   UNL     1      -8.595  -2.307   1.048  0.00  0.00    +0.080 C 
ATOM     13  C   UNL     1      -7.967  -0.990   0.686  0.00  0.00    +0.163 C 
ATOM     14  O   UNL     1      -8.651   0.015   0.685  0.00  0.00    -0.292 OA
ATOM     15  H   UNL     1      -3.971  -2.717  -0.184  0.00  0.00    +0.155 HD
ENDROOT
BRANCH   6  16
ATOM     16  C   UNL     1      -6.566   0.899  -1.341  0.00  0.00    -0.018 A 
ATOM     17  C   UNL     1      -6.231   0.151  -2.454  0.00  0.00    +0.009 A 
ATOM     18  C   UNL     1      -6.687   0.528  -3.703  0.00  0.00    +0.039 A 
ATOM     19  C   UNL     1      -7.472   1.660  -3.840  0.00  0.00    +0.123 A 
ATOM     20  C   UNL     1      -7.803   2.411  -2.725  0.00  0.00    +0.039 A 
ATOM     21  C   UNL     1      -7.350   2.030  -1.476  0.00  0.00    +0.009 A 
ATOM     22  F   UNL     1      -7.914   2.032  -5.061  0.00  0.00    -0.205 F 
ENDBRANCH   6  16
BRANCH   1  25
ATOM     23  C   UNL     1       1.177   1.786   0.000  0.00  0.00    +0.124 A 
ATOM     24  C   UNL     1      -0.013   1.076   0.008  0.00  0.00    +0.057 A 
ATOM     25  C   UNL     1      -1.228   1.756   0.017  0.00  0.00    +0.028 A 
ATOM     26  C   UNL     1      -1.242   3.149   0.030  0.00  0.00    +0.057 A 
ATOM     27  C   UNL     1      -0.049   3.853   0.023  0.00  0.00    +0.124 A 
ATOM     28  C   UNL     1       1.159   3.173   0.008  0.00  0.00    +0.091 A 
BRANCH  23  30
ATOM     29  C   UNL     1       3.551   1.917  -0.022  0.00  0.00    +0.277 C 
ATOM     30  O   UNL     1       2.363   1.122  -0.015  0.00  0.00    -0.495 OA
ENDBRANCH  23  30
BRANCH  27  31
ATOM     31  O   UNL     1      -0.063   5.212   0.030  0.00  0.00    -0.495 OA
ATOM     32  C   UNL     1       1.204   5.874   0.021  0.00  0.00    +0.277 C 
ENDBRANCH  27  31
ENDBRANCH   1  25
TORSDOF 4
