REMARK  Name = ZINC19531818
REMARK  11 active torsions:
REMARK  status: ('A' for Active; 'I' for Inactive)
REMARK    1  A    between atoms: C_1  and  C_2
REMARK    2  A    between atoms: C_2  and  O_3
REMARK    3  A    between atoms: O_3  and  C_4
REMARK    4  A    between atoms: C_6  and  C_14
REMARK    5  A    between atoms: C_8  and  C_11
REMARK    6  A    between atoms: C_9  and  O_10
REMARK    7  A    between atoms: C_11  and  C_12
REMARK    8  A    between atoms: C_14  and  N_15
REMARK    9  A    between atoms: C_19  and  C_22
REMARK   10  A    between atoms: C_24  and  N_32
REMARK   11  A    between atoms: C_29  and  C_31
REMARK                            x       y       z     vdW  Elec       q    Type
REMARK                         _______ _______ _______ _____ _____    ______ ____
ROOT
ATOM      1  N   UNL     1       0.592   6.918   2.006  0.00  0.00    +0.383 N 
ATOM      2  C   UNL     1       1.379   5.910   1.285  0.00  0.00    -0.078 C 
ATOM      3  C   UNL     1       2.866   6.109   1.587  0.00  0.00    -0.018 C 
ATOM      4  C   UNL     1       3.286   7.516   1.155  0.00  0.00    +0.006 C 
ATOM      5  C   UNL     1       2.419   8.546   1.885  0.00  0.00    +0.021 C 
ATOM      6  C   UNL     1       0.945   8.276   1.574  0.00  0.00    -0.069 C 
ATOM      7  H   UNL     1       0.837   6.832   3.075  0.00  0.00    -0.081 HD
ENDROOT
BRANCH   5   8
ATOM      8  C   UNL     1       2.785   9.932   1.423  0.00  0.00    +0.048 A 
ATOM      9  C   UNL     1       3.169  10.142   0.098  0.00  0.00    +0.067 A 
ATOM     10  C   UNL     1       3.495  11.406  -0.314  0.00  0.00    +0.122 A 
ATOM     11  N   UNL     1       3.446  12.432   0.592  0.00  0.00    -0.201 N 
ATOM     12  C   UNL     1       3.068  12.179   1.885  0.00  0.00    +0.158 A 
ATOM     13  N   UNL     1       2.747  10.936   2.271  0.00  0.00    -0.232 NA
ATOM     14  C   UNL     1       3.111  13.390   2.562  0.00  0.00    +0.073 A 
ATOM     15  C   UNL     1       3.517  14.363   1.658  0.00  0.00    +0.063 A 
ATOM     16  N   UNL     1       3.717  13.801   0.488  0.00  0.00    -0.169 NA
ATOM     17  C   UNL     1       3.699  15.826   1.970  0.00  0.00    +0.067 C 
BRANCH  10  18
ATOM     18  N   UNL     1       3.873  11.642  -1.618  0.00  0.00    -0.343 N 
ATOM     19  H   UNL     1       4.133  12.661  -1.940  0.00  0.00    +0.144 HD
ATOM     20  H   UNL     1       3.914  10.810  -2.338  0.00  0.00    +0.144 HD
ENDBRANCH  10  18
ENDBRANCH   5   8
BRANCH   1  21
ATOM     21  C   UNL     1      -0.848   6.673   1.850  0.00  0.00    -0.043 C 
BRANCH  21  24
ATOM     22  C   UNL     1      -1.691   3.398   3.535  0.00  0.00    +0.162 A 
ATOM     23  C   UNL     1      -1.428   4.744   3.334  0.00  0.00    +0.051 A 
ATOM     24  C   UNL     1      -1.135   5.209   2.066  0.00  0.00    -0.060 A 
ATOM     25  C   UNL     1      -1.099   4.334   0.997  0.00  0.00    +0.009 A 
ATOM     26  C   UNL     1      -1.366   2.992   1.189  0.00  0.00    +0.002 A 
ATOM     27  C   UNL     1      -1.660   2.518   2.457  0.00  0.00    +0.162 A 
BRANCH  27  28
ATOM     28  O   UNL     1      -1.919   1.197   2.649  0.00  0.00    -0.503 OA
ATOM     29  H   UNL     1      -1.894   0.502   1.796  0.00  0.00    +0.292 HD
ENDBRANCH  27  28
BRANCH  22  30
ATOM     30  O   UNL     1      -1.979   2.939   4.782  0.00  0.00    -0.489 OA
BRANCH  30  32
ATOM     31  C   UNL     1      -2.334   3.201   7.158  0.00  0.00    +0.048 C 
ATOM     32  C   UNL     1      -1.993   3.899   5.840  0.00  0.00    +0.226 C 
ENDBRANCH  30  32
ENDBRANCH  22  30
BRANCH  26  33
ATOM     33  C   UNL     1      -1.331   2.042   0.019  0.00  0.00    +0.065 C 
BRANCH  33  34
ATOM     34  C   UNL     1      -0.016   1.306   0.009  0.00  0.00    -0.030 C 
ATOM     35  C   UNL     1       0.002  -0.004   0.002  0.00  0.00    +0.004 C 
ENDBRANCH  33  34
ENDBRANCH  26  33
ENDBRANCH  21  24
ENDBRANCH   1  21
TORSDOF 9
