REMARK  Name = ZINC10460379
REMARK  8 active torsions:
REMARK  status: ('A' for Active; 'I' for Inactive)
REMARK    1  A    between atoms: C_5  and  C_7
REMARK    2  A    between atoms: C_7  and  C_8
REMARK    3  A    between atoms: C_8  and  C_9
REMARK    4  A    between atoms: N_11  and  C_12
REMARK    5  A    between atoms: C_12  and  N_14
REMARK    6  A    between atoms: N_14  and  N_15
REMARK    7  A    between atoms: C_16  and  C_18
REMARK    8  A    between atoms: C_22  and  N_24
REMARK                            x       y       z     vdW  Elec       q    Type
REMARK                         _______ _______ _______ _____ _____    ______ ____
ROOT
ATOM      1  C   UNL     1       1.536  -6.236   2.552  0.00  0.00    +0.153 C 
ATOM      2  S   UNL     1       1.404  -7.085   1.072  0.00  0.00    -0.017 S 
ENDROOT
BRANCH   1   5
ATOM      3  C   UNL     1       1.396  -4.209   1.402  0.00  0.00    +0.219 C 
ATOM      4  O   UNL     1       1.302  -4.811   0.354  0.00  0.00    -0.275 OA
ATOM      5  N   UNL     1       1.518  -4.888   2.560  0.00  0.00    -0.267 N 
ATOM      6  H   UNL     1       1.594  -4.407   3.399  0.00  0.00    +0.157 HD
BRANCH   3   7
ATOM      7  C   UNL     1       1.376  -2.702   1.411  0.00  0.00    +0.101 C 
BRANCH   7   8
ATOM      8  C   UNL     1       1.229  -2.186  -0.022  0.00  0.00    +0.046 C 
BRANCH   8  13
ATOM      9  C   UNL     1      -0.017   1.378   0.010  0.00  0.00    +0.000 A 
ATOM     10  C   UNL     1       1.171   2.086   0.002  0.00  0.00    +0.001 A 
ATOM     11  C   UNL     1       2.377   1.412  -0.013  0.00  0.00    +0.020 A 
ATOM     12  C   UNL     1       2.397   0.029  -0.021  0.00  0.00    +0.044 A 
ATOM     13  C   UNL     1       1.208  -0.679  -0.013  0.00  0.00    -0.029 A 
ATOM     14  C   UNL     1       0.002  -0.004   0.002  0.00  0.00    +0.005 A 
ATOM     15 CL   UNL     1       3.912  -0.818  -0.041  0.00  0.00    -0.083 Cl
ENDBRANCH   8  13
ENDBRANCH   7   8
ENDBRANCH   3   7
ENDBRANCH   1   5
BRANCH   1  16
ATOM     16  N   UNL     1       1.659  -6.915   3.710  0.00  0.00    -0.245 N 
ATOM     17  H   UNL     1       1.672  -7.885   3.704  0.00  0.00    +0.172 HD
BRANCH  16  18
ATOM     18  N   UNL     1       1.768  -6.220   4.921  0.00  0.00    -0.231 N 
ATOM     19  C   UNL     1       1.890  -6.899   6.079  0.00  0.00    +0.260 C 
ATOM     20  O   UNL     1       1.907  -8.114   6.072  0.00  0.00    -0.269 OA
ATOM     21  H   UNL     1       1.755  -5.250   4.927  0.00  0.00    +0.173 HD
BRANCH  19  22
ATOM     22  C   UNL     1       2.005  -6.165   7.358  0.00  0.00    +0.040 A 
ATOM     23  C   UNL     1       1.980  -4.770   7.370  0.00  0.00    +0.013 A 
ATOM     24  C   UNL     1       2.087  -4.092   8.566  0.00  0.00    +0.003 A 
ATOM     25  C   UNL     1       2.218  -4.792   9.753  0.00  0.00    +0.033 A 
ATOM     26  C   UNL     1       2.243  -6.175   9.748  0.00  0.00    +0.127 A 
ATOM     27  C   UNL     1       2.132  -6.865   8.558  0.00  0.00    +0.045 A 
BRANCH  26  28
ATOM     28  N   UNL     1       2.385  -6.916  11.021  0.00  0.00    +0.056 N 
ATOM     29  O   UNL     1       2.478  -6.312  12.065  0.00  0.00    -0.126 OA
ATOM     30  O   UNL     1       2.407  -8.124  11.018  0.00  0.00    -0.126 OA
ENDBRANCH  26  28
ENDBRANCH  19  22
ENDBRANCH  16  18
ENDBRANCH   1  16
TORSDOF 8
