REMARK  Name = ZINC22133183
REMARK  7 active torsions:
REMARK  status: ('A' for Active; 'I' for Inactive)
REMARK    1  A    between atoms: C_1  and  C_2
REMARK    2  A    between atoms: C_4  and  N_25
REMARK    3  A    between atoms: C_6  and  S_8
REMARK    4  A    between atoms: S_8  and  C_9
REMARK    5  A    between atoms: C_9  and  C_11
REMARK    6  A    between atoms: C_9  and  C_12
REMARK    7  A    between atoms: C_22  and  C_24
REMARK                            x       y       z     vdW  Elec       q    Type
REMARK                         _______ _______ _______ _____ _____    ______ ____
ROOT
ATOM      1  C   UNL     1       2.890   3.588   0.222  0.00  0.00    +0.137 C 
ATOM      2  C   UNL     1       3.266   3.949  -1.216  0.00  0.00    +0.029 C 
ENDROOT
BRANCH   1   3
ATOM      3  C   UNL     1       1.471   3.081   0.258  0.00  0.00    +0.233 C 
ATOM      4  O   UNL     1       0.576   3.810   0.631  0.00  0.00    -0.274 OA
ATOM      5  N   UNL     1       1.196   1.819  -0.125  0.00  0.00    -0.267 N 
ATOM      6  C   UNL     1      -0.088   1.281  -0.253  0.00  0.00    +0.040 A 
ATOM      7  C   UNL     1      -1.327   1.885  -0.029  0.00  0.00    +0.024 A 
ATOM      8  C   UNL     1      -2.492   1.172  -0.215  0.00  0.00    +0.002 A 
ATOM      9  C   UNL     1      -2.442  -0.148  -0.625  0.00  0.00    +0.000 A 
ATOM     10  C   UNL     1      -1.220  -0.753  -0.849  0.00  0.00    +0.005 A 
ATOM     11  C   UNL     1      -0.050  -0.042  -0.664  0.00  0.00    -0.024 A 
ATOM     12  C   UNL     1       1.396  -0.451  -0.834  0.00  0.00    +0.059 C 
ATOM     13  C   UNL     1       2.200   0.808  -0.469  0.00  0.00    +0.083 C 
ATOM     14  C   UNL     1       3.105   0.529   0.733  0.00  0.00    +0.029 C 
ENDBRANCH   1   3
BRANCH   1  15
ATOM     15  S   UNL     1       3.033   5.056   1.270  0.00  0.00    -0.073 S 
BRANCH  15  21
ATOM     16  C   UNL     1       7.186   7.773   2.520  0.00  0.00    +0.066 C 
ATOM     17  C   UNL     1       6.599   6.605   1.770  0.00  0.00    +0.044 A 
ATOM     18  C   UNL     1       7.412   5.777   1.021  0.00  0.00    +0.066 A 
ATOM     19  C   UNL     1       6.827   4.706   0.342  0.00  0.00    +0.121 A 
ATOM     20  N   UNL     1       5.514   4.520   0.439  0.00  0.00    -0.207 NA
ATOM     21  C   UNL     1       4.769   5.338   1.168  0.00  0.00    +0.191 A 
ATOM     22  N   UNL     1       5.297   6.365   1.819  0.00  0.00    -0.227 NA
BRANCH  19  23
ATOM     23  N   UNL     1       7.603   3.849  -0.422  0.00  0.00    -0.343 N 
ATOM     24  H   UNL     1       7.134   3.009  -0.954  0.00  0.00    +0.144 HD
ATOM     25  H   UNL     1       8.688   4.011  -0.497  0.00  0.00    +0.144 HD
ENDBRANCH  19  23
ENDBRANCH  15  21
ENDBRANCH   1  15
TORSDOF 4
