REMARK  Name = ZINC64717891
REMARK  9 active torsions:
REMARK  status: ('A' for Active; 'I' for Inactive)
REMARK    1  A    between atoms: C_1  and  N_2
REMARK    2  A    between atoms: C_3  and  C_12
REMARK    3  A    between atoms: N_8  and  C_11
REMARK    4  A    between atoms: C_12  and  N_13
REMARK    5  A    between atoms: C_14  and  C_16
REMARK    6  A    between atoms: C_16  and  C_17
REMARK    7  A    between atoms: C_17  and  N_18
REMARK    8  A    between atoms: C_19  and  C_21
REMARK    9  A    between atoms: C_21  and  C_22
REMARK                            x       y       z     vdW  Elec       q    Type
REMARK                         _______ _______ _______ _____ _____    ______ ____
ROOT
ATOM      1  C   UNL     1      -1.726   1.216   4.588  0.00  0.00    +0.114 C 
ENDROOT
BRANCH   1   3
ATOM      2  N   UNL     1      -1.557   0.075   2.400  0.00  0.00    -0.313 N 
ATOM      3  C   UNL     1      -1.656  -0.028   3.740  0.00  0.00    +0.215 C 
ATOM      4  O   UNL     1      -1.688  -1.121   4.264  0.00  0.00    -0.276 OA
ATOM      5  H   UNL     1      -1.531   0.949   1.981  0.00  0.00    +0.149 HD
BRANCH   2   6
ATOM      6  C   UNL     1      -1.489  -1.135   1.576  0.00  0.00    +0.127 C 
BRANCH   6   9
ATOM      7  C   UNL     1      -0.004   1.470   0.037  0.00  0.00    +0.134 C 
ATOM      8  N   UNL     1       0.028   0.005   0.034  0.00  0.00    -0.283 N 
ATOM      9  C   UNL     1      -1.226  -0.745   0.120  0.00  0.00    +0.103 C 
ATOM     10  C   UNL     1      -1.126  -2.010  -0.736  0.00  0.00    +0.120 C 
ATOM     11  C   UNL     1       0.186  -2.697  -0.452  0.00  0.00    +0.225 C 
ATOM     12  O   UNL     1       0.255  -3.907  -0.478  0.00  0.00    -0.275 OA
ATOM     13  N   UNL     1       1.281  -1.967  -0.170  0.00  0.00    -0.229 N 
ATOM     14  C   UNL     1       1.208  -0.631  -0.054  0.00  0.00    +0.311 C 
ATOM     15  O   UNL     1       2.235   0.018  -0.024  0.00  0.00    -0.252 OA
ATOM     16  C   UNL     1       2.570  -2.639   0.009  0.00  0.00    +0.142 C 
ENDBRANCH   6   9
ENDBRANCH   2   6
ENDBRANCH   1   3
BRANCH   1  17
ATOM     17  C   UNL     1      -1.833   0.823   6.063  0.00  0.00    +0.113 C 
BRANCH  17  18
ATOM     18  N   UNL     1      -1.902   2.032   6.887  0.00  0.00    -0.315 N 
ATOM     19  C   UNL     1      -2.000   1.929   8.227  0.00  0.00    +0.217 C 
ATOM     20  O   UNL     1      -2.033   0.836   8.751  0.00  0.00    -0.275 OA
ATOM     21  H   UNL     1      -1.876   2.906   6.468  0.00  0.00    +0.149 HD
BRANCH  19  22
ATOM     22  C   UNL     1      -2.071   3.173   9.075  0.00  0.00    +0.129 C 
BRANCH  22  23
ATOM     23  C   UNL     1      -2.176   2.786  10.527  0.00  0.00    -0.033 C 
ATOM     24  C   UNL     1      -1.162   2.679  11.416  0.00  0.00    -0.001 A 
ATOM     25  C   UNL     1       0.287   2.884  11.301  0.00  0.00    +0.010 A 
ATOM     26  C   UNL     1       1.064   2.696  12.392  0.00  0.00    +0.001 A 
ATOM     27  C   UNL     1       0.522   2.312  13.626  0.00  0.00    +0.002 A 
ATOM     28  C   UNL     1      -0.799   2.106  13.810  0.00  0.00    +0.026 A 
ATOM     29  C   UNL     1      -1.710   2.275  12.731  0.00  0.00    +0.043 A 
ATOM     30  N   UNL     1      -3.011   2.136  12.658  0.00  0.00    -0.380 N 
ATOM     31  C   UNL     1      -3.438   2.444  11.288  0.00  0.00    +0.145 C 
ATOM     32  H   UNL     1      -3.595   1.877  13.388  0.00  0.00    +0.160 HD
ENDBRANCH  22  23
ENDBRANCH  19  22
ENDBRANCH  17  18
ENDBRANCH   1  17
TORSDOF 7
