REMARK  Name = ZINC42393394
REMARK  4 active torsions:
REMARK  status: ('A' for Active; 'I' for Inactive)
REMARK    1  A    between atoms: C_1  and  N_2
REMARK    2  A    between atoms: C_3  and  C_5
REMARK    3  A    between atoms: N_10  and  C_11
REMARK    4  A    between atoms: C_16  and  N_17
REMARK                            x       y       z     vdW  Elec       q    Type
REMARK                         _______ _______ _______ _____ _____    ______ ____
ROOT
ATOM      1  C   UNL     1       2.574  -2.422  -2.412  0.00  0.00    +0.053 A 
ATOM      2  C   UNL     1       3.554  -3.328  -2.036  0.00  0.00    +0.048 A 
ATOM      3  C   UNL     1       4.892  -3.031  -2.253  0.00  0.00    +0.038 A 
ATOM      4  C   UNL     1       5.250  -1.828  -2.847  0.00  0.00    -0.024 A 
ATOM      5  C   UNL     1       4.275  -0.922  -3.222  0.00  0.00    +0.030 A 
ATOM      6  C   UNL     1       2.936  -1.216  -3.012  0.00  0.00    +0.046 A 
ATOM      7  C   UNL     1       6.704  -1.511  -3.082  0.00  0.00    +0.046 C 
ATOM      8  C   UNL     1       7.546  -2.107  -1.953  0.00  0.00    +0.101 C 
ATOM      9  C   UNL     1       7.160  -3.544  -1.730  0.00  0.00    +0.218 C 
ATOM     10  O   UNL     1       8.010  -4.351  -1.415  0.00  0.00    -0.275 OA
ATOM     11  N   UNL     1       5.884  -3.945  -1.875  0.00  0.00    -0.285 N 
ATOM     12  H   UNL     1       5.649  -4.873  -1.717  0.00  0.00    +0.155 HD
ENDROOT
BRANCH   1  17
ATOM     13  C   UNL     1       0.314  -3.336  -3.171  0.00  0.00    +0.159 C 
ATOM     14  C   UNL     1      -1.060  -3.494  -2.486  0.00  0.00    +0.033 C 
ATOM     15  C   UNL     1      -0.699  -3.480  -0.977  0.00  0.00    +0.021 C 
ATOM     16  C   UNL     1       0.473  -2.468  -0.947  0.00  0.00    +0.106 C 
ATOM     17  N   UNL     1       1.223  -2.719  -2.194  0.00  0.00    -0.317 N 
BRANCH  13  20
ATOM     18  C   UNL     1       1.055  -6.500  -5.194  0.00  0.00    +0.128 C 
ATOM     19  N   UNL     1       0.542  -5.186  -4.796  0.00  0.00    -0.317 N 
ATOM     20  C   UNL     1       0.841  -4.687  -3.581  0.00  0.00    +0.233 C 
ATOM     21  O   UNL     1       1.535  -5.324  -2.817  0.00  0.00    -0.274 OA
ATOM     22  H   UNL     1      -0.013  -4.677  -5.407  0.00  0.00    +0.148 HD
ENDBRANCH  13  20
ENDBRANCH   1  17
BRANCH   6  23
ATOM     23  N   UNL     1       1.948  -0.300  -3.399  0.00  0.00    -0.357 N 
ATOM     24  H   UNL     1       1.020  -0.460  -3.165  0.00  0.00    +0.142 HD
ATOM     25  H   UNL     1       2.192   0.494  -3.900  0.00  0.00    +0.142 HD
ENDBRANCH   6  23
TORSDOF 3
