REMARK  Name = ZINC39940007
REMARK  12 active torsions:
REMARK  status: ('A' for Active; 'I' for Inactive)
REMARK    1  A    between atoms: C_1  and  C_2
REMARK    2  A    between atoms: C_5  and  S_8
REMARK    3  A    between atoms: S_8  and  N_11
REMARK    4  A    between atoms: N_11  and  C_12
REMARK    5  A    between atoms: N_11  and  C_13
REMARK    6  A    between atoms: C_13  and  C_14
REMARK    7  A    between atoms: C_17  and  C_20
REMARK    8  A    between atoms: N_22  and  N_23
REMARK    9  A    between atoms: N_23  and  S_24
REMARK   10  A    between atoms: S_24  and  C_27
REMARK   11  A    between atoms: C_28  and  C_34
REMARK   12  A    between atoms: C_31  and  C_33
REMARK                            x       y       z     vdW  Elec       q    Type
REMARK                         _______ _______ _______ _____ _____    ______ ____
ROOT
ATOM      1  C   UNL     1       3.324  -3.928  -1.287  0.00  0.00    -0.032 A 
ATOM      2  C   UNL     1       2.892  -2.898  -2.103  0.00  0.00    +0.006 A 
ATOM      3  C   UNL     1       3.675  -1.776  -2.276  0.00  0.00    +0.013 A 
ATOM      4  C   UNL     1       4.906  -1.681  -1.625  0.00  0.00    +0.038 A 
ATOM      5  C   UNL     1       5.336  -2.723  -0.802  0.00  0.00    +0.013 A 
ATOM      6  C   UNL     1       4.541  -3.838  -0.634  0.00  0.00    +0.006 A 
ENDROOT
BRANCH   4   7
ATOM      7  C   UNL     1       5.751  -0.481  -1.805  0.00  0.00    +0.259 C 
ATOM      8  O   UNL     1       5.374   0.425  -2.522  0.00  0.00    -0.269 OA
ATOM      9  N   UNL     1       6.939  -0.392  -1.175  0.00  0.00    -0.228 N 
ATOM     10  H   UNL     1       7.240  -1.115  -0.603  0.00  0.00    +0.171 HD
BRANCH   9  11
ATOM     11  N   UNL     1       7.740   0.745  -1.346  0.00  0.00    -0.108 NA
ATOM     12  H   UNL     1       7.994   1.029  -2.238  0.00  0.00    +0.172 HD
BRANCH  11  13
ATOM     13  S   UNL     1       8.253   1.602  -0.026  0.00  0.00    +0.074 S 
ATOM     14  O   UNL     1       9.150   2.594  -0.509  0.00  0.00    -0.152 OA
ATOM     15  O   UNL     1       7.091   1.927   0.724  0.00  0.00    -0.152 OA
BRANCH  13  16
ATOM     16  C   UNL     1       9.206   0.505   0.970  0.00  0.00    +0.133 C 
ATOM     17  C   UNL     1       8.851  -0.084   2.115  0.00  0.00    +0.084 C 
ATOM     18  N   UNL     1       9.853  -0.859   2.586  0.00  0.00    -0.157 NA
ATOM     19  N   UNL     1      10.867  -0.868   1.884  0.00  0.00    -0.178 NA
ATOM     20  C   UNL     1      10.617   0.003   0.723  0.00  0.00    +0.176 C 
ATOM     21  C   UNL     1      11.609   1.168   0.701  0.00  0.00    +0.041 C 
ATOM     22  C   UNL     1       7.516   0.092   2.790  0.00  0.00    +0.069 C 
ENDBRANCH  13  16
ENDBRANCH  11  13
ENDBRANCH   9  11
ENDBRANCH   4   7
BRANCH   1  23
ATOM     23  C   UNL     1       2.463  -5.151  -1.103  0.00  0.00    +0.144 C 
BRANCH  23  24
ATOM     24  N   UNL     1       1.642  -4.994   0.100  0.00  0.00    -0.175 NA
ATOM     25  C   UNL     1       2.195  -5.330   1.414  0.00  0.00    +0.132 C 
BRANCH  24  26
ATOM     26  S   UNL     1       0.088  -4.436  -0.026  0.00  0.00    +0.061 S 
ATOM     27  O   UNL     1      -0.015  -3.805  -1.295  0.00  0.00    -0.153 OA
ATOM     28  O   UNL     1      -0.199  -3.756   1.188  0.00  0.00    -0.153 OA
BRANCH  26  33
ATOM     29  C   UNL     1      -3.535  -9.258  -0.199  0.00  0.00    +0.044 C 
ATOM     30  C   UNL     1      -2.630  -8.054  -0.155  0.00  0.00    -0.050 A 
ATOM     31  C   UNL     1      -2.221  -7.540   1.061  0.00  0.00    +0.005 A 
ATOM     32  C   UNL     1      -1.391  -6.435   1.100  0.00  0.00    +0.029 A 
ATOM     33  C   UNL     1      -0.969  -5.845  -0.076  0.00  0.00    +0.105 A 
ATOM     34  C   UNL     1      -1.378  -6.359  -1.293  0.00  0.00    +0.029 A 
ATOM     35  C   UNL     1      -2.204  -7.466  -1.332  0.00  0.00    +0.005 A 
ENDBRANCH  26  33
ENDBRANCH  24  26
ENDBRANCH  23  24
ENDBRANCH   1  23
TORSDOF 8
