REMARK  Name = ZINC49541680
REMARK  5 active torsions:
REMARK  status: ('A' for Active; 'I' for Inactive)
REMARK    1  A    between atoms: C_1  and  O_2
REMARK    2  A    between atoms: O_2  and  C_3
REMARK    3  A    between atoms: C_6  and  S_10
REMARK    4  A    between atoms: C_8  and  N_9
REMARK    5  A    between atoms: S_10  and  N_13
REMARK                            x       y       z     vdW  Elec       q    Type
REMARK                         _______ _______ _______ _____ _____    ______ ____
ROOT
ATOM      1  S   UNL     1       2.620  -2.612  -4.588  0.00  0.00    +0.101 S 
ATOM      2  O   UNL     1       2.055  -3.912  -4.696  0.00  0.00    -0.146 OA
ATOM      3  O   UNL     1       2.587  -1.676  -5.657  0.00  0.00    -0.146 OA
ENDROOT
BRANCH   1   4
ATOM      4  N   UNL     1       4.214  -2.821  -4.190  0.00  0.00    -0.103 NA
ATOM      5  C   UNL     1       5.034  -3.382  -5.044  0.00  0.00    +0.192 A 
ATOM      6  N   UNL     1       4.785  -3.858  -6.305  0.00  0.00    -0.336 N 
ATOM      7  C   UNL     1       5.817  -4.422  -7.045  0.00  0.00    +0.028 A 
ATOM      8  C   UNL     1       7.021  -4.475  -6.476  0.00  0.00    +0.012 A 
ATOM      9  S   UNL     1       6.779  -3.726  -4.880  0.00  0.00    -0.053 S 
ATOM     10  C   UNL     1       8.053  -5.109  -7.365  0.00  0.00    +0.044 C 
ATOM     11  C   UNL     1       7.231  -5.850  -8.443  0.00  0.00    +0.011 C 
ATOM     12  C   UNL     1       5.922  -5.036  -8.445  0.00  0.00    +0.054 C 
ATOM     13  H   UNL     1       3.892  -3.802  -6.679  0.00  0.00    +0.168 HD
ENDBRANCH   1   4
BRANCH   1  17
ATOM     14  C   UNL     1       0.606  -0.608  -1.057  0.00  0.00    +0.141 A 
ATOM     15  C   UNL     1       1.173   0.158  -2.062  0.00  0.00    +0.049 A 
ATOM     16  C   UNL     1       1.786  -0.457  -3.138  0.00  0.00    +0.033 A 
ATOM     17  C   UNL     1       1.837  -1.836  -3.214  0.00  0.00    +0.115 A 
ATOM     18  C   UNL     1       1.274  -2.608  -2.214  0.00  0.00    +0.055 A 
ATOM     19  C   UNL     1       0.662  -1.998  -1.129  0.00  0.00    +0.069 A 
BRANCH  19  20
ATOM     20  N   UNL     1       0.097  -2.777  -0.113  0.00  0.00    -0.355 N 
ATOM     21  H   UNL     1      -0.334  -2.349   0.643  0.00  0.00    +0.142 HD
ATOM     22  H   UNL     1       0.136  -3.745  -0.165  0.00  0.00    +0.142 HD
ENDBRANCH  19  20
BRANCH  14  24
ATOM     23  C   UNL     1      -0.017   1.425   0.010  0.00  0.00    +0.277 C 
ATOM     24  O   UNL     1       0.002  -0.004   0.002  0.00  0.00    -0.493 OA
ENDBRANCH  14  24
ENDBRANCH   1  17
TORSDOF 4
