REMARK  Name = ZINC22965638
REMARK  4 active torsions:
REMARK  status: ('A' for Active; 'I' for Inactive)
REMARK    1  A    between atoms: C_4  and  C_7
REMARK    2  A    between atoms: C_13  and  C_17
REMARK    3  A    between atoms: N_19  and  N_20
REMARK    4  A    between atoms: C_21  and  C_23
REMARK                            x       y       z     vdW  Elec       q    Type
REMARK                         _______ _______ _______ _____ _____    ______ ____
ROOT
ATOM      1  C   UNL     1      -0.748   1.956  -1.142  0.00  0.00    +0.250 C 
ATOM      2  O   UNL     1      -0.145   2.669  -1.916  0.00  0.00    -0.272 OA
ATOM      3  N   UNL     1      -2.050   1.680  -1.354  0.00  0.00    -0.233 N 
ATOM      4  H   UNL     1      -2.597   1.034  -0.652  0.00  0.00    +0.173 HD
ENDROOT
BRANCH   1  11
ATOM      5  C   UNL     1       2.119   1.399  -1.054  0.00  0.00    +0.110 C 
ATOM      6  C   UNL     1       3.456   0.688  -0.779  0.00  0.00    +0.051 C 
ATOM      7  C   UNL     1       3.000  -0.792  -0.743  0.00  0.00    +0.099 C 
ATOM      8  C   UNL     1       1.542  -0.727  -0.346  0.00  0.00    +0.218 C 
ATOM      9  O   UNL     1       0.866  -1.685  -0.039  0.00  0.00    -0.276 OA
ATOM     10  N   UNL     1       1.100   0.547  -0.383  0.00  0.00    -0.270 N 
ATOM     11  C   UNL     1      -0.041   1.379   0.057  0.00  0.00    +0.175 C 
ATOM     12  C   UNL     1       0.541   2.529   0.941  0.00  0.00    +0.103 C 
ATOM     13  S   UNL     1       2.023   2.952  -0.076  0.00  0.00    -0.128 S 
BRANCH   5  17
ATOM     14  C   UNL     1       1.363   1.958  -5.221  0.00  0.00    +0.000 A 
ATOM     15  C   UNL     1       2.064   2.915  -4.511  0.00  0.00    +0.000 A 
ATOM     16  C   UNL     1       2.309   2.734  -3.163  0.00  0.00    +0.006 A 
ATOM     17  C   UNL     1       1.852   1.596  -2.524  0.00  0.00    -0.014 A 
ATOM     18  C   UNL     1       1.156   0.637  -3.235  0.00  0.00    +0.006 A 
ATOM     19  C   UNL     1       0.907   0.820  -4.582  0.00  0.00    +0.000 A 
ENDBRANCH   5  17
ENDBRANCH   1  11
BRANCH   3  20
ATOM     20  N   UNL     1      -2.707   2.217  -2.469  0.00  0.00    -0.234 N 
ATOM     21  C   UNL     1      -4.009   1.941  -2.682  0.00  0.00    +0.235 C 
ATOM     22  O   UNL     1      -4.612   1.228  -1.907  0.00  0.00    -0.274 OA
ATOM     23  H   UNL     1      -2.160   2.864  -3.171  0.00  0.00    +0.173 HD
BRANCH  21  24
ATOM     24  C   UNL     1      -4.715   2.518  -3.881  0.00  0.00    +0.049 C 
ATOM     25  C   UNL     1      -4.023   2.041  -5.159  0.00  0.00    +0.019 C 
ATOM     26  C   UNL     1      -4.741   2.627  -6.377  0.00  0.00    -0.009 C 
ATOM     27  C   UNL     1      -6.199   2.162  -6.383  0.00  0.00    +0.007 C 
ATOM     28  C   UNL     1      -6.891   2.639  -5.104  0.00  0.00    -0.009 C 
ATOM     29  C   UNL     1      -6.173   2.054  -3.887  0.00  0.00    +0.019 C 
ATOM     30  C   UNL     1      -6.843   4.167  -5.038  0.00  0.00    +0.007 C 
ATOM     31  C   UNL     1      -5.385   4.632  -5.033  0.00  0.00    -0.009 C 
ATOM     32  C   UNL     1      -4.693   4.155  -6.311  0.00  0.00    +0.007 C 
ATOM     33  C   UNL     1      -4.668   4.046  -3.815  0.00  0.00    +0.019 C 
ENDBRANCH  21  24
ENDBRANCH   3  20
TORSDOF 4
