REMARK  Name = ZINC16200000
REMARK  7 active torsions:
REMARK  status: ('A' for Active; 'I' for Inactive)
REMARK    1  A    between atoms: C_1  and  C_2
REMARK    2  A    between atoms: C_5  and  N_26
REMARK    3  A    between atoms: C_7  and  N_8
REMARK    4  A    between atoms: C_9  and  C_11
REMARK    5  A    between atoms: C_11  and  C_12
REMARK    6  A    between atoms: C_12  and  N_13
REMARK    7  A    between atoms: C_21  and  C_25
REMARK                            x       y       z     vdW  Elec       q    Type
REMARK                         _______ _______ _______ _____ _____    ______ ____
ROOT
ATOM      1  N   UNL     1       0.025  -0.015   2.417  0.00  0.00    -0.285 N 
ATOM      2  C   UNL     1      -0.057  -0.694   3.578  0.00  0.00    +0.219 C 
ATOM      3  O   UNL     1      -0.040  -1.907   3.573  0.00  0.00    -0.275 OA
ATOM      4  H   UNL     1       0.077   0.954   2.425  0.00  0.00    +0.155 HD
ENDROOT
BRANCH   1  11
ATOM      5  C   UNL     1      -1.265   1.183   0.181  0.00  0.00    +0.045 C 
ATOM      6  C   UNL     1      -0.584  -0.158   0.084  0.00  0.00    -0.029 A 
ATOM      7  C   UNL     1      -0.569  -0.841  -1.117  0.00  0.00    +0.007 A 
ATOM      8  C   UNL     1       0.056  -2.071  -1.206  0.00  0.00    +0.033 A 
ATOM      9  C   UNL     1       0.667  -2.622  -0.095  0.00  0.00    +0.128 A 
ATOM     10  C   UNL     1       0.656  -1.944   1.109  0.00  0.00    +0.056 A 
ATOM     11  C   UNL     1       0.034  -0.706   1.201  0.00  0.00    +0.038 A 
BRANCH   9  12
ATOM     12  N   UNL     1       1.334  -3.940  -0.195  0.00  0.00    +0.056 N 
ATOM     13  O   UNL     1       1.344  -4.534  -1.248  0.00  0.00    -0.126 OA
ATOM     14  O   UNL     1       1.868  -4.422   0.776  0.00  0.00    -0.126 OA
ENDBRANCH   9  12
ENDBRANCH   1  11
BRANCH   2  15
ATOM     15  C   UNL     1      -0.169   0.052   4.882  0.00  0.00    +0.115 C 
BRANCH  15  16
ATOM     16  C   UNL     1      -0.245  -0.948   6.037  0.00  0.00    +0.123 C 
BRANCH  16  17
ATOM     17  N   UNL     1      -0.354  -0.222   7.305  0.00  0.00    -0.265 N 
ATOM     18  C   UNL     1       0.797   0.152   8.012  0.00  0.00    +0.078 A 
ATOM     19  C   UNL     1       2.040   0.138   7.400  0.00  0.00    +0.027 A 
ATOM     20  C   UNL     1       3.163   0.509   8.116  0.00  0.00    +0.002 A 
ATOM     21  C   UNL     1       3.049   0.895   9.439  0.00  0.00    +0.004 A 
ATOM     22  C   UNL     1       1.811   0.912  10.056  0.00  0.00    +0.047 A 
ATOM     23  C   UNL     1       0.682   0.542   9.346  0.00  0.00    +0.143 A 
ATOM     24  O   UNL     1      -0.543   0.556   9.935  0.00  0.00    -0.478 OA
ATOM     25  C   UNL     1      -1.656   0.879   9.097  0.00  0.00    +0.256 C 
ATOM     26  C   UNL     1      -1.565   0.102   7.808  0.00  0.00    +0.260 C 
ATOM     27  O   UNL     1      -2.576  -0.233   7.227  0.00  0.00    -0.271 OA
ATOM     28  C   UNL     1      -1.641   2.377   8.785  0.00  0.00    +0.062 C 
ENDBRANCH  16  17
ENDBRANCH  15  16
ENDBRANCH   2  15
TORSDOF 5
