REMARK  Name = ZINC10491463
REMARK  7 active torsions:
REMARK  status: ('A' for Active; 'I' for Inactive)
REMARK    1  A    between atoms: C_9  and  C_12
REMARK    2  A    between atoms: C_10  and  O_11
REMARK    3  A    between atoms: C_12  and  O_14
REMARK    4  A    between atoms: O_14  and  C_15
REMARK    5  A    between atoms: C_15  and  C_16
REMARK    6  A    between atoms: N_18  and  C_19
REMARK    7  A    between atoms: C_20  and  C_28
REMARK                            x       y       z     vdW  Elec       q    Type
REMARK                         _______ _______ _______ _____ _____    ______ ____
ROOT
ATOM      1  C   UNL     1       3.564  10.136   0.017  0.00  0.00    +0.255 C 
ATOM      2  O   UNL     1       4.528   9.400   0.005  0.00  0.00    -0.272 OA
ATOM      3  N   UNL     1       3.735  11.473   0.022  0.00  0.00    -0.277 N 
ATOM      4  H   UNL     1       2.964  12.060   0.032  0.00  0.00    +0.155 HD
ENDROOT
BRANCH   3   5
ATOM      5  C   UNL     1       5.014  12.007   0.012  0.00  0.00    +0.084 A 
ATOM      6  C   UNL     1       5.391  13.343   0.009  0.00  0.00    +0.068 A 
ATOM      7  C   UNL     1       6.813  13.640   0.002  0.00  0.00    -0.023 A 
ATOM      8  C   UNL     1       7.626  12.561  -0.012  0.00  0.00    -0.004 A 
ATOM      9  S   UNL     1       6.531  11.170  -0.007  0.00  0.00    -0.077 S 
ATOM     10  C   UNL     1       9.123  12.559  -0.028  0.00  0.00    +0.043 C 
ATOM     11  C   UNL     1       9.605  13.968  -0.405  0.00  0.00    +0.005 C 
ATOM     12  C   UNL     1       8.847  14.992   0.445  0.00  0.00    +0.005 C 
ATOM     13  C   UNL     1       7.384  15.053   0.003  0.00  0.00    +0.037 C 
BRANCH   6  14
ATOM     14  C   UNL     1       4.390  14.415   0.017  0.00  0.00    +0.244 C 
ATOM     15  O   UNL     1       3.984  14.860   1.075  0.00  0.00    -0.270 OA
ATOM     16  N   UNL     1       3.921  14.907  -1.146  0.00  0.00    -0.325 N 
ATOM     17  H   UNL     1       4.244  14.552  -1.989  0.00  0.00    +0.145 HD
ATOM     18  H   UNL     1       3.259  15.616  -1.141  0.00  0.00    +0.145 HD
ENDBRANCH   6  14
ENDBRANCH   3   5
BRANCH   1  19
ATOM     19  C   UNL     1       2.173   9.555   0.028  0.00  0.00    +0.328 C 
BRANCH  19  20
ATOM     20  O   UNL     1       2.255   8.105   0.020  0.00  0.00    -0.452 OA
BRANCH  20  21
ATOM     21  C   UNL     1       1.090   7.426   0.028  0.00  0.00    +0.343 C 
ATOM     22  O   UNL     1       0.035   8.030   0.041  0.00  0.00    -0.245 OA
BRANCH  21  31
ATOM     23  C   UNL     1      -0.013   1.076   0.008  0.00  0.00    +0.001 A 
ATOM     24  C   UNL     1      -1.234   1.745   0.017  0.00  0.00    +0.001 A 
ATOM     25  C   UNL     1      -1.286   3.106   0.030  0.00  0.00    +0.012 A 
ATOM     26  C   UNL     1      -0.093   3.848   0.023  0.00  0.00    +0.024 A 
ATOM     27  C   UNL     1       1.150   3.167   0.008  0.00  0.00    -0.014 A 
ATOM     28  C   UNL     1       1.163   1.763   0.000  0.00  0.00    +0.008 A 
ATOM     29  C   UNL     1       2.350   3.904  -0.000  0.00  0.00    +0.009 A 
ATOM     30  C   UNL     1       2.319   5.259   0.007  0.00  0.00    +0.019 A 
ATOM     31  C   UNL     1       1.095   5.955   0.021  0.00  0.00    +0.101 A 
ATOM     32  C   UNL     1      -0.112   5.257   0.029  0.00  0.00    +0.138 A 
BRANCH  32  33
ATOM     33  O   UNL     1      -1.289   5.926   0.043  0.00  0.00    -0.505 OA
ATOM     34  H   UNL     1      -1.623   6.116   0.931  0.00  0.00    +0.292 HD
ENDBRANCH  32  33
ENDBRANCH  21  31
ENDBRANCH  20  21
ENDBRANCH  19  20
ENDBRANCH   1  19
TORSDOF 7
