REMARK  Name = ZINC65087322
REMARK  3 active torsions:
REMARK  status: ('A' for Active; 'I' for Inactive)
REMARK    1  A    between atoms: C_8  and  C_26
REMARK    2  A    between atoms: C_12  and  C_14
REMARK    3  A    between atoms: N_17  and  C_19
REMARK                            x       y       z     vdW  Elec       q    Type
REMARK                         _______ _______ _______ _____ _____    ______ ____
ROOT
ATOM      1  C   UNL     1       1.200   1.605   2.845  0.00  0.00    +0.000 A 
ATOM      2  C   UNL     1       0.425   1.712   1.705  0.00  0.00    +0.000 A 
ATOM      3  C   UNL     1       0.385   0.668   0.804  0.00  0.00    +0.005 A 
ATOM      4  C   UNL     1       1.115  -0.491   1.036  0.00  0.00    -0.027 A 
ATOM      5  C   UNL     1       1.879  -0.602   2.175  0.00  0.00    -0.040 A 
ATOM      6  C   UNL     1       1.923   0.454   3.077  0.00  0.00    +0.004 A 
ATOM      7  C   UNL     1       2.673  -1.838   2.509  0.00  0.00    +0.067 C 
ATOM      8  C   UNL     1       2.920  -2.680   1.259  0.00  0.00    +0.167 C 
ATOM      9  N   UNL     1       1.641  -2.813   0.542  0.00  0.00    -0.280 N 
ATOM     10  C   UNL     1       1.039  -1.588   0.004  0.00  0.00    +0.144 C 
ATOM     11  C   UNL     1       1.046  -4.013   0.386  0.00  0.00    +0.268 C 
ATOM     12  O   UNL     1       1.471  -4.984   0.981  0.00  0.00    -0.268 OA
ENDROOT
BRANCH  11  13
ATOM     13  C   UNL     1      -0.121  -4.147  -0.508  0.00  0.00    +0.148 A 
ATOM     14  C   UNL     1      -0.927  -5.299  -0.672  0.00  0.00    +0.054 A 
ATOM     15  C   UNL     1      -1.867  -4.959  -1.584  0.00  0.00    +0.115 A 
ATOM     16  N   UNL     1      -1.629  -3.670  -1.941  0.00  0.00    -0.238 N 
ATOM     17  N   UNL     1      -0.613  -3.215  -1.300  0.00  0.00    -0.162 NA
BRANCH  16  18
ATOM     18  C   UNL     1      -2.385  -2.942  -2.870  0.00  0.00    +0.084 A 
ATOM     19  C   UNL     1      -3.474  -3.532  -3.498  0.00  0.00    +0.029 A 
ATOM     20  C   UNL     1      -4.217  -2.812  -4.412  0.00  0.00    +0.002 A 
ATOM     21  C   UNL     1      -3.878  -1.503  -4.704  0.00  0.00    +0.002 A 
ATOM     22  C   UNL     1      -2.795  -0.911  -4.081  0.00  0.00    +0.022 A 
ATOM     23  C   UNL     1      -2.050  -1.625  -3.161  0.00  0.00    +0.066 A 
ATOM     24 CL   UNL     1      -0.694  -0.879  -2.374  0.00  0.00    -0.081 Cl
ENDBRANCH  16  18
ENDBRANCH  11  13
BRANCH   8  25
ATOM     25  C   UNL     1       3.428  -4.043   1.654  0.00  0.00    +0.231 C 
ATOM     26  O   UNL     1       4.411  -4.504   1.114  0.00  0.00    -0.274 OA
ATOM     27  N   UNL     1       2.789  -4.750   2.607  0.00  0.00    -0.328 N 
ATOM     28  H   UNL     1       2.002  -4.382   3.039  0.00  0.00    +0.145 HD
ATOM     29  H   UNL     1       3.116  -5.627   2.862  0.00  0.00    +0.145 HD
ENDBRANCH   8  25
TORSDOF 3
