REMARK  Name = ZINC29811806
REMARK  10 active torsions:
REMARK  status: ('A' for Active; 'I' for Inactive)
REMARK    1  A    between atoms: C_1  and  C_2
REMARK    2  A    between atoms: C_5  and  N_28
REMARK    3  A    between atoms: C_7  and  N_8
REMARK    4  A    between atoms: C_9  and  C_11
REMARK    5  A    between atoms: C_11  and  C_13
REMARK    6  A    between atoms: C_11  and  N_14
REMARK    7  A    between atoms: N_14  and  C_15
REMARK    8  A    between atoms: C_18  and  N_21
REMARK    9  A    between atoms: N_24  and  C_25
REMARK   10  A    between atoms: C_25  and  C_26
REMARK                            x       y       z     vdW  Elec       q    Type
REMARK                         _______ _______ _______ _____ _____    ______ ____
ROOT
ATOM      1  N   UNL     1      -1.069   7.564   0.403  0.00  0.00    -0.333 N 
ATOM      2  H   UNL     1      -2.006   8.132   0.494  0.00  0.00    +0.147 HD
ENDROOT
BRANCH   1   3
ATOM      3  C   UNL     1      -1.103   6.170   0.294  0.00  0.00    +0.028 A 
ATOM      4  C   UNL     1      -2.321   5.503   0.301  0.00  0.00    +0.025 A 
ATOM      5  C   UNL     1      -2.355   4.127   0.194  0.00  0.00    +0.025 A 
ATOM      6  C   UNL     1      -1.172   3.410   0.079  0.00  0.00    +0.035 A 
ATOM      7  C   UNL     1       0.046   4.076   0.078  0.00  0.00    +0.025 A 
ATOM      8  C   UNL     1       0.080   5.453   0.180  0.00  0.00    +0.025 A 
BRANCH   6   9
ATOM      9  N   UNL     1      -1.206   2.012  -0.029  0.00  0.00    -0.269 N 
ATOM     10  C   UNL     1      -0.201   1.359  -0.645  0.00  0.00    +0.304 C 
ATOM     11  O   UNL     1       0.678   1.986  -1.204  0.00  0.00    -0.253 OA
ATOM     12  N   UNL     1      -0.174   0.012  -0.647  0.00  0.00    -0.296 N 
ATOM     13  H   UNL     1      -2.054   1.449   0.389  0.00  0.00    +0.156 HD
ATOM     14  H   UNL     1      -0.970  -0.555  -0.142  0.00  0.00    +0.151 HD
BRANCH  12  15
ATOM     15  C   UNL     1       0.915  -0.698  -1.322  0.00  0.00    +0.132 C 
BRANCH  15  16
ATOM     16  C   UNL     1       0.711  -2.184  -1.178  0.00  0.00    -0.016 C 
ATOM     17  C   UNL     1       0.673  -2.947  -2.242  0.00  0.00    +0.005 C 
ENDBRANCH  15  16
ENDBRANCH  12  15
ENDBRANCH   6   9
ENDBRANCH   1   3
BRANCH   1  18
ATOM     18  C   UNL     1       0.216   8.268   0.396  0.00  0.00    +0.154 C 
ATOM     19  C   UNL     1       0.653   8.517  -1.049  0.00  0.00    +0.038 C 
BRANCH  18  21
ATOM     20  N   UNL     1       1.131  10.410   1.228  0.00  0.00    -0.284 N 
ATOM     21  C   UNL     1       0.070   9.587   1.111  0.00  0.00    +0.237 C 
ATOM     22  O   UNL     1      -1.001   9.907   1.580  0.00  0.00    -0.273 OA
ATOM     23  H   UNL     1       2.083  10.155   0.739  0.00  0.00    +0.155 HD
BRANCH  20  30
ATOM     24  C   UNL     1       3.411  11.296   2.683  0.00  0.00    +0.045 C 
ATOM     25  C   UNL     1       2.110  12.057   2.698  0.00  0.00    -0.029 A 
ATOM     26  C   UNL     1       1.999  13.222   3.433  0.00  0.00    +0.007 A 
ATOM     27  C   UNL     1       0.806  13.921   3.448  0.00  0.00    +0.033 A 
ATOM     28  C   UNL     1      -0.279  13.457   2.727  0.00  0.00    +0.128 A 
ATOM     29  C   UNL     1      -0.173  12.297   1.986  0.00  0.00    +0.056 A 
ATOM     30  C   UNL     1       1.022  11.589   1.974  0.00  0.00    +0.039 A 
BRANCH  28  31
ATOM     31  N   UNL     1      -1.554  14.209   2.744  0.00  0.00    +0.056 N 
ATOM     32  O   UNL     1      -1.647  15.236   3.394  0.00  0.00    -0.126 OA
ATOM     33  O   UNL     1      -2.510  13.802   2.110  0.00  0.00    -0.126 OA
ENDBRANCH  28  31
ENDBRANCH  20  30
ENDBRANCH  18  21
ENDBRANCH   1  18
TORSDOF 8
