REMARK  Name = ZINC60940544
REMARK  8 active torsions:
REMARK  status: ('A' for Active; 'I' for Inactive)
REMARK    1  A    between atoms: C_1  and  C_2
REMARK    2  A    between atoms: C_6  and  N_9
REMARK    3  A    between atoms: C_7  and  C_8
REMARK    4  A    between atoms: N_12  and  C_13
REMARK    5  A    between atoms: C_13  and  C_14
REMARK    6  A    between atoms: C_17  and  S_19
REMARK    7  A    between atoms: S_19  and  N_22
REMARK    8  A    between atoms: N_22  and  C_23
REMARK                            x       y       z     vdW  Elec       q    Type
REMARK                         _______ _______ _______ _____ _____    ______ ____
ROOT
ATOM      1  N   UNL     1      -0.612  -2.548   1.244  0.00  0.00    -0.296 N 
ATOM      2  C   UNL     1      -0.873  -3.776   1.733  0.00  0.00    +0.300 C 
ATOM      3  O   UNL     1       0.032  -4.463   2.165  0.00  0.00    -0.253 OA
ATOM      4  N   UNL     1      -2.137  -4.243   1.742  0.00  0.00    -0.295 N 
ATOM      5  H   UNL     1      -1.333  -2.000   0.898  0.00  0.00    +0.151 HD
ATOM      6  H   UNL     1      -2.859  -3.694   1.397  0.00  0.00    +0.151 HD
ENDROOT
BRANCH   1  12
ATOM      7  C   UNL     1      -0.019   1.526   0.010  0.00  0.00    +0.008 C 
ATOM      8  C   UNL     1       0.002  -0.004   0.002  0.00  0.00    -0.009 C 
ATOM      9  C   UNL     1       0.718  -0.497  -1.257  0.00  0.00    +0.003 C 
ATOM     10  C   UNL     1       0.739  -2.027  -1.265  0.00  0.00    +0.002 C 
ATOM     11  C   UNL     1       1.479  -2.534  -0.026  0.00  0.00    +0.022 C 
ATOM     12  C   UNL     1       0.763  -2.041   1.233  0.00  0.00    +0.078 C 
ATOM     13  C   UNL     1       0.742  -0.511   1.242  0.00  0.00    +0.009 C 
ATOM     14  C   UNL     1       0.026  -0.018   2.500  0.00  0.00    +0.009 C 
ENDBRANCH   1  12
BRANCH   4  15
ATOM     15  C   UNL     1      -2.422  -5.578   2.274  0.00  0.00    +0.148 C 
BRANCH  15  16
ATOM     16  C   UNL     1      -3.899  -5.856   2.170  0.00  0.00    +0.009 A 
ATOM     17  C   UNL     1      -4.590  -6.431   1.156  0.00  0.00    +0.015 A 
ATOM     18  C   UNL     1      -5.958  -6.587   1.281  0.00  0.00    +0.037 A 
ATOM     19  C   UNL     1      -6.567  -6.161   2.414  0.00  0.00    +0.143 A 
ATOM     20  S   UNL     1      -5.192  -5.521   3.355  0.00  0.00    -0.072 S 
BRANCH  19  21
ATOM     21  S   UNL     1      -8.274  -6.228   2.849  0.00  0.00    +0.064 S 
ATOM     22  O   UNL     1      -8.488  -5.206   3.812  0.00  0.00    -0.153 OA
ATOM     23  O   UNL     1      -9.001  -6.290   1.629  0.00  0.00    -0.153 OA
BRANCH  21  24
ATOM     24  N   UNL     1      -8.525  -7.670   3.624  0.00  0.00    -0.193 NA
ATOM     25  C   UNL     1      -7.881  -7.930   4.914  0.00  0.00    +0.127 C 
ATOM     26  H   UNL     1      -9.099  -8.342   3.224  0.00  0.00    +0.148 HD
ENDBRANCH  21  24
ENDBRANCH  19  21
ENDBRANCH  15  16
ENDBRANCH   4  15
TORSDOF 5
