REMARK  Name = ZINC59780674
REMARK  13 active torsions:
REMARK  status: ('A' for Active; 'I' for Inactive)
REMARK    1  A    between atoms: C_1  and  C_2
REMARK    2  A    between atoms: C_2  and  C_4
REMARK    3  A    between atoms: C_2  and  N_16
REMARK    4  A    between atoms: C_4  and  C_5
REMARK    5  A    between atoms: C_5  and  C_6
REMARK    6  A    between atoms: C_9  and  O_12
REMARK    7  A    between atoms: O_12  and  C_13
REMARK    8  A    between atoms: C_13  and  C_14
REMARK    9  A    between atoms: C_13  and  C_15
REMARK   10  A    between atoms: C_17  and  C_19
REMARK   11  A    between atoms: C_19  and  C_20
REMARK   12  A    between atoms: C_20  and  C_22
REMARK   13  A    between atoms: C_20  and  N_29
REMARK                            x       y       z     vdW  Elec       q    Type
REMARK                         _______ _______ _______ _____ _____    ______ ____
ROOT
ATOM      1  N   UNL     1      -0.087   0.944  -1.357  0.00  0.00    -0.313 N 
ATOM      2  C   UNL     1       1.258   0.885  -1.296  0.00  0.00    +0.215 C 
ATOM      3  O   UNL     1       1.843   1.339  -0.335  0.00  0.00    -0.276 OA
ATOM      4  H   UNL     1      -0.554   0.582  -2.126  0.00  0.00    +0.149 HD
ENDROOT
BRANCH   1   6
ATOM      5  C   UNL     1      -0.913   3.070  -0.473  0.00  0.00    +0.028 C 
ATOM      6  C   UNL     1      -0.843   1.556  -0.262  0.00  0.00    +0.070 C 
BRANCH   6   7
ATOM      7  C   UNL     1      -2.260   0.979  -0.235  0.00  0.00    +0.026 C 
BRANCH   7   8
ATOM      8  C   UNL     1      -2.196  -0.513   0.101  0.00  0.00    +0.037 C 
BRANCH   8   9
ATOM      9  C   UNL     1      -3.591  -1.082   0.127  0.00  0.00    -0.047 A 
ATOM     10  C   UNL     1      -4.316  -1.078   1.305  0.00  0.00    +0.007 A 
ATOM     11  C   UNL     1      -5.595  -1.599   1.331  0.00  0.00    +0.046 A 
ATOM     12  C   UNL     1      -6.152  -2.127   0.175  0.00  0.00    +0.121 A 
ATOM     13  C   UNL     1      -5.423  -2.129  -1.005  0.00  0.00    +0.046 A 
ATOM     14  C   UNL     1      -4.146  -1.601  -1.028  0.00  0.00    +0.007 A 
BRANCH  12  15
ATOM     15  O   UNL     1      -7.410  -2.640   0.199  0.00  0.00    -0.489 OA
BRANCH  15  16
ATOM     16  C   UNL     1      -8.058  -2.711   1.471  0.00  0.00    +0.167 C 
ATOM     17  C   UNL     1      -8.731  -1.371   1.775  0.00  0.00    +0.051 C 
ATOM     18  C   UNL     1      -9.114  -3.817   1.445  0.00  0.00    +0.051 C 
ENDBRANCH  15  16
ENDBRANCH  12  15
ENDBRANCH   8   9
ENDBRANCH   7   8
ENDBRANCH   6   7
ENDBRANCH   1   6
BRANCH   2  19
ATOM     19  C   UNL     1       2.037   0.256  -2.423  0.00  0.00    +0.123 C 
BRANCH  19  20
ATOM     20  C   UNL     1       3.532   0.318  -2.107  0.00  0.00    +0.113 C 
BRANCH  20  21
ATOM     21  C   UNL     1       4.316  -0.199  -3.285  0.00  0.00    -0.026 A 
ATOM     22  C   UNL     1       5.005   0.682  -4.098  0.00  0.00    +0.005 A 
ATOM     23  C   UNL     1       5.725   0.209  -5.179  0.00  0.00    +0.001 A 
ATOM     24  C   UNL     1       5.756  -1.147  -5.448  0.00  0.00    +0.015 A 
ATOM     25  C   UNL     1       5.068  -2.029  -4.635  0.00  0.00    +0.018 A 
ATOM     26  C   UNL     1       4.352  -1.555  -3.550  0.00  0.00    +0.020 A 
ATOM     27 BR   UNL     1       5.110  -3.883  -5.004  0.00  0.00    -0.050 Br
ENDBRANCH  20  21
BRANCH  20  28
ATOM     28  N   UNL     1       3.817  -0.508  -0.931  0.00  0.00    -0.292 N 
ATOM     29  C   UNL     1       4.902  -0.250  -0.173  0.00  0.00    +0.298 C 
ATOM     30  O   UNL     1       5.595   0.719  -0.414  0.00  0.00    -0.253 OA
ATOM     31  N   UNL     1       5.218  -1.067   0.851  0.00  0.00    -0.313 N 
ATOM     32  H   UNL     1       3.225  -1.240  -0.697  0.00  0.00    +0.151 HD
ATOM     33  H   UNL     1       4.665  -1.841   1.043  0.00  0.00    +0.146 HD
ATOM     34  H   UNL     1       5.999  -0.882   1.396  0.00  0.00    +0.146 HD
ENDBRANCH  20  28
ENDBRANCH  19  20
ENDBRANCH   2  19
TORSDOF 10
