REMARK  Name = ZINC22901797
REMARK  6 active torsions:
REMARK  status: ('A' for Active; 'I' for Inactive)
REMARK    1  A    between atoms: C_3  and  C_6
REMARK    2  A    between atoms: N_8  and  C_9
REMARK    3  A    between atoms: C_9  and  C_10
REMARK    4  A    between atoms: C_10  and  N_11
REMARK    5  A    between atoms: C_12  and  C_14
REMARK    6  A    between atoms: C_14  and  C_15
REMARK                            x       y       z     vdW  Elec       q    Type
REMARK                         _______ _______ _______ _____ _____    ______ ____
ROOT
ATOM      1  N   UNL     1       2.098   2.855   3.668  0.00  0.00    -0.314 N 
ATOM      2  C   UNL     1       1.722   2.887   2.373  0.00  0.00    +0.215 C 
ATOM      3  O   UNL     1       0.883   3.681   2.005  0.00  0.00    -0.276 OA
ATOM      4  H   UNL     1       2.859   2.134   4.002  0.00  0.00    +0.149 HD
ENDROOT
BRANCH   1   5
ATOM      5  C   UNL     1       1.492   3.779   4.629  0.00  0.00    +0.123 C 
BRANCH   5   6
ATOM      6  C   UNL     1       2.089   3.536   6.016  0.00  0.00    +0.123 C 
BRANCH   6   9
ATOM      7  C   UNL     1       1.858   4.428   8.272  0.00  0.00    +0.279 C 
ATOM      8  O   UNL     1       2.700   3.631   8.642  0.00  0.00    -0.267 OA
ATOM      9  N   UNL     1       1.483   4.460   6.978  0.00  0.00    -0.307 N 
ATOM     10  H   UNL     1       0.721   5.180   6.644  0.00  0.00    +0.149 HD
BRANCH   7  13
ATOM     11  C   UNL     1       0.731   6.445  11.099  0.00  0.00    +0.042 A 
ATOM     12  C   UNL     1       1.538   5.427  10.567  0.00  0.00    +0.054 A 
ATOM     13  C   UNL     1       1.251   5.354   9.235  0.00  0.00    +0.189 A 
ATOM     14  O   UNL     1       0.316   6.285   8.957  0.00  0.00    -0.458 OA
ATOM     15  C   UNL     1      -0.004   6.942  10.079  0.00  0.00    +0.196 A 
ENDBRANCH   7  13
ENDBRANCH   6   9
ENDBRANCH   5   6
ENDBRANCH   1   5
BRANCH   2  16
ATOM     16  C   UNL     1       2.346   1.936   1.385  0.00  0.00    +0.119 C 
BRANCH  16  17
ATOM     17  C   UNL     1       1.749   2.179  -0.003  0.00  0.00    +0.146 C 
ATOM     18  C   UNL     1       2.438   1.298  -1.012  0.00  0.00    +0.231 C 
ATOM     19  O   UNL     1       3.324   1.777  -1.688  0.00  0.00    -0.274 OA
ATOM     20  N   UNL     1       2.121   0.021  -1.199  0.00  0.00    -0.284 N 
ATOM     21  C   UNL     1       1.066  -0.668  -0.607  0.00  0.00    +0.048 A 
ATOM     22  C   UNL     1       1.074  -2.059  -0.618  0.00  0.00    +0.044 A 
ATOM     23  C   UNL     1       0.043  -2.766  -0.028  0.00  0.00    +0.043 A 
ATOM     24  C   UNL     1      -1.006  -2.099   0.580  0.00  0.00    +0.021 A 
ATOM     25  C   UNL     1      -1.028  -0.717   0.594  0.00  0.00    +0.018 A 
ATOM     26  C   UNL     1       0.002  -0.004   0.002  0.00  0.00    +0.030 A 
ATOM     27  S   UNL     1      -0.022   1.762   0.012  0.00  0.00    -0.110 S 
ATOM     28 CL   UNL     1       0.066  -4.502  -0.048  0.00  0.00    -0.083 Cl
ATOM     29  H   UNL     1       2.721  -0.601  -1.880  0.00  0.00    +0.155 HD
ENDBRANCH  16  17
ENDBRANCH   2  16
TORSDOF 6
