REMARK  Name = ZINC66940367
REMARK  6 active torsions:
REMARK  status: ('A' for Active; 'I' for Inactive)
REMARK    1  A    between atoms: C_6  and  C_7
REMARK    2  A    between atoms: C_7  and  C_9
REMARK    3  A    between atoms: C_7  and  N_12
REMARK    4  A    between atoms: N_12  and  C_13
REMARK    5  A    between atoms: C_22  and  O_24
REMARK    6  A    between atoms: O_24  and  C_25
REMARK                            x       y       z     vdW  Elec       q    Type
REMARK                         _______ _______ _______ _____ _____    ______ ____
ROOT
ATOM      1  N   UNL     1      -1.527  -2.364  -1.466  0.00  0.00    +0.394 N 
ATOM      2  H   UNL     1      -0.878  -3.031  -1.077  0.00  0.00    -0.083 HD
ATOM      3  H   UNL     1      -2.045  -1.925  -0.720  0.00  0.00    -0.083 HD
ENDROOT
BRANCH   1   4
ATOM      4  C   UNL     1      -2.458  -3.056  -2.367  0.00  0.00    -0.039 C 
ATOM      5  C   UNL     1      -1.663  -3.814  -3.427  0.00  0.00    -0.011 C 
ATOM      6  C   UNL     1      -2.633  -4.699  -4.220  0.00  0.00    +0.003 C 
ATOM      7  C   UNL     1      -3.109  -5.828  -3.308  0.00  0.00    +0.035 C 
ATOM      8  C   UNL     1      -3.615  -5.276  -2.001  0.00  0.00    -0.042 A 
ATOM      9  C   UNL     1      -3.312  -4.005  -1.567  0.00  0.00    -0.058 A 
ATOM     10  C   UNL     1      -3.804  -3.557  -0.347  0.00  0.00    +0.006 A 
ATOM     11  C   UNL     1      -4.596  -4.374   0.432  0.00  0.00    +0.046 A 
ATOM     12  C   UNL     1      -4.904  -5.654  -0.005  0.00  0.00    +0.127 A 
ATOM     13  C   UNL     1      -4.413  -6.098  -1.219  0.00  0.00    +0.049 A 
BRANCH  12  14
ATOM     14  O   UNL     1      -5.686  -6.465   0.755  0.00  0.00    -0.434 OA
BRANCH  14  15
ATOM     15  C   UNL     1      -6.157  -5.936   1.996  0.00  0.00    +0.541 C 
ATOM     16  F   UNL     1      -5.066  -5.601   2.804  0.00  0.00    -0.166 F 
ATOM     17  F   UNL     1      -6.926  -4.793   1.754  0.00  0.00    -0.166 F 
ENDBRANCH  14  15
ENDBRANCH  12  14
ENDBRANCH   1   4
BRANCH   1  18
ATOM     18  C   UNL     1      -0.787  -1.341  -2.217  0.00  0.00    +0.047 C 
BRANCH  18  24
ATOM     19  C   UNL     1       1.508  -0.422  -1.829  0.00  0.00    +0.005 A 
ATOM     20  C   UNL     1       2.465   0.149  -1.012  0.00  0.00    +0.038 A 
ATOM     21  C   UNL     1       2.169   0.423   0.313  0.00  0.00    +0.123 A 
ATOM     22  C   UNL     1       0.914   0.126   0.817  0.00  0.00    +0.038 A 
ATOM     23  C   UNL     1      -0.041  -0.445  -0.003  0.00  0.00    +0.005 A 
ATOM     24  C   UNL     1       0.256  -0.719  -1.325  0.00  0.00    -0.053 A 
ATOM     25  F   UNL     1       3.104   0.981   1.113  0.00  0.00    -0.205 F 
ENDBRANCH  18  24
BRANCH  18  26
ATOM     26  C   UNL     1      -1.743  -0.277  -2.691  0.00  0.00    +0.201 C 
ATOM     27  O   UNL     1      -2.762  -0.058  -2.072  0.00  0.00    -0.277 OA
ATOM     28  N   UNL     1      -1.465   0.432  -3.803  0.00  0.00    -0.330 N 
ATOM     29  H   UNL     1      -0.649   0.256  -4.299  0.00  0.00    +0.145 HD
ATOM     30  H   UNL     1      -2.080   1.117  -4.109  0.00  0.00    +0.145 HD
ENDBRANCH  18  26
ENDBRANCH   1  18
TORSDOF 6
