REMARK  Name = ZINC08214812
REMARK  18 active torsions:
REMARK  status: ('A' for Active; 'I' for Inactive)
REMARK    1  A    between atoms: C_1  and  C_2
REMARK    2  A    between atoms: C_2  and  O_4
REMARK    3  A    between atoms: O_4  and  C_5
REMARK    4  A    between atoms: C_10  and  C_54
REMARK    5  A    between atoms: C_11  and  O_23
REMARK    6  A    between atoms: C_14  and  O_19
REMARK    7  A    between atoms: C_16  and  C_17
REMARK    8  A    between atoms: C_16  and  C_18
REMARK    9  A    between atoms: O_19  and  C_20
REMARK   10  A    between atoms: C_20  and  C_22
REMARK   11  A    between atoms: O_23  and  C_24
REMARK   12  A    between atoms: C_24  and  C_26
REMARK   13  A    between atoms: C_29  and  C_53
REMARK   14  A    between atoms: C_37  and  C_48
REMARK   15  A    between atoms: C_39  and  C_47
REMARK   16  A    between atoms: C_41  and  O_43
REMARK   17  A    between atoms: O_43  and  C_44
REMARK   18  A    between atoms: C_44  and  C_46
REMARK                            x       y       z     vdW  Elec       q    Type
REMARK                         _______ _______ _______ _____ _____    ______ ____
ROOT
ATOM      1  C   UNL     1      -1.888  -2.644   0.034  0.00  0.00    +0.186 C 
ATOM      2  C   UNL     1      -1.865  -3.218  -1.362  0.00  0.00    +0.050 C 
ATOM      3  C   UNL     1      -3.195  -3.397  -2.071  0.00  0.00    +0.011 C 
ATOM      4  C   UNL     1      -4.249  -4.001  -1.147  0.00  0.00    +0.016 C 
ATOM      5  C   UNL     1      -5.590  -4.061  -1.889  0.00  0.00    +0.186 C 
ATOM      6  C   UNL     1      -6.001  -2.650  -2.297  0.00  0.00    +0.090 C 
ATOM      7  C   UNL     1      -5.042  -2.227  -3.410  0.00  0.00    +0.186 C 
ATOM      8  C   UNL     1      -3.595  -2.213  -2.917  0.00  0.00    +0.006 C 
ATOM      9  C   UNL     1      -2.709  -2.226  -4.191  0.00  0.00    +0.015 C 
ATOM     10  C   UNL     1      -3.347  -0.867  -2.230  0.00  0.00    +0.015 C 
ATOM     11  C   UNL     1      -4.337  -3.183   0.127  0.00  0.00    +0.052 C 
ATOM     12  C   UNL     1      -3.045  -3.101   0.913  0.00  0.00    +0.044 C 
ATOM     13  C   UNL     1      -3.211  -2.108   2.079  0.00  0.00    +0.125 C 
ATOM     14  C   UNL     1      -2.014  -1.371   2.662  0.00  0.00    +0.260 C 
ATOM     15  O   UNL     1      -2.523  -2.570   3.270  0.00  0.00    -0.352 OA
ATOM     16  C   UNL     1      -2.325  -0.116   3.463  0.00  0.00    +0.340 C 
ATOM     17  O   UNL     1      -1.434   0.634   3.786  0.00  0.00    -0.248 OA
ATOM     18  O   UNL     1      -3.589   0.143   3.804  0.00  0.00    -0.454 OA
ATOM     19  C   UNL     1      -4.601  -0.844   3.695  0.00  0.00    +0.218 C 
ATOM     20  C   UNL     1      -4.588  -1.510   2.316  0.00  0.00    +0.045 C 
ATOM     21  C   UNL     1      -5.678  -2.550   2.201  0.00  0.00    +0.058 C 
ATOM     22  C   UNL     1      -5.543  -3.472   0.991  0.00  0.00    +0.182 C 
ATOM     23  C   UNL     1      -4.848  -0.369   1.334  0.00  0.00    +0.018 C 
ATOM     24  C   UNL     1      -2.646  -4.428   1.589  0.00  0.00    +0.018 C 
ATOM     25  C   UNL     1      -3.870  -5.472  -0.900  0.00  0.00    +0.015 C 
ENDROOT
BRANCH  19  26
ATOM     26  C   UNL     1      -5.941  -0.185   3.897  0.00  0.00    +0.031 A 
ATOM     27  C   UNL     1      -7.037  -0.708   4.621  0.00  0.00    +0.048 A 
ATOM     28  C   UNL     1      -8.024   0.203   4.546  0.00  0.00    +0.195 A 
ATOM     29  O   UNL     1      -7.587   1.243   3.819  0.00  0.00    -0.471 OA
ATOM     30  C   UNL     1      -6.323   1.016   3.426  0.00  0.00    +0.202 A 
ENDBRANCH  19  26
BRANCH   1  31
ATOM     31  O   UNL     1      -1.798  -1.219   0.022  0.00  0.00    -0.461 OA
BRANCH  31  33
ATOM     32  C   UNL     1      -0.394   0.811  -0.039  0.00  0.00    +0.136 C 
ATOM     33  C   UNL     1      -0.567  -0.686  -0.023  0.00  0.00    +0.304 C 
ATOM     34  O   UNL     1       0.402  -1.406  -0.052  0.00  0.00    -0.251 OA
ENDBRANCH  31  33
ENDBRANCH   1  31
BRANCH   7  35
ATOM     35  O   UNL     1      -5.396  -0.915  -3.862  0.00  0.00    -0.461 OA
BRANCH  35  36
ATOM     36  C   UNL     1      -6.281  -0.835  -4.868  0.00  0.00    +0.304 C 
ATOM     37  O   UNL     1      -6.740  -1.844  -5.351  0.00  0.00    -0.251 OA
ATOM     38  C   UNL     1      -6.701   0.512  -5.397  0.00  0.00    +0.136 C 
ENDBRANCH  35  36
ENDBRANCH   7  35
BRANCH   5  39
ATOM     39  O   UNL     1      -6.595  -4.714  -1.135  0.00  0.00    -0.461 OA
BRANCH  39  40
ATOM     40  C   UNL     1      -7.546  -5.365  -1.822  0.00  0.00    +0.304 C 
ATOM     41  O   UNL     1      -7.519  -5.376  -3.030  0.00  0.00    -0.251 OA
ATOM     42  C   UNL     1      -8.648  -6.084  -1.087  0.00  0.00    +0.136 C 
ENDBRANCH  39  40
ENDBRANCH   5  39
BRANCH  22  43
ATOM     43  O   UNL     1      -5.561  -4.827   1.439  0.00  0.00    -0.461 OA
BRANCH  43  44
ATOM     44  C   UNL     1      -6.764  -5.383   1.651  0.00  0.00    +0.304 C 
ATOM     45  O   UNL     1      -7.769  -4.739   1.463  0.00  0.00    -0.251 OA
ATOM     46  C   UNL     1      -6.862  -6.810   2.125  0.00  0.00    +0.136 C 
ENDBRANCH  43  44
ENDBRANCH  22  43
TORSDOF 9
