REMARK  Name = ZINC32905534
REMARK  9 active torsions:
REMARK  status: ('A' for Active; 'I' for Inactive)
REMARK    1  A    between atoms: C_1  and  C_2
REMARK    2  A    between atoms: C_2  and  C_3
REMARK    3  A    between atoms: C_2  and  C_4
REMARK    4  A    between atoms: C_4  and  C_6
REMARK    5  A    between atoms: C_4  and  N_21
REMARK    6  A    between atoms: N_8  and  C_9
REMARK    7  A    between atoms: C_9  and  C_10
REMARK    8  A    between atoms: N_21  and  S_22
REMARK    9  A    between atoms: S_22  and  C_25
REMARK                            x       y       z     vdW  Elec       q    Type
REMARK                         _______ _______ _______ _____ _____    ______ ____
ROOT
ATOM      1  C   UNL     1       5.452  -1.472  -1.839  0.00  0.00    +0.232 C 
ATOM      2  O   UNL     1       6.211  -1.865  -0.979  0.00  0.00    -0.274 OA
ATOM      3  N   UNL     1       4.365  -0.750  -1.501  0.00  0.00    -0.310 N 
ATOM      4  H   UNL     1       3.677  -0.394  -2.282  0.00  0.00    +0.149 HD
ENDROOT
BRANCH   1   5
ATOM      5  C   UNL     1       5.724  -1.790  -3.287  0.00  0.00    +0.165 C 
BRANCH   5   7
ATOM      6  C   UNL     1       7.056   0.313  -3.501  0.00  0.00    +0.009 C 
ATOM      7  C   UNL     1       5.885  -0.488  -4.074  0.00  0.00    +0.010 C 
ATOM      8  C   UNL     1       6.160  -0.812  -5.544  0.00  0.00    +0.009 C 
ENDBRANCH   5   7
BRANCH   5   9
ATOM      9  N   UNL     1       6.954  -2.579  -3.390  0.00  0.00    -0.177 NA
ATOM     10  H   UNL     1       7.916  -2.077  -3.575  0.00  0.00    +0.149 HD
BRANCH   9  11
ATOM     11  S   UNL     1       6.874  -4.231  -3.479  0.00  0.00    +0.065 S 
ATOM     12  O   UNL     1       8.209  -4.695  -3.625  0.00  0.00    -0.153 OA
ATOM     13  O   UNL     1       6.032  -4.654  -2.416  0.00  0.00    -0.153 OA
BRANCH  11  14
ATOM     14  C   UNL     1       6.036  -4.632  -4.976  0.00  0.00    +0.142 A 
ATOM     15  C   UNL     1       6.536  -4.745  -6.231  0.00  0.00    +0.036 A 
ATOM     16  C   UNL     1       5.681  -5.074  -7.266  0.00  0.00    +0.010 A 
ATOM     17  C   UNL     1       4.368  -5.274  -6.996  0.00  0.00    +0.047 A 
ATOM     18  S   UNL     1       4.308  -5.002  -5.232  0.00  0.00    -0.077 S 
ENDBRANCH  11  14
ENDBRANCH   9  11
ENDBRANCH   5   9
ENDBRANCH   1   5
BRANCH   3  19
ATOM     19  C   UNL     1       4.101  -0.440  -0.094  0.00  0.00    +0.139 C 
BRANCH  19  20
ATOM     20  C   UNL     1       2.835   0.371   0.013  0.00  0.00    -0.026 A 
ATOM     21  C   UNL     1       1.603  -0.252   0.164  0.00  0.00    +0.023 A 
ATOM     22  C   UNL     1       0.462   0.519   0.258  0.00  0.00    +0.084 A 
ATOM     23  N   UNL     1       0.530   1.836   0.206  0.00  0.00    -0.350 N 
ATOM     24  C   UNL     1       1.685   2.467   0.062  0.00  0.00    +0.099 A 
ATOM     25  C   UNL     1       2.874   1.752  -0.039  0.00  0.00    +0.047 A 
ATOM     26  N   UNL     1       1.709   3.856   0.011  0.00  0.00    -0.317 N 
ATOM     27  C   UNL     1       2.224   4.332  -1.299  0.00  0.00    +0.106 C 
ATOM     28  C   UNL     1       1.699   5.787  -1.379  0.00  0.00    +0.020 C 
ATOM     29  C   UNL     1       0.297   5.684  -0.735  0.00  0.00    +0.020 C 
ATOM     30  C   UNL     1       0.346   4.415   0.135  0.00  0.00    +0.106 C 
ATOM     31  H   UNL     1      -0.389   2.437   0.282  0.00  0.00    +0.166 HD
ENDBRANCH  19  20
ENDBRANCH   3  19
TORSDOF 7
