REMARK  Name = ZINC15427866
REMARK  6 active torsions:
REMARK  status: ('A' for Active; 'I' for Inactive)
REMARK    1  A    between atoms: C_4  and  N_25
REMARK    2  A    between atoms: C_5  and  C_7
REMARK    3  A    between atoms: N_9  and  N_10
REMARK    4  A    between atoms: C_11  and  C_13
REMARK    5  A    between atoms: N_25  and  S_26
REMARK    6  A    between atoms: S_26  and  C_29
REMARK                            x       y       z     vdW  Elec       q    Type
REMARK                         _______ _______ _______ _____ _____    ______ ____
ROOT
ATOM      1  C   UNL     1       8.377   2.195   0.287  0.00  0.00    +0.262 C 
ATOM      2  O   UNL     1       8.451   3.233   0.916  0.00  0.00    -0.269 OA
ATOM      3  N   UNL     1       7.172   1.688  -0.038  0.00  0.00    -0.230 N 
ATOM      4  H   UNL     1       7.113   0.860  -0.539  0.00  0.00    +0.173 HD
ENDROOT
BRANCH   1   9
ATOM      5  C   UNL     1      10.681  -0.355  -1.219  0.00  0.00    +0.001 A 
ATOM      6  C   UNL     1      11.921   0.166  -0.886  0.00  0.00    +0.002 A 
ATOM      7  C   UNL     1      12.017   1.343  -0.174  0.00  0.00    +0.025 A 
ATOM      8  C   UNL     1      10.865   2.016   0.216  0.00  0.00    +0.060 A 
ATOM      9  C   UNL     1       9.607   1.492  -0.120  0.00  0.00    +0.060 A 
ATOM     10  C   UNL     1       9.528   0.295  -0.838  0.00  0.00    +0.015 A 
BRANCH   8  11
ATOM     11  N   UNL     1      10.958   3.201   0.933  0.00  0.00    -0.215 N 
ATOM     12  H   UNL     1      10.304   3.406   1.619  0.00  0.00    +0.174 HD
BRANCH  11  13
ATOM     13  S   UNL     1      12.186   4.266   0.617  0.00  0.00    +0.079 S 
ATOM     14  O   UNL     1      11.934   5.423   1.403  0.00  0.00    -0.149 OA
ATOM     15  O   UNL     1      13.397   3.530   0.713  0.00  0.00    -0.149 OA
BRANCH  13  16
ATOM     16  C   UNL     1      12.028   4.758  -1.068  0.00  0.00    +0.146 A 
ATOM     17  C   UNL     1      11.333   5.797  -1.592  0.00  0.00    +0.036 A 
ATOM     18  C   UNL     1      11.353   5.995  -2.960  0.00  0.00    +0.010 A 
ATOM     19  C   UNL     1      12.067   5.144  -3.737  0.00  0.00    +0.047 A 
ATOM     20  S   UNL     1      12.749   4.023  -2.526  0.00  0.00    -0.077 S 
ENDBRANCH  13  16
ENDBRANCH  11  13
ENDBRANCH   8  11
ENDBRANCH   1   9
BRANCH   3  21
ATOM     21  N   UNL     1       6.003   2.357   0.350  0.00  0.00    -0.234 N 
ATOM     22  C   UNL     1       4.797   1.849   0.025  0.00  0.00    +0.236 C 
ATOM     23  O   UNL     1       4.724   0.814  -0.603  0.00  0.00    -0.274 OA
ATOM     24  H   UNL     1       6.062   3.185   0.851  0.00  0.00    +0.173 HD
BRANCH  22  25
ATOM     25  C   UNL     1       3.540   2.569   0.441  0.00  0.00    +0.118 C 
ATOM     26  C   UNL     1       2.316   1.807  -0.071  0.00  0.00    +0.055 C 
ATOM     27  C   UNL     1       1.084   2.663   0.080  0.00  0.00    -0.004 A 
ATOM     28  C   UNL     1      -0.160   2.055   0.032  0.00  0.00    +0.027 A 
ATOM     29  C   UNL     1      -1.310   2.812   0.153  0.00  0.00    +0.041 A 
ATOM     30  C   UNL     1      -1.222   4.181   0.333  0.00  0.00    +0.023 A 
ATOM     31  C   UNL     1       0.015   4.790   0.384  0.00  0.00    +0.047 A 
ATOM     32  C   UNL     1       1.175   4.032   0.260  0.00  0.00    +0.124 A 
ATOM     33  O   UNL     1       2.375   4.667   0.324  0.00  0.00    -0.491 OA
ATOM     34  C   UNL     1       3.523   3.976  -0.170  0.00  0.00    +0.242 C 
ATOM     35 CL   UNL     1      -2.865   2.043   0.084  0.00  0.00    -0.084 Cl
ENDBRANCH  22  25
ENDBRANCH   3  21
TORSDOF 6
