REMARK  Name = ZINC08724331
REMARK  9 active torsions:
REMARK  status: ('A' for Active; 'I' for Inactive)
REMARK    1  A    between atoms: C_1  and  C_2
REMARK    2  A    between atoms: C_2  and  C_3
REMARK    3  A    between atoms: C_2  and  C_4
REMARK    4  A    between atoms: C_7  and  C_10
REMARK    5  A    between atoms: C_10  and  C_28
REMARK    6  A    between atoms: N_13  and  C_17
REMARK    7  A    between atoms: C_17  and  C_18
REMARK    8  A    between atoms: N_20  and  C_21
REMARK    9  A    between atoms: C_22  and  C_26
REMARK                            x       y       z     vdW  Elec       q    Type
REMARK                         _______ _______ _______ _____ _____    ______ ____
ROOT
ATOM      1  C   UNL     1       2.451   3.937  -0.001  0.00  0.00    +0.135 C 
ATOM      2  C   UNL     1       2.287   5.262   0.717  0.00  0.00    +0.251 C 
ATOM      3  O   UNL     1       1.542   6.170   0.417  0.00  0.00    -0.272 OA
ATOM      4  N   UNL     1       3.143   5.221   1.757  0.00  0.00    -0.215 N 
ATOM      5  C   UNL     1       3.818   4.066   1.796  0.00  0.00    +0.310 C 
ATOM      6  O   UNL     1       4.646   3.796   2.643  0.00  0.00    -0.252 OA
ATOM      7  N   UNL     1       3.476   3.237   0.792  0.00  0.00    -0.281 N 
ATOM      8  C   UNL     1       2.934   4.158  -1.436  0.00  0.00    +0.047 C 
ATOM      9  H   UNL     1       3.835   2.352   0.625  0.00  0.00    +0.152 HD
ENDROOT
BRANCH   1  13
ATOM     10  C   UNL     1      -1.219   1.751   0.017  0.00  0.00    -0.045 A 
ATOM     11  C   UNL     1      -0.013   1.076   0.008  0.00  0.00    +0.004 A 
ATOM     12  C   UNL     1       1.175   1.783   0.000  0.00  0.00    +0.006 A 
ATOM     13  C   UNL     1       1.156   3.165   0.008  0.00  0.00    -0.015 A 
ATOM     14  C   UNL     1      -0.050   3.840   0.022  0.00  0.00    +0.006 A 
ATOM     15  C   UNL     1      -1.238   3.133   0.030  0.00  0.00    +0.004 A 
BRANCH  10  17
ATOM     16  C   UNL     1      -3.315   1.331   1.274  0.00  0.00    +0.012 C 
ATOM     17  C   UNL     1      -2.514   0.980   0.019  0.00  0.00    +0.013 C 
ATOM     18  C   UNL     1      -3.327   1.345  -1.224  0.00  0.00    +0.012 C 
ENDBRANCH  10  17
ENDBRANCH   1  13
BRANCH   4  19
ATOM     19  C   UNL     1       3.313   6.306   2.726  0.00  0.00    +0.214 C 
BRANCH  19  20
ATOM     20  C   UNL     1       2.355   6.111   3.873  0.00  0.00    +0.236 C 
ATOM     21  O   UNL     1       1.603   5.158   3.879  0.00  0.00    -0.274 OA
ATOM     22  N   UNL     1       2.332   6.994   4.890  0.00  0.00    -0.278 N 
ATOM     23  H   UNL     1       2.933   7.755   4.885  0.00  0.00    +0.155 HD
BRANCH  22  24
ATOM     24  C   UNL     1       1.449   6.814   5.946  0.00  0.00    +0.089 A 
ATOM     25  C   UNL     1       1.283   7.604   7.076  0.00  0.00    +0.080 A 
ATOM     26  C   UNL     1       0.280   7.182   8.023  0.00  0.00    +0.028 A 
ATOM     27  C   UNL     1      -0.400   6.056   7.736  0.00  0.00    +0.048 A 
ATOM     28  S   UNL     1       0.294   5.546   6.177  0.00  0.00    -0.081 S 
BRANCH  25  29
ATOM     29  C   UNL     1       2.067   8.784   7.289  0.00  0.00    +0.102 C 
ATOM     30  N   UNL     1       2.689   9.719   7.458  0.00  0.00    -0.191 NA
ENDBRANCH  25  29
ENDBRANCH  22  24
ENDBRANCH  19  20
ENDBRANCH   4  19
TORSDOF 6
