REMARK  Name = ZINC40970202
REMARK  5 active torsions:
REMARK  status: ('A' for Active; 'I' for Inactive)
REMARK    1  A    between atoms: C_4  and  N_19
REMARK    2  A    between atoms: C_5  and  C_7
REMARK    3  A    between atoms: C_7  and  S_8
REMARK    4  A    between atoms: S_8  and  C_10
REMARK    5  A    between atoms: C_13  and  N_16
REMARK                            x       y       z     vdW  Elec       q    Type
REMARK                         _______ _______ _______ _____ _____    ______ ____
ROOT
ATOM      1  S   UNL     1       1.250  -2.801   1.685  0.00  0.00    +0.058 S 
ATOM      2  O   UNL     1       2.506  -2.501   2.278  0.00  0.00    -0.252 OA
ENDROOT
BRANCH   1   3
ATOM      3  C   UNL     1       1.272  -4.554   1.507  0.00  0.00    +0.039 A 
ATOM      4  C   UNL     1       0.083  -5.256   1.443  0.00  0.00    +0.019 A 
ATOM      5  C   UNL     1       0.099  -6.632   1.303  0.00  0.00    +0.034 A 
ATOM      6  C   UNL     1       1.304  -7.304   1.227  0.00  0.00    +0.126 A 
ATOM      7  C   UNL     1       2.493  -6.602   1.290  0.00  0.00    +0.034 A 
ATOM      8  C   UNL     1       2.477  -5.226   1.425  0.00  0.00    +0.019 A 
BRANCH   6   9
ATOM      9  N   UNL     1       1.322  -8.777   1.078  0.00  0.00    +0.056 N 
ATOM     10  O   UNL     1       0.282  -9.391   1.023  0.00  0.00    -0.126 OA
ATOM     11  O   UNL     1       2.376  -9.365   1.011  0.00  0.00    -0.126 OA
ENDBRANCH   6   9
ENDBRANCH   1   3
BRANCH   1  12
ATOM     12  C   UNL     1       1.226  -2.187  -0.022  0.00  0.00    +0.145 C 
BRANCH  12  17
ATOM     13  C   UNL     1      -0.017   1.378   0.010  0.00  0.00    +0.000 A 
ATOM     14  C   UNL     1       1.170   2.089   0.002  0.00  0.00    +0.002 A 
ATOM     15  C   UNL     1       2.377   1.420  -0.013  0.00  0.00    +0.023 A 
ATOM     16  C   UNL     1       2.400   0.031  -0.021  0.00  0.00    +0.029 A 
ATOM     17  C   UNL     1       1.207  -0.680  -0.013  0.00  0.00    -0.014 A 
ATOM     18  C   UNL     1       0.002  -0.004   0.002  0.00  0.00    +0.006 A 
BRANCH  16  19
ATOM     19  N   UNL     1       3.620  -0.649  -0.036  0.00  0.00    -0.358 N 
ATOM     20  H   UNL     1       4.452  -0.152  -0.042  0.00  0.00    +0.142 HD
ATOM     21  H   UNL     1       3.634  -1.619  -0.042  0.00  0.00    +0.142 HD
ENDBRANCH  16  19
ENDBRANCH  12  17
ENDBRANCH   1  12
TORSDOF 5
