REMARK  Name = ZINC44731491
REMARK  8 active torsions:
REMARK  status: ('A' for Active; 'I' for Inactive)
REMARK    1  A    between atoms: C_1  and  C_2
REMARK    2  A    between atoms: C_6  and  C_9
REMARK    3  A    between atoms: C_7  and  O_8
REMARK    4  A    between atoms: N_11  and  C_12
REMARK    5  A    between atoms: C_12  and  C_14
REMARK    6  A    between atoms: C_12  and  C_15
REMARK    7  A    between atoms: C_17  and  C_21
REMARK    8  A    between atoms: C_19  and  C_20
REMARK                            x       y       z     vdW  Elec       q    Type
REMARK                         _______ _______ _______ _____ _____    ______ ____
ROOT
ATOM      1  C   UNL     1       0.054  -2.859   2.453  0.00  0.00    +0.248 C 
ATOM      2  O   UNL     1       0.051  -2.265   3.514  0.00  0.00    -0.270 OA
ATOM      3  N   UNL     1       0.072  -4.207   2.435  0.00  0.00    -0.305 N 
ATOM      4  H   UNL     1       0.075  -4.680   1.589  0.00  0.00    +0.150 HD
ENDROOT
BRANCH   1  10
ATOM      5  C   UNL     1      -0.018   1.503   0.010  0.00  0.00    +0.047 C 
ATOM      6  C   UNL     1       0.002  -0.004   0.002  0.00  0.00    -0.008 A 
ATOM      7  C   UNL     1       0.006  -0.687  -1.198  0.00  0.00    +0.007 A 
ATOM      8  C   UNL     1       0.025  -2.072  -1.216  0.00  0.00    +0.001 A 
ATOM      9  C   UNL     1       0.041  -2.783  -0.035  0.00  0.00    +0.017 A 
ATOM     10  C   UNL     1       0.037  -2.104   1.185  0.00  0.00    +0.078 A 
ATOM     11  C   UNL     1       0.023  -0.703   1.200  0.00  0.00    +0.132 A 
BRANCH  11  12
ATOM     12  O   UNL     1       0.025  -0.033   2.379  0.00  0.00    -0.506 OA
ATOM     13  H   UNL     1      -0.858   0.149   2.729  0.00  0.00    +0.292 HD
ENDBRANCH  11  12
ENDBRANCH   1  10
BRANCH   3  14
ATOM     14  C   UNL     1       0.089  -4.956   3.694  0.00  0.00    +0.104 C 
ATOM     15  C   UNL     1       1.530  -5.088   4.190  0.00  0.00    +0.033 C 
BRANCH  14  16
ATOM     16  C   UNL     1      -0.493  -6.327   3.470  0.00  0.00    +0.013 A 
ATOM     17  C   UNL     1      -0.530  -7.038   2.248  0.00  0.00    +0.050 A 
ATOM     18  C   UNL     1      -1.134  -8.213   2.499  0.00  0.00    +0.103 A 
ATOM     19  O   UNL     1      -1.464  -8.252   3.800  0.00  0.00    -0.465 OA
ATOM     20  C   UNL     1      -1.073  -7.113   4.395  0.00  0.00    +0.107 A 
ATOM     21  C   UNL     1      -1.256  -6.772   5.852  0.00  0.00    +0.086 C 
ATOM     22  C   UNL     1      -1.397  -9.302   1.490  0.00  0.00    +0.086 C 
ENDBRANCH  14  16
ENDBRANCH   3  14
TORSDOF 4
