REMARK  Name = ZINC58202617
REMARK  9 active torsions:
REMARK  status: ('A' for Active; 'I' for Inactive)
REMARK    1  A    between atoms: C_1  and  C_2
REMARK    2  A    between atoms: C_3  and  C_9
REMARK    3  A    between atoms: C_4  and  N_7
REMARK    4  A    between atoms: N_7  and  C_8
REMARK    5  A    between atoms: N_11  and  C_12
REMARK    6  A    between atoms: C_16  and  N_18
REMARK    7  A    between atoms: C_19  and  C_21
REMARK    8  A    between atoms: C_21  and  C_23
REMARK    9  A    between atoms: C_21  and  N_24
REMARK                            x       y       z     vdW  Elec       q    Type
REMARK                         _______ _______ _______ _____ _____    ______ ____
ROOT
ATOM      1  C   UNL     1      -1.135   0.752  -4.405  0.00  0.00    +0.035 A 
ATOM      2  C   UNL     1       0.085   0.972  -5.033  0.00  0.00    +0.023 A 
ATOM      3  C   UNL     1       0.121   1.502  -6.308  0.00  0.00    +0.004 A 
ATOM      4  C   UNL     1      -1.054   1.817  -6.962  0.00  0.00    +0.023 A 
ATOM      5  C   UNL     1      -2.277   1.600  -6.340  0.00  0.00    +0.035 A 
ATOM      6  C   UNL     1      -2.317   1.062  -5.061  0.00  0.00    +0.046 A 
ENDROOT
BRANCH   1   9
ATOM      7  C   UNL     1      -2.161  -0.629  -2.763  0.00  0.00    +0.252 C 
ATOM      8  O   UNL     1      -3.069  -0.859  -3.540  0.00  0.00    -0.270 OA
ATOM      9  N   UNL     1      -1.171   0.215  -3.114  0.00  0.00    -0.281 N 
ATOM     10  H   UNL     1      -0.483   0.450  -2.471  0.00  0.00    +0.155 HD
BRANCH   7  13
ATOM     11  C   UNL     1      -0.831  -3.253  -2.314  0.00  0.00    +0.067 C 
ATOM     12  C   UNL     1      -1.527  -2.501  -1.208  0.00  0.00    +0.061 A 
ATOM     13  C   UNL     1      -2.144  -1.272  -1.444  0.00  0.00    +0.088 A 
ATOM     14  C   UNL     1      -2.743  -0.705  -0.316  0.00  0.00    +0.098 A 
ATOM     15  S   UNL     1      -2.426  -1.835   0.882  0.00  0.00    +0.027 S 
ATOM     16  N   UNL     1      -1.579  -2.977   0.003  0.00  0.00    -0.213 NA
BRANCH  14  17
ATOM     17  N   UNL     1      -3.427   0.490  -0.214  0.00  0.00    -0.340 N 
ATOM     18  C   UNL     1      -3.984   0.907   1.075  0.00  0.00    +0.126 C 
ATOM     19  H   UNL     1      -3.538   1.054  -0.995  0.00  0.00    +0.146 HD
ENDBRANCH  14  17
ENDBRANCH   7  13
ENDBRANCH   1   9
BRANCH   5  20
ATOM     20  N   UNL     1      -3.467   1.920  -7.003  0.00  0.00    -0.284 N 
ATOM     21  C   UNL     1      -3.561   1.753  -8.337  0.00  0.00    +0.242 C 
ATOM     22  O   UNL     1      -2.589   1.407  -8.974  0.00  0.00    -0.273 OA
ATOM     23  H   UNL     1      -4.224   2.262  -6.502  0.00  0.00    +0.155 HD
BRANCH  21  24
ATOM     24  C   UNL     1      -4.873   1.998  -9.036  0.00  0.00    +0.190 C 
ATOM     25  C   UNL     1      -5.936   1.054  -8.470  0.00  0.00    +0.042 C 
BRANCH  24  26
ATOM     26  N   UNL     1      -4.715   1.751 -10.471  0.00  0.00    -0.260 N 
ATOM     27  C   UNL     1      -4.817   0.554 -11.087  0.00  0.00    +0.109 A 
ATOM     28  C   UNL     1      -4.605   0.751 -12.409  0.00  0.00    +0.041 A 
ATOM     29  C   UNL     1      -4.366   2.114 -12.608  0.00  0.00    +0.134 A 
ATOM     30  N   UNL     1      -4.438   2.716 -11.448  0.00  0.00    -0.179 NA
ENDBRANCH  24  26
ENDBRANCH  21  24
ENDBRANCH   5  20
TORSDOF 6
