REMARK  Name = ZINC02394872
REMARK  12 active torsions:
REMARK  status: ('A' for Active; 'I' for Inactive)
REMARK    1  A    between atoms: C_1  and  C_2
REMARK    2  A    between atoms: C_5  and  C_8
REMARK    3  A    between atoms: C_8  and  N_9
REMARK    4  A    between atoms: C_10  and  C_12
REMARK    5  A    between atoms: N_25  and  C_28
REMARK    6  A    between atoms: C_26  and  N_27
REMARK    7  A    between atoms: C_28  and  C_29
REMARK    8  A    between atoms: C_29  and  C_30
REMARK    9  A    between atoms: C_33  and  O_38
REMARK   10  A    between atoms: C_34  and  O_36
REMARK   11  A    between atoms: O_36  and  C_37
REMARK   12  A    between atoms: O_38  and  C_39
REMARK                            x       y       z     vdW  Elec       q    Type
REMARK                         _______ _______ _______ _____ _____    ______ ____
ROOT
ATOM      1  C   UNL     1       0.251  -2.799  -0.035  0.00  0.00    +0.075 A 
ATOM      2  C   UNL     1       1.361  -1.965  -0.021  0.00  0.00    +0.033 A 
ATOM      3  C   UNL     1       1.177  -0.575   0.006  0.00  0.00    +0.083 A 
ATOM      4  C   UNL     1      -0.122  -0.018   0.021  0.00  0.00    +0.150 A 
ATOM      5  N   UNL     1      -0.262   1.301   0.047  0.00  0.00    -0.211 NA
ATOM      6  C   UNL     1       0.793   2.117   0.060  0.00  0.00    +0.143 A 
ATOM      7  C   UNL     1       0.579   3.507   0.088  0.00  0.00    +0.047 A 
ATOM      8  C   UNL     1       1.649   4.352   0.102  0.00  0.00    +0.005 A 
ATOM      9  C   UNL     1       2.947   3.825   0.088  0.00  0.00    +0.018 A 
ATOM     10  C   UNL     1       3.134   2.486   0.061  0.00  0.00    +0.096 A 
ATOM     11  N   UNL     1       2.071   1.633   0.047  0.00  0.00    -0.268 N 
ATOM     12  C   UNL     1       2.294   0.300   0.021  0.00  0.00    +0.268 A 
ATOM     13  O   UNL     1       3.430  -0.140   0.009  0.00  0.00    -0.267 OA
ATOM     14  N   UNL     1      -1.229  -0.830   0.008  0.00  0.00    -0.313 N 
ATOM     15  C   UNL     1      -1.093  -2.201  -0.020  0.00  0.00    +0.110 A 
ENDROOT
BRANCH   1  17
ATOM     16  N   UNL     1       1.646  -4.793  -0.194  0.00  0.00    -0.307 N 
ATOM     17  C   UNL     1       0.416  -4.257  -0.064  0.00  0.00    +0.248 C 
ATOM     18  O   UNL     1      -0.557  -4.982   0.030  0.00  0.00    -0.270 OA
ATOM     19  H   UNL     1       2.526  -4.138  -0.279  0.00  0.00    +0.149 HD
BRANCH  16  20
ATOM     20  C   UNL     1       1.811  -6.249  -0.223  0.00  0.00    +0.139 C 
BRANCH  20  25
ATOM     21  C   UNL     1       7.412  -7.542  -0.809  0.00  0.00    +0.044 C 
ATOM     22  C   UNL     1       5.952  -7.205  -0.656  0.00  0.00    -0.050 A 
ATOM     23  C   UNL     1       5.404  -7.059   0.605  0.00  0.00    +0.003 A 
ATOM     24  C   UNL     1       4.064  -6.750   0.745  0.00  0.00    +0.005 A 
ATOM     25  C   UNL     1       3.272  -6.586  -0.376  0.00  0.00    -0.030 A 
ATOM     26  C   UNL     1       3.818  -6.736  -1.637  0.00  0.00    +0.005 A 
ATOM     27  C   UNL     1       5.159  -7.041  -1.777  0.00  0.00    +0.003 A 
ENDBRANCH  20  25
ENDBRANCH  16  20
ENDBRANCH   1  17
BRANCH  15  28
ATOM     28  N   UNL     1      -2.154  -2.967  -0.031  0.00  0.00    -0.344 N 
ATOM     29  H   UNL     1      -3.158  -2.517  -0.020  0.00  0.00    +0.144 HD
ATOM     30  H   UNL     1      -2.042  -4.061  -0.052  0.00  0.00    +0.144 HD
ENDBRANCH  15  28
BRANCH  14  31
ATOM     31  C   UNL     1      -2.567  -0.233   0.025  0.00  0.00    +0.129 C 
BRANCH  31  32
ATOM     32  C   UNL     1      -3.038   0.003  -1.412  0.00  0.00    +0.057 C 
BRANCH  32  33
ATOM     33  C   UNL     1      -4.414   0.617  -1.395  0.00  0.00    -0.042 A 
ATOM     34  C   UNL     1      -5.532  -0.196  -1.413  0.00  0.00    +0.007 A 
ATOM     35  C   UNL     1      -6.797   0.362  -1.393  0.00  0.00    +0.049 A 
ATOM     36  C   UNL     1      -6.946   1.739  -1.365  0.00  0.00    +0.161 A 
ATOM     37  C   UNL     1      -5.821   2.558  -1.352  0.00  0.00    +0.162 A 
ATOM     38  C   UNL     1      -4.556   1.992  -1.367  0.00  0.00    +0.053 A 
BRANCH  37  39
ATOM     39  O   UNL     1      -5.962   3.910  -1.324  0.00  0.00    -0.491 OA
ATOM     40  C   UNL     1      -4.763   4.687  -1.312  0.00  0.00    +0.277 C 
ENDBRANCH  37  39
BRANCH  36  41
ATOM     41  O   UNL     1      -8.189   2.290  -1.350  0.00  0.00    -0.491 OA
ATOM     42  C   UNL     1      -9.298   1.388  -1.364  0.00  0.00    +0.277 C 
ENDBRANCH  36  41
ENDBRANCH  32  33
ENDBRANCH  31  32
ENDBRANCH  14  31
TORSDOF 9
