REMARK  Name = ZINC46706443
REMARK  8 active torsions:
REMARK  status: ('A' for Active; 'I' for Inactive)
REMARK    1  A    between atoms: C_1  and  C_2
REMARK    2  A    between atoms: C_5  and  C_24
REMARK    3  A    between atoms: C_7  and  N_8
REMARK    4  A    between atoms: C_9  and  C_11
REMARK    5  A    between atoms: C_12  and  C_13
REMARK    6  A    between atoms: C_16  and  C_18
REMARK    7  A    between atoms: C_21  and  C_23
REMARK    8  A    between atoms: N_26  and  C_27
REMARK                            x       y       z     vdW  Elec       q    Type
REMARK                         _______ _______ _______ _____ _____    ______ ____
ROOT
ATOM      1  N   UNL     1       0.025  -0.008   2.417  0.00  0.00    -0.282 N 
ATOM      2  C   UNL     1      -0.057  -0.683   3.580  0.00  0.00    +0.241 C 
ATOM      3  O   UNL     1      -0.040  -1.901   3.580  0.00  0.00    -0.270 OA
ATOM      4  H   UNL     1       0.093   0.960   2.421  0.00  0.00    +0.155 HD
ENDROOT
BRANCH   1  11
ATOM      5  C   UNL     1       1.226   1.227   0.157  0.00  0.00    +0.045 C 
ATOM      6  C   UNL     1       0.588  -0.136   0.072  0.00  0.00    -0.029 A 
ATOM      7  C   UNL     1       0.583  -0.821  -1.129  0.00  0.00    +0.006 A 
ATOM      8  C   UNL     1       0.001  -2.069  -1.214  0.00  0.00    +0.013 A 
ATOM      9  C   UNL     1      -0.585  -2.644  -0.086  0.00  0.00    +0.038 A 
ATOM     10  C   UNL     1      -0.580  -1.954   1.126  0.00  0.00    +0.036 A 
ATOM     11  C   UNL     1       0.012  -0.702   1.203  0.00  0.00    +0.037 A 
BRANCH   9  12
ATOM     12  C   UNL     1      -1.210  -3.982  -0.175  0.00  0.00    +0.244 C 
ATOM     13  O   UNL     1      -1.720  -4.481   0.809  0.00  0.00    -0.270 OA
ATOM     14  N   UNL     1      -1.214  -4.647  -1.347  0.00  0.00    -0.314 N 
ATOM     15  C   UNL     1      -1.833  -5.972  -1.435  0.00  0.00    +0.128 C 
ATOM     16  H   UNL     1      -0.807  -4.248  -2.132  0.00  0.00    +0.149 HD
ENDBRANCH   9  12
ENDBRANCH   1  11
BRANCH   2  17
ATOM     17  C   UNL     1      -0.161   0.022   4.802  0.00  0.00    +0.071 C 
ATOM     18  C   UNL     1      -0.243  -0.657   5.973  0.00  0.00    +0.051 C 
BRANCH  18  19
ATOM     19  C   UNL     1      -0.348   0.049   7.196  0.00  0.00    +0.128 A 
ATOM     20  C   UNL     1      -0.384   1.420   7.342  0.00  0.00    +0.049 A 
ATOM     21  C   UNL     1      -0.492   1.672   8.718  0.00  0.00    +0.045 A 
ATOM     22  C   UNL     1      -0.517   0.474   9.343  0.00  0.00    +0.109 A 
ATOM     23  O   UNL     1      -0.436  -0.500   8.426  0.00  0.00    -0.460 OA
BRANCH  22  24
ATOM     24  C   UNL     1      -0.625   0.266  10.832  0.00  0.00    +0.058 C 
ATOM     25  C   UNL     1      -0.432  -1.156  11.363  0.00  0.00    +0.015 C 
ATOM     26  C   UNL     1      -1.827  -0.526  11.350  0.00  0.00    -0.003 C 
ATOM     27  C   UNL     1      -2.424  -0.105  12.694  0.00  0.00    +0.008 C 
ENDBRANCH  22  24
ENDBRANCH  18  19
ENDBRANCH   2  17
TORSDOF 5
