REMARK  Name = ZINC13593423
REMARK  10 active torsions:
REMARK  status: ('A' for Active; 'I' for Inactive)
REMARK    1  A    between atoms: C_1  and  N_2
REMARK    2  A    between atoms: C_3  and  C_11
REMARK    3  A    between atoms: N_7  and  C_10
REMARK    4  A    between atoms: C_11  and  N_12
REMARK    5  A    between atoms: C_13  and  C_15
REMARK    6  A    between atoms: C_15  and  C_17
REMARK    7  A    between atoms: C_15  and  N_24
REMARK    8  A    between atoms: C_17  and  C_18
REMARK    9  A    between atoms: N_24  and  S_25
REMARK   10  A    between atoms: S_25  and  C_28
REMARK                            x       y       z     vdW  Elec       q    Type
REMARK                         _______ _______ _______ _____ _____    ______ ____
ROOT
ATOM      1  C   UNL     1      -2.950   0.582   1.473  0.00  0.00    +0.166 C 
ENDROOT
BRANCH   1   3
ATOM      2  N   UNL     1      -4.055  -1.572   0.962  0.00  0.00    -0.308 N 
ATOM      3  C   UNL     1      -4.121  -0.363   1.555  0.00  0.00    +0.232 C 
ATOM      4  O   UNL     1      -5.123  -0.036   2.155  0.00  0.00    -0.274 OA
ATOM      5  H   UNL     1      -3.254  -1.833   0.482  0.00  0.00    +0.149 HD
BRANCH   2   6
ATOM      6  C   UNL     1      -5.194  -2.490   1.042  0.00  0.00    +0.158 C 
BRANCH   6   9
ATOM      7  C   UNL     1      -4.777  -2.471  -1.779  0.00  0.00    +0.154 C 
ATOM      8  N   UNL     1      -4.669  -3.738  -1.052  0.00  0.00    -0.299 N 
ATOM      9  C   UNL     1      -4.866  -3.762   0.302  0.00  0.00    +0.045 A 
ATOM     10  C   UNL     1      -4.761  -4.929   0.973  0.00  0.00    +0.093 A 
ATOM     11  C   UNL     1      -4.457  -6.111   0.256  0.00  0.00    +0.257 A 
ATOM     12  O   UNL     1      -4.362  -7.176   0.838  0.00  0.00    -0.268 OA
ATOM     13  N   UNL     1      -4.270  -6.045  -1.078  0.00  0.00    -0.264 N 
ATOM     14  C   UNL     1      -4.375  -4.867  -1.721  0.00  0.00    +0.332 A 
ATOM     15  O   UNL     1      -4.203  -4.824  -2.924  0.00  0.00    -0.246 OA
ATOM     16  C   UNL     1      -3.949  -7.261  -1.830  0.00  0.00    +0.157 C 
ENDBRANCH   6   9
ENDBRANCH   2   6
ENDBRANCH   1   3
BRANCH   1  17
ATOM     17  N   UNL     1      -3.268   1.818   2.192  0.00  0.00    -0.178 NA
ATOM     18  H   UNL     1      -3.761   2.525   1.746  0.00  0.00    +0.149 HD
BRANCH  17  19
ATOM     19  S   UNL     1      -2.788   2.008   3.765  0.00  0.00    +0.059 S 
ATOM     20  O   UNL     1      -3.190   3.313   4.158  0.00  0.00    -0.153 OA
ATOM     21  O   UNL     1      -3.205   0.841   4.461  0.00  0.00    -0.153 OA
BRANCH  19  22
ATOM     22  C   UNL     1      -1.026   1.998   3.776  0.00  0.00    +0.105 A 
ATOM     23  C   UNL     1      -0.342   0.799   3.836  0.00  0.00    +0.030 A 
ATOM     24  C   UNL     1       1.040   0.790   3.839  0.00  0.00    +0.022 A 
ATOM     25  C   UNL     1       1.739   1.984   3.794  0.00  0.00    +0.041 A 
ATOM     26  C   UNL     1       1.054   3.184   3.741  0.00  0.00    +0.022 A 
ATOM     27  C   UNL     1      -0.328   3.191   3.732  0.00  0.00    +0.030 A 
ATOM     28 CL   UNL     1       3.475   1.975   3.805  0.00  0.00    -0.084 Cl
ENDBRANCH  19  22
ENDBRANCH  17  19
ENDBRANCH   1  17
BRANCH   1  29
ATOM     29  C   UNL     1      -2.658   0.905   0.006  0.00  0.00    +0.065 C 
BRANCH  29  30
ATOM     30  C   UNL     1      -1.435   1.781  -0.081  0.00  0.00    -0.045 A 
ATOM     31  C   UNL     1      -0.176   1.211  -0.093  0.00  0.00    +0.004 A 
ATOM     32  C   UNL     1       0.946   2.014  -0.178  0.00  0.00    +0.000 A 
ATOM     33  C   UNL     1       0.809   3.388  -0.247  0.00  0.00    +0.000 A 
ATOM     34  C   UNL     1      -0.450   3.959  -0.229  0.00  0.00    +0.000 A 
ATOM     35  C   UNL     1      -1.572   3.155  -0.144  0.00  0.00    +0.004 A 
ENDBRANCH  29  30
ENDBRANCH   1  29
TORSDOF 8
