REMARK  Name = ZINC67504122
REMARK  5 active torsions:
REMARK  status: ('A' for Active; 'I' for Inactive)
REMARK    1  A    between atoms: C_3  and  O_22
REMARK    2  A    between atoms: C_6  and  C_7
REMARK    3  A    between atoms: C_7  and  N_8
REMARK    4  A    between atoms: N_8  and  C_9
REMARK    5  A    between atoms: O_22  and  C_23
REMARK                            x       y       z     vdW  Elec       q    Type
REMARK                         _______ _______ _______ _____ _____    ______ ____
ROOT
ATOM      1  C   UNL     1      -1.123  -0.881  -0.990  0.00  0.00    -0.046 C 
ENDROOT
BRANCH   1   7
ATOM      2  C   UNL     1       0.234   1.179  -0.561  0.00  0.00    +0.005 A 
ATOM      3  C   UNL     1       1.355   1.811  -0.060  0.00  0.00    +0.046 A 
ATOM      4  C   UNL     1       2.349   1.070   0.562  0.00  0.00    +0.128 A 
ATOM      5  C   UNL     1       2.214  -0.306   0.680  0.00  0.00    +0.046 A 
ATOM      6  C   UNL     1       1.091  -0.934   0.177  0.00  0.00    +0.005 A 
ATOM      7  C   UNL     1       0.101  -0.193  -0.442  0.00  0.00    -0.064 A 
BRANCH   4   8
ATOM      8  O   UNL     1       3.453   1.690   1.055  0.00  0.00    -0.456 OA
BRANCH   8   9
ATOM      9  C   UNL     1       3.492   3.048   1.018  0.00  0.00    +0.134 A 
ATOM     10  C   UNL     1       2.779   3.788   1.950  0.00  0.00    +0.084 A 
ATOM     11  C   UNL     1       2.819   5.171   1.911  0.00  0.00    +0.130 A 
ATOM     12  C   UNL     1       3.571   5.815   0.943  0.00  0.00    +0.077 A 
ATOM     13  C   UNL     1       4.283   5.077   0.012  0.00  0.00    +0.130 A 
ATOM     14  C   UNL     1       4.249   3.695   0.052  0.00  0.00    +0.084 A 
ATOM     15  F   UNL     1       5.015   5.708  -0.932  0.00  0.00    -0.205 F 
ATOM     16  F   UNL     1       2.125   5.893   2.818  0.00  0.00    -0.205 F 
ENDBRANCH   8   9
ENDBRANCH   4   8
ENDBRANCH   1   7
BRANCH   1  17
ATOM     17  N   UNL     1      -0.882  -1.271  -2.385  0.00  0.00    +0.386 N 
ATOM     18  H   UNL     1      -0.715  -0.446  -2.941  0.00  0.00    -0.085 HD
ATOM     19  H   UNL     1      -0.077  -1.877  -2.431  0.00  0.00    -0.085 HD
BRANCH  17  20
ATOM     20  C   UNL     1      -2.059  -1.981  -2.905  0.00  0.00    -0.039 C 
ATOM     21  C   UNL     1      -3.252  -1.027  -2.928  0.00  0.00    -0.011 C 
ATOM     22  C   UNL     1      -4.399  -1.714  -3.680  0.00  0.00    +0.005 C 
ATOM     23  C   UNL     1      -4.012  -1.814  -5.154  0.00  0.00    +0.053 C 
ATOM     24  C   UNL     1      -2.642  -2.423  -5.305  0.00  0.00    +0.021 A 
ATOM     25  C   UNL     1      -1.759  -2.492  -4.290  0.00  0.00    -0.042 A 
ATOM     26  C   UNL     1      -0.490  -3.064  -4.508  0.00  0.00    +0.009 A 
ATOM     27  C   UNL     1      -0.165  -3.547  -5.737  0.00  0.00    +0.070 A 
ATOM     28  C   UNL     1      -1.111  -3.466  -6.773  0.00  0.00    +0.249 A 
ATOM     29  O   UNL     1      -0.843  -3.896  -7.883  0.00  0.00    -0.268 OA
ATOM     30  N   UNL     1      -2.311  -2.916  -6.535  0.00  0.00    -0.326 N 
ATOM     31  H   UNL     1      -2.960  -2.866  -7.255  0.00  0.00    +0.169 HD
ENDBRANCH  17  20
ENDBRANCH   1  17
TORSDOF 5
