REMARK  Name = ZINC19848088
REMARK  5 active torsions:
REMARK  status: ('A' for Active; 'I' for Inactive)
REMARK    1  A    between atoms: C_3  and  S_10
REMARK    2  A    between atoms: C_6  and  C_7
REMARK    3  A    between atoms: S_10  and  C_11
REMARK    4  A    between atoms: C_14  and  C_19
REMARK    5  A    between atoms: N_15  and  C_16
REMARK                            x       y       z     vdW  Elec       q    Type
REMARK                         _______ _______ _______ _____ _____    ______ ____
ROOT
ATOM      1  C   UNL     1       0.120   0.080  -1.310  0.00  0.00    +0.015 A 
ATOM      2  C   UNL     1       0.087   1.449  -1.145  0.00  0.00    +0.036 A 
ATOM      3  C   UNL     1       1.265   2.126  -0.835  0.00  0.00    +0.104 A 
ATOM      4  N   UNL     1       2.410   1.471  -0.697  0.00  0.00    -0.248 NA
ATOM      5  C   UNL     1       2.484   0.166  -0.847  0.00  0.00    +0.123 A 
ATOM      6  C   UNL     1       1.348  -0.580  -1.158  0.00  0.00    +0.030 A 
ENDROOT
BRANCH   6   7
ATOM      7  C   UNL     1       1.436  -2.047  -1.324  0.00  0.00    +0.096 C 
ATOM      8  N   UNL     1       0.367  -2.735  -1.614  0.00  0.00    -0.387 N 
ATOM      9  N   UNL     1       2.647  -2.686  -1.173  0.00  0.00    -0.345 N 
ATOM     10  H   UNL     1       0.433  -3.826  -1.738  0.00  0.00    +0.157 HD
ATOM     11  H   UNL     1       2.713  -3.777  -1.296  0.00  0.00    +0.144 HD
ATOM     12  H   UNL     1       3.549  -2.105  -0.928  0.00  0.00    +0.144 HD
ATOM     13  H   UNL     1      -0.600  -2.225  -1.735  0.00  0.00    +0.157 HD
ENDBRANCH   6   7
BRANCH   3  14
ATOM     14  S   UNL     1       1.233   3.875  -0.622  0.00  0.00    -0.030 S 
BRANCH  14  15
ATOM     15  C   UNL     1       2.904   4.290  -0.251  0.00  0.00    +0.198 A 
ATOM     16  N   UNL     1       3.913   3.456  -0.156  0.00  0.00    -0.122 NA
ATOM     17  N   UNL     1       4.988   4.101   0.125  0.00  0.00    -0.133 NA
ATOM     18  C   UNL     1       4.730   5.374   0.234  0.00  0.00    +0.137 A 
ATOM     19  N   UNL     1       3.394   5.540  -0.001  0.00  0.00    -0.302 N 
BRANCH  19  20
ATOM     20  C   UNL     1       2.643   6.798   0.012  0.00  0.00    +0.091 C 
ATOM     21  C   UNL     1       1.119   6.709   0.112  0.00  0.00    +0.027 C 
ATOM     22  C   UNL     1       1.778   7.116  -1.209  0.00  0.00    +0.027 C 
ENDBRANCH  19  20
BRANCH  18  23
ATOM     23  C   UNL     1       5.721   6.462   0.561  0.00  0.00    +0.057 C 
ATOM     24  C   UNL     1       7.203   6.083   0.585  0.00  0.00    +0.012 C 
ATOM     25  C   UNL     1       6.463   6.365   1.895  0.00  0.00    +0.012 C 
ENDBRANCH  18  23
ENDBRANCH  14  15
ENDBRANCH   3  14
TORSDOF 5
