REMARK  Name = ZINC39466006
REMARK  8 active torsions:
REMARK  status: ('A' for Active; 'I' for Inactive)
REMARK    1  A    between atoms: C_1  and  C_2
REMARK    2  A    between atoms: C_2  and  O_3
REMARK    3  A    between atoms: O_3  and  C_4
REMARK    4  A    between atoms: C_9  and  C_10
REMARK    5  A    between atoms: C_15  and  O_16
REMARK    6  A    between atoms: P_21  and  S_27
REMARK    7  A    between atoms: S_27  and  O_30
REMARK    8  A    between atoms: O_30  and  C_31
REMARK                            x       y       z     vdW  Elec       q    Type
REMARK                         _______ _______ _______ _____ _____    ______ ____
ROOT
ATOM      1  C   UNL     1      -1.498  -1.848   0.006  0.00  0.00    +0.129 A 
ATOM      2  C   UNL     1      -0.393  -2.680  -0.003  0.00  0.00    +0.050 A 
ATOM      3  C   UNL     1      -0.551  -4.058  -0.009  0.00  0.00    -0.038 A 
ATOM      4  C   UNL     1      -1.814  -4.612  -0.005  0.00  0.00    -0.023 A 
ATOM      5  C   UNL     1      -2.929  -3.788   0.005  0.00  0.00    +0.017 A 
ATOM      6  C   UNL     1      -2.781  -2.405   0.016  0.00  0.00    +0.028 A 
ATOM      7  C   UNL     1      -2.034  -6.102  -0.014  0.00  0.00    +0.129 C 
ATOM      8  C   UNL     1      -3.159  -6.446   0.967  0.00  0.00    +0.195 C 
ATOM      9  O   UNL     1      -3.444  -7.856   0.867  0.00  0.00    -0.296 OA
ATOM     10  P   UNL     1      -2.200  -8.901   0.952  0.00  0.00    +0.458 P 
ATOM     11  O   UNL     1      -1.823  -9.133   2.364  0.00  0.00    -0.243 OA
ATOM     12  N   UNL     1      -0.955  -8.177   0.140  0.00  0.00    -0.158 NA
ATOM     13  N   UNL     1      -0.810  -6.820   0.344  0.00  0.00    -0.224 NA
ATOM     14  C   UNL     1       0.332  -6.333  -0.444  0.00  0.00    +0.108 C 
ATOM     15  C   UNL     1       0.686  -4.921  -0.017  0.00  0.00    +0.052 C 
ATOM     16  H   UNL     1      -0.360  -8.682  -0.436  0.00  0.00    +0.152 HD
ENDROOT
BRANCH   6  17
ATOM     17  C   UNL     1      -3.975  -1.527   0.032  0.00  0.00    +0.027 A 
ATOM     18  C   UNL     1      -4.827  -1.524   1.134  0.00  0.00    +0.012 A 
ATOM     19  C   UNL     1      -5.938  -0.705   1.144  0.00  0.00    +0.001 A 
ATOM     20  C   UNL     1      -6.209   0.115   0.062  0.00  0.00    +0.004 A 
ATOM     21  C   UNL     1      -5.371   0.119  -1.036  0.00  0.00    +0.046 A 
ATOM     22  C   UNL     1      -4.249  -0.694  -1.058  0.00  0.00    +0.125 A 
BRANCH  22  23
ATOM     23  O   UNL     1      -3.421  -0.686  -2.135  0.00  0.00    -0.506 OA
ATOM     24  H   UNL     1      -3.660  -1.327  -2.819  0.00  0.00    +0.292 HD
ENDBRANCH  22  23
ENDBRANCH   6  17
BRANCH  10  25
ATOM     25  S   UNL     1      -2.719 -10.734   0.022  0.00  0.00    +0.211 S 
ATOM     26  O   UNL     1      -3.162 -10.413  -1.290  0.00  0.00    -0.126 OA
ATOM     27  O   UNL     1      -1.644 -11.631   0.264  0.00  0.00    -0.126 OA
BRANCH  25  28
ATOM     28  O   UNL     1      -3.926 -11.290   0.764  0.00  0.00    -0.339 OA
BRANCH  28  29
ATOM     29  C   UNL     1      -5.091 -10.650   0.482  0.00  0.00    +0.157 A 
ATOM     30  C   UNL     1      -5.482  -9.553   1.236  0.00  0.00    +0.048 A 
ATOM     31  C   UNL     1      -6.668  -8.905   0.946  0.00  0.00    +0.004 A 
ATOM     32  C   UNL     1      -7.464  -9.349  -0.093  0.00  0.00    +0.000 A 
ATOM     33  C   UNL     1      -7.076 -10.442  -0.846  0.00  0.00    +0.004 A 
ATOM     34  C   UNL     1      -5.889 -11.090  -0.564  0.00  0.00    +0.048 A 
ENDBRANCH  28  29
ENDBRANCH  25  28
ENDBRANCH  10  25
BRANCH   1  35
ATOM     35  O   UNL     1      -1.339  -0.499   0.012  0.00  0.00    -0.492 OA
BRANCH  35  37
ATOM     36  C   UNL     1      -0.019   1.526   0.010  0.00  0.00    +0.048 C 
ATOM     37  C   UNL     1       0.002  -0.004   0.002  0.00  0.00    +0.226 C 
ENDBRANCH  35  37
ENDBRANCH   1  35
TORSDOF 7
