REMARK  Name = ZINC65369771
REMARK  5 active torsions:
REMARK  status: ('A' for Active; 'I' for Inactive)
REMARK    1  A    between atoms: C_4  and  C_7
REMARK    2  A    between atoms: C_9  and  C_21
REMARK    3  A    between atoms: N_11  and  C_14
REMARK    4  A    between atoms: C_14  and  C_15
REMARK    5  A    between atoms: C_24  and  N_27
REMARK                            x       y       z     vdW  Elec       q    Type
REMARK                         _______ _______ _______ _____ _____    ______ ____
ROOT
ATOM      1  C   UNL     1       3.732  -0.733   0.039  0.00  0.00    +0.073 C 
ATOM      2  C   UNL     1       4.076  -1.186  -1.393  0.00  0.00    -0.014 C 
ATOM      3  N   UNL     1       4.112  -2.667  -1.344  0.00  0.00    +0.398 N 
ATOM      4  C   UNL     1       4.387  -2.985   0.081  0.00  0.00    +0.007 C 
ATOM      5  N   UNL     1       3.591  -1.977   0.831  0.00  0.00    -0.327 NA
ATOM      6  H   UNL     1       3.951  -1.854   1.766  0.00  0.00    +0.120 HD
ATOM      7  H   UNL     1       3.223  -3.051  -1.625  0.00  0.00    -0.078 HD
ENDROOT
BRANCH   1  11
ATOM      8  C   UNL     1       0.061   1.451   0.052  0.00  0.00    +0.000 A 
ATOM      9  C   UNL     1       1.266   2.126   0.106  0.00  0.00    +0.000 A 
ATOM     10  C   UNL     1       2.454   1.419   0.102  0.00  0.00    +0.005 A 
ATOM     11  C   UNL     1       2.437   0.038   0.044  0.00  0.00    -0.032 A 
ATOM     12  C   UNL     1       1.232  -0.636  -0.009  0.00  0.00    +0.005 A 
ATOM     13  C   UNL     1       0.043   0.070  -0.006  0.00  0.00    +0.000 A 
ENDBRANCH   1  11
BRANCH   2  14
ATOM     14  C   UNL     1       5.421  -0.644  -1.802  0.00  0.00    -0.059 A 
ATOM     15  C   UNL     1       6.537  -0.913  -1.031  0.00  0.00    +0.004 A 
ATOM     16  C   UNL     1       7.771  -0.417  -1.404  0.00  0.00    +0.028 A 
ATOM     17  C   UNL     1       7.890   0.353  -2.554  0.00  0.00    +0.065 A 
ATOM     18  C   UNL     1       6.768   0.621  -3.325  0.00  0.00    +0.028 A 
ATOM     19  C   UNL     1       5.537   0.117  -2.951  0.00  0.00    +0.004 A 
BRANCH  17  20
ATOM     20  N   UNL     1       9.141   0.858  -2.934  0.00  0.00    -0.240 N 
ATOM     21  C   UNL     1       9.394   1.621  -4.021  0.00  0.00    +0.114 A 
ATOM     22  C   UNL     1      10.719   1.899  -4.030  0.00  0.00    +0.041 A 
ATOM     23  C   UNL     1      11.295   1.286  -2.912  0.00  0.00    +0.135 A 
ATOM     24  N   UNL     1      10.350   0.667  -2.252  0.00  0.00    -0.175 NA
ENDBRANCH  17  20
ENDBRANCH   2  14
BRANCH   3  25
ATOM     25  C   UNL     1       5.189  -3.182  -2.200  0.00  0.00    +0.003 C 
BRANCH  25  26
ATOM     26  C   UNL     1       5.109  -4.686  -2.258  0.00  0.00    +0.135 A 
ATOM     27  H   UNL     1       5.655  -7.642  -1.446  0.00  0.00    +0.190 HD
ATOM     28  N   UNL     1       4.414  -5.391  -3.151  0.00  0.00    -0.222 NA
ATOM     29  C   UNL     1       4.561  -6.670  -2.918  0.00  0.00    +0.216 A 
ATOM     30  N   UNL     1       5.367  -6.810  -1.851  0.00  0.00    -0.265 N 
ATOM     31  N   UNL     1       5.714  -5.511  -1.445  0.00  0.00    -0.160 NA
ENDBRANCH  25  26
ENDBRANCH   3  25
TORSDOF 5
