REMARK  Name = ZINC50852304
REMARK  7 active torsions:
REMARK  status: ('A' for Active; 'I' for Inactive)
REMARK    1  A    between atoms: C_1  and  C_2
REMARK    2  A    between atoms: C_2  and  C_3
REMARK    3  A    between atoms: C_2  and  C_4
REMARK    4  A    between atoms: C_2  and  C_5
REMARK    5  A    between atoms: C_8  and  C_11
REMARK    6  A    between atoms: C_12  and  C_13
REMARK    7  A    between atoms: C_19  and  C_22
REMARK                            x       y       z     vdW  Elec       q    Type
REMARK                         _______ _______ _______ _____ _____    ______ ____
ROOT
ATOM      1  C   UNL     1       4.665  -1.992  -6.153  0.00  0.00    +0.240 C 
ATOM      2  O   UNL     1       4.107  -2.769  -6.905  0.00  0.00    -0.271 OA
ATOM      3  N   UNL     1       5.916  -1.572  -6.425  0.00  0.00    -0.293 N 
ATOM      4  C   UNL     1       6.656  -0.730  -5.472  0.00  0.00    +0.136 C 
ATOM      5  C   UNL     1       8.037  -1.355  -5.246  0.00  0.00    +0.180 C 
ATOM      6  O   UNL     1       8.664  -1.584  -6.511  0.00  0.00    -0.364 OA
ATOM      7  C   UNL     1       7.967  -2.507  -7.350  0.00  0.00    +0.221 C 
ATOM      8  C   UNL     1       6.584  -1.946  -7.681  0.00  0.00    +0.149 C 
ENDROOT
BRANCH   7   9
ATOM      9  C   UNL     1       8.746  -2.717  -8.623  0.00  0.00    +0.241 C 
ATOM     10  O   UNL     1       9.747  -2.067  -8.835  0.00  0.00    -0.273 OA
ATOM     11  N   UNL     1       8.331  -3.628  -9.525  0.00  0.00    -0.327 N 
ATOM     12  H   UNL     1       7.530  -4.149  -9.355  0.00  0.00    +0.145 HD
ATOM     13  H   UNL     1       8.832  -3.763 -10.344  0.00  0.00    +0.145 HD
ENDBRANCH   7   9
BRANCH   1  15
ATOM     14  C   UNL     1       2.692  -1.856  -4.730  0.00  0.00    +0.013 C 
ATOM     15  C   UNL     1       3.977  -1.516  -4.951  0.00  0.00    +0.068 C 
BRANCH  14  19
ATOM     16  C   UNL     1       0.700  -0.475  -1.248  0.00  0.00    -0.042 A 
ATOM     17  C   UNL     1       0.026  -1.275  -2.155  0.00  0.00    +0.005 A 
ATOM     18  C   UNL     1       0.667  -1.728  -3.289  0.00  0.00    +0.008 A 
ATOM     19  C   UNL     1       2.000  -1.376  -3.522  0.00  0.00    -0.025 A 
ATOM     20  C   UNL     1       2.674  -0.568  -2.601  0.00  0.00    +0.008 A 
ATOM     21  C   UNL     1       2.018  -0.119  -1.475  0.00  0.00    +0.005 A 
BRANCH  16  23
ATOM     22  C   UNL     1      -0.030   1.545  -0.009  0.00  0.00    +0.015 C 
ATOM     23  C   UNL     1      -0.007   0.015  -0.011  0.00  0.00    -0.013 C 
ATOM     24  C   UNL     1       0.732  -0.486   1.231  0.00  0.00    +0.015 C 
ATOM     25  C   UNL     1      -1.442  -0.516   0.000  0.00  0.00    +0.015 C 
ENDBRANCH  16  23
ENDBRANCH  14  19
ENDBRANCH   1  15
TORSDOF 4
