REMARK  Name = ZINC45122678
REMARK  10 active torsions:
REMARK  status: ('A' for Active; 'I' for Inactive)
REMARK    1  A    between atoms: C_1  and  C_2
REMARK    2  A    between atoms: N_5  and  C_8
REMARK    3  A    between atoms: C_8  and  C_9
REMARK    4  A    between atoms: C_9  and  C_10
REMARK    5  A    between atoms: C_10  and  N_11
REMARK    6  A    between atoms: N_14  and  N_15
REMARK    7  A    between atoms: C_16  and  C_18
REMARK    8  A    between atoms: C_18  and  C_19
REMARK    9  A    between atoms: C_19  and  S_20
REMARK   10  A    between atoms: S_20  and  C_21
REMARK                            x       y       z     vdW  Elec       q    Type
REMARK                         _______ _______ _______ _____ _____    ______ ____
ROOT
ATOM      1  N   UNL     1       3.577  -6.276   2.265  0.00  0.00    -0.298 N 
ATOM      2  C   UNL     1       3.852  -7.581   2.458  0.00  0.00    +0.316 C 
ATOM      3  O   UNL     1       3.402  -8.416   1.698  0.00  0.00    -0.251 OA
ATOM      4  N   UNL     1       4.625  -7.960   3.495  0.00  0.00    -0.218 N 
ATOM      5  H   UNL     1       3.936  -5.609   2.871  0.00  0.00    +0.150 HD
ATOM      6  H   UNL     1       4.823  -8.900   3.634  0.00  0.00    +0.174 HD
ENDROOT
BRANCH   4   7
ATOM      7  N   UNL     1       5.143  -6.998   4.371  0.00  0.00    -0.233 N 
ATOM      8  C   UNL     1       5.917  -7.378   5.407  0.00  0.00    +0.230 C 
ATOM      9  O   UNL     1       6.164  -8.552   5.582  0.00  0.00    -0.274 OA
ATOM     10  H   UNL     1       4.946  -6.059   4.232  0.00  0.00    +0.173 HD
BRANCH   8  11
ATOM     11  C   UNL     1       6.474  -6.342   6.350  0.00  0.00    +0.108 C 
BRANCH  11  12
ATOM     12  C   UNL     1       7.311  -7.033   7.429  0.00  0.00    +0.083 C 
BRANCH  12  13
ATOM     13  S   UNL     1       7.982  -5.787   8.564  0.00  0.00    -0.125 S 
BRANCH  13  14
ATOM     14  C   UNL     1       8.907  -6.728   9.731  0.00  0.00    +0.008 A 
ATOM     15  C   UNL     1       8.976  -8.110   9.613  0.00  0.00    +0.017 A 
ATOM     16  C   UNL     1       9.703  -8.846  10.528  0.00  0.00    +0.039 A 
ATOM     17  C   UNL     1      10.362  -8.206  11.565  0.00  0.00    +0.123 A 
ATOM     18  C   UNL     1      10.294  -6.828  11.685  0.00  0.00    +0.039 A 
ATOM     19  C   UNL     1       9.574  -6.088  10.769  0.00  0.00    +0.017 A 
ATOM     20  F   UNL     1      11.071  -8.927  12.460  0.00  0.00    -0.205 F 
ENDBRANCH  13  14
ENDBRANCH  12  13
ENDBRANCH  11  12
ENDBRANCH   8  11
ENDBRANCH   4   7
BRANCH   1  21
ATOM     21  C   UNL     1       2.736  -5.863   1.138  0.00  0.00    +0.104 C 
BRANCH  21  22
ATOM     22  C   UNL     1       2.582  -4.341   1.147  0.00  0.00    +0.000 C 
BRANCH  22  23
ATOM     23  C   UNL     1       1.704  -3.911  -0.029  0.00  0.00    -0.077 C 
BRANCH  23  28
ATOM     24  C   UNL     1      -0.019   1.526   0.010  0.00  0.00    +0.007 C 
ATOM     25  C   UNL     1       0.002  -0.004   0.002  0.00  0.00    -0.018 C 
ATOM     26  C   UNL     1       0.727  -0.499  -1.252  0.00  0.00    -0.016 C 
ATOM     27  C   UNL     1       0.814  -2.027  -1.215  0.00  0.00    -0.079 C 
ATOM     28  N   UNL     1       1.556  -2.449  -0.021  0.00  0.00    +0.380 N 
ATOM     29  C   UNL     1       0.829  -2.040   1.187  0.00  0.00    -0.079 C 
ATOM     30  C   UNL     1       0.743  -0.513   1.242  0.00  0.00    -0.016 C 
ATOM     31  H   UNL     1       2.469  -2.020  -0.024  0.00  0.00    -0.082 HD
ENDBRANCH  23  28
ENDBRANCH  22  23
ENDBRANCH  21  22
ENDBRANCH   1  21
TORSDOF 9
