REMARK  Name = ZINC14306158
REMARK  8 active torsions:
REMARK  status: ('A' for Active; 'I' for Inactive)
REMARK    1  A    between atoms: C_1  and  C_2
REMARK    2  A    between atoms: C_3  and  C_12
REMARK    3  A    between atoms: C_8  and  S_10
REMARK    4  A    between atoms: S_10  and  C_11
REMARK    5  A    between atoms: C_12  and  C_13
REMARK    6  A    between atoms: C_13  and  C_14
REMARK    7  A    between atoms: N_16  and  C_17
REMARK    8  A    between atoms: C_20  and  C_23
REMARK                            x       y       z     vdW  Elec       q    Type
REMARK                         _______ _______ _______ _____ _____    ______ ____
ROOT
ATOM      1  C   UNL     1      -0.163   1.430   0.773  0.00  0.00    +0.218 C 
ATOM      2  O   UNL     1      -0.289   0.430   1.448  0.00  0.00    -0.275 OA
ATOM      3  N   UNL     1      -1.191   1.867   0.018  0.00  0.00    -0.285 N 
ATOM      4  H   UNL     1      -1.117   2.706  -0.462  0.00  0.00    +0.155 HD
ENDROOT
BRANCH   3   5
ATOM      5  C   UNL     1      -2.362   1.111  -0.073  0.00  0.00    +0.033 A 
ATOM      6  C   UNL     1      -2.314  -0.268   0.104  0.00  0.00    +0.024 A 
ATOM      7  C   UNL     1      -3.469  -1.015   0.021  0.00  0.00    +0.013 A 
ATOM      8  C   UNL     1      -4.686  -0.389  -0.254  0.00  0.00    +0.019 A 
ATOM      9  C   UNL     1      -4.730   0.994  -0.437  0.00  0.00    +0.013 A 
ATOM     10  C   UNL     1      -3.573   1.737  -0.347  0.00  0.00    +0.024 A 
BRANCH   8  11
ATOM     11  C   UNL     1      -5.926  -1.189  -0.350  0.00  0.00    +0.164 A 
ATOM     12  N   UNL     1      -7.159  -0.740  -0.251  0.00  0.00    -0.129 NA
ATOM     13  N   UNL     1      -7.989  -1.714  -0.392  0.00  0.00    -0.134 NA
ATOM     14  C   UNL     1      -7.340  -2.828  -0.582  0.00  0.00    +0.134 A 
ATOM     15  N   UNL     1      -6.011  -2.536  -0.552  0.00  0.00    -0.311 N 
ATOM     16  C   UNL     1      -4.907  -3.485  -0.694  0.00  0.00    +0.125 C 
ATOM     17  C   UNL     1      -5.366  -4.672  -1.546  0.00  0.00    +0.022 C 
ATOM     18  C   UNL     1      -5.974  -5.748  -0.647  0.00  0.00    +0.002 C 
ATOM     19  C   UNL     1      -7.197  -5.207   0.085  0.00  0.00    +0.008 C 
ATOM     20  C   UNL     1      -7.927  -4.197  -0.807  0.00  0.00    +0.076 C 
ENDBRANCH   8  11
ENDBRANCH   3   5
BRANCH   1  21
ATOM     21  C   UNL     1       1.144   2.179   0.774  0.00  0.00    +0.101 C 
BRANCH  21  22
ATOM     22  C   UNL     1       2.135   1.475   1.701  0.00  0.00    +0.051 C 
BRANCH  22  25
ATOM     23  C   UNL     1       2.689   3.438   3.739  0.00  0.00    +0.066 C 
ATOM     24  C   UNL     1       3.708   3.155   2.665  0.00  0.00    +0.049 A 
ATOM     25  C   UNL     1       3.443   2.225   1.702  0.00  0.00    +0.038 A 
ATOM     26  C   UNL     1       4.411   1.974   0.714  0.00  0.00    +0.256 A 
ATOM     27  O   UNL     1       4.208   1.145  -0.159  0.00  0.00    -0.267 OA
ATOM     28  N   UNL     1       5.567   2.671   0.746  0.00  0.00    -0.302 N 
ATOM     29  H   UNL     1       6.247   2.516   0.072  0.00  0.00    +0.171 HD
ATOM     30  C   UNL     1       5.777   3.587   1.732  0.00  0.00    +0.169 A 
ATOM     31  N   UNL     1       4.865   3.812   2.658  0.00  0.00    -0.228 NA
BRANCH  30  32
ATOM     32  S   UNL     1       7.291   4.486   1.770  0.00  0.00    -0.091 S 
ATOM     33  C   UNL     1       7.012   5.510   3.236  0.00  0.00    +0.093 C 
ENDBRANCH  30  32
ENDBRANCH  22  25
ENDBRANCH  21  22
ENDBRANCH   1  21
TORSDOF 6
