REMARK  Name = ZINC26460864
REMARK  8 active torsions:
REMARK  status: ('A' for Active; 'I' for Inactive)
REMARK    1  A    between atoms: C_1  and  C_2
REMARK    2  A    between atoms: C_2  and  C_3
REMARK    3  A    between atoms: C_3  and  C_4
REMARK    4  A    between atoms: C_3  and  C_5
REMARK    5  A    between atoms: C_3  and  C_6
REMARK    6  A    between atoms: C_14  and  N_19
REMARK    7  A    between atoms: N_19  and  S_20
REMARK    8  A    between atoms: S_20  and  C_23
REMARK                            x       y       z     vdW  Elec       q    Type
REMARK                         _______ _______ _______ _____ _____    ______ ____
ROOT
ATOM      1  N   UNL     1      -2.495  10.263   1.679  0.00  0.00    -0.098 NA
ENDROOT
BRANCH   1   9
ATOM      2  C   UNL     1       1.639  12.788   6.965  0.00  0.00    -0.000 C 
ATOM      3  C   UNL     1       3.092  12.416   6.654  0.00  0.00    +0.012 C 
ATOM      4  C   UNL     1       3.187  10.912   6.375  0.00  0.00    +0.075 C 
ATOM      5  C   UNL     1       2.135  10.546   5.353  0.00  0.00    +0.109 A 
ATOM      6  C   UNL     1       1.085  11.329   5.055  0.00  0.00    +0.002 A 
ATOM      7  C   UNL     1       0.314  10.627   4.031  0.00  0.00    +0.025 A 
ATOM      8  C   UNL     1      -0.855  10.903   3.322  0.00  0.00    +0.038 A 
ATOM      9  C   UNL     1      -1.323   9.992   2.393  0.00  0.00    +0.075 A 
ATOM     10  C   UNL     1      -0.632   8.803   2.170  0.00  0.00    +0.030 A 
ATOM     11  C   UNL     1       0.526   8.525   2.862  0.00  0.00    +0.049 A 
ATOM     12  C   UNL     1       1.011   9.428   3.800  0.00  0.00    +0.136 A 
ATOM     13  O   UNL     1       2.090   9.426   4.613  0.00  0.00    -0.459 OA
ATOM     14  C   UNL     1       0.800  12.665   5.686  0.00  0.00    +0.043 C 
BRANCH   2  15
ATOM     15  C   UNL     1       1.579  14.227   7.480  0.00  0.00    -0.032 C 
ATOM     16  C   UNL     1       2.129  15.174   6.412  0.00  0.00    +0.011 C 
ATOM     17  C   UNL     1       0.127  14.597   7.790  0.00  0.00    +0.011 C 
BRANCH  15  19
ATOM     18  C   UNL     1       2.359  15.788   9.268  0.00  0.00    +0.004 C 
ATOM     19  C   UNL     1       2.419  14.349   8.752  0.00  0.00    +0.003 C 
ENDBRANCH  15  19
ENDBRANCH   2  15
ENDBRANCH   1   9
BRANCH   1  20
ATOM     20  S   UNL     1      -2.410  10.730   0.093  0.00  0.00    +0.092 S 
ATOM     21  O   UNL     1      -3.741  11.002  -0.323  0.00  0.00    -0.148 OA
ATOM     22  O   UNL     1      -1.585   9.780  -0.567  0.00  0.00    -0.148 OA
BRANCH  20  23
ATOM     23  C   UNL     1      -1.545  12.265   0.048  0.00  0.00    +0.111 A 
ATOM     24  C   UNL     1      -0.184  12.279  -0.200  0.00  0.00    +0.029 A 
ATOM     25  C   UNL     1       0.508  13.477  -0.238  0.00  0.00    +0.014 A 
ATOM     26  C   UNL     1      -0.167  14.676  -0.028  0.00  0.00    +0.033 A 
ATOM     27  C   UNL     1      -1.551  14.661   0.224  0.00  0.00    +0.035 A 
ATOM     28  C   UNL     1      -2.232  13.447   0.260  0.00  0.00    +0.041 A 
ATOM     29  C   UNL     1      -2.276  15.929   0.449  0.00  0.00    +0.195 C 
ATOM     30  O   UNL     1      -3.471  15.917   0.666  0.00  0.00    -0.287 OA
ATOM     31  C   UNL     1      -1.544  17.213   0.408  0.00  0.00    +0.033 A 
ATOM     32  C   UNL     1      -2.219  18.412   0.619  0.00  0.00    +0.012 A 
ATOM     33  C   UNL     1      -1.526  19.610   0.579  0.00  0.00    +0.001 A 
ATOM     34  C   UNL     1      -0.166  19.624   0.331  0.00  0.00    +0.001 A 
ATOM     35  C   UNL     1       0.519  18.441   0.114  0.00  0.00    +0.012 A 
ATOM     36  C   UNL     1      -0.161  17.228   0.157  0.00  0.00    +0.033 A 
ATOM     37  C   UNL     1       0.564  15.959  -0.068  0.00  0.00    +0.195 C 
ATOM     38  O   UNL     1       1.759  15.972  -0.285  0.00  0.00    -0.287 OA
ENDBRANCH  20  23
ENDBRANCH   1  20
TORSDOF 5
