REMARK  Name = ZINC47808543
REMARK  6 active torsions:
REMARK  status: ('A' for Active; 'I' for Inactive)
REMARK    1  A    between atoms: C_1  and  C_2
REMARK    2  A    between atoms: C_2  and  C_3
REMARK    3  A    between atoms: N_15  and  C_16
REMARK    4  A    between atoms: C_21  and  N_22
REMARK    5  A    between atoms: C_24  and  C_31
REMARK    6  A    between atoms: C_27  and  C_30
REMARK                            x       y       z     vdW  Elec       q    Type
REMARK                         _______ _______ _______ _____ _____    ______ ____
ROOT
ATOM      1  C   UNL     1       3.012  -0.802  -0.282  0.00  0.00    +0.108 C 
ATOM      2  C   UNL     1       2.109  -0.876   0.948  0.00  0.00    -0.017 A 
ATOM      3  C   UNL     1       2.593  -1.081   2.239  0.00  0.00    +0.013 A 
ATOM      4  C   UNL     1       1.734  -1.140   3.282  0.00  0.00    +0.046 A 
ATOM      5  S   UNL     1       0.159  -0.902   2.475  0.00  0.00    -0.101 S 
ATOM      6  C   UNL     1       0.762  -0.740   0.815  0.00  0.00    -0.004 A 
ATOM      7  C   UNL     1      -0.018  -0.505  -0.438  0.00  0.00    +0.062 C 
ATOM      8  C   UNL     1       0.875  -0.835  -1.643  0.00  0.00    +0.115 C 
ATOM      9  N   UNL     1       2.213  -0.274  -1.396  0.00  0.00    -0.278 N 
ATOM     10  C   UNL     1       2.697   0.711  -2.178  0.00  0.00    +0.307 C 
ATOM     11  O   UNL     1       2.069   1.079  -3.152  0.00  0.00    -0.252 OA
ATOM     12  N   UNL     1       3.878   1.288  -1.881  0.00  0.00    -0.268 N 
ATOM     13  H   UNL     1       4.412   0.949  -1.145  0.00  0.00    +0.156 HD
ENDROOT
BRANCH  12  14
ATOM     14  C   UNL     1       4.336   2.378  -2.635  0.00  0.00    +0.056 A 
ATOM     15  C   UNL     1       3.451   3.096  -3.425  0.00  0.00    +0.025 A 
ATOM     16  C   UNL     1       3.904   4.171  -4.168  0.00  0.00    +0.002 A 
ATOM     17  C   UNL     1       5.238   4.532  -4.127  0.00  0.00    +0.002 A 
ATOM     18  C   UNL     1       6.127   3.821  -3.342  0.00  0.00    +0.025 A 
ATOM     19  C   UNL     1       5.680   2.746  -2.588  0.00  0.00    +0.051 A 
BRANCH  19  20
ATOM     20  N   UNL     1       6.576   2.029  -1.788  0.00  0.00    -0.324 N 
ATOM     21  C   UNL     1       7.311   0.872  -2.324  0.00  0.00    +0.136 C 
ATOM     22  C   UNL     1       8.800   1.056  -2.006  0.00  0.00    +0.133 C 
ATOM     23  O   UNL     1       8.954   1.314  -0.608  0.00  0.00    -0.371 OA
ATOM     24  C   UNL     1       8.325   2.518  -0.163  0.00  0.00    +0.133 C 
ATOM     25  C   UNL     1       6.816   2.413  -0.388  0.00  0.00    +0.136 C 
ATOM     26  C   UNL     1       8.609   2.723   1.327  0.00  0.00    +0.039 C 
ATOM     27  C   UNL     1       9.352   2.235  -2.809  0.00  0.00    +0.039 C 
ENDBRANCH  19  20
ENDBRANCH  12  14
BRANCH   1  29
ATOM     28  C   UNL     1       4.512  -2.103  -1.799  0.00  0.00    +0.006 C 
ATOM     29  C   UNL     1       3.527  -2.200  -0.632  0.00  0.00    +0.024 C 
ENDBRANCH   1  29
TORSDOF 3
