REMARK  Name = ZINC35644835
REMARK  14 active torsions:
REMARK  status: ('A' for Active; 'I' for Inactive)
REMARK    1  A    between atoms: C_1  and  C_2
REMARK    2  A    between atoms: C_2  and  O_3
REMARK    3  A    between atoms: O_3  and  C_4
REMARK    4  A    between atoms: C_4  and  C_6
REMARK    5  A    between atoms: C_7  and  C_28
REMARK    6  A    between atoms: N_8  and  C_27
REMARK    7  A    between atoms: C_12  and  C_14
REMARK    8  A    between atoms: C_18  and  O_20
REMARK    9  A    between atoms: O_20  and  C_21
REMARK   10  A    between atoms: C_28  and  N_29
REMARK   11  A    between atoms: C_33  and  C_36
REMARK   12  A    between atoms: C_37  and  C_39
REMARK   13  A    between atoms: C_39  and  C_40
REMARK   14  A    between atoms: C_39  and  C_41
REMARK                            x       y       z     vdW  Elec       q    Type
REMARK                         _______ _______ _______ _____ _____    ______ ____
ROOT
ATOM      1  C   UNL     1       1.688  -3.376  -4.792  0.00  0.00    +0.080 C 
ATOM      2  C   UNL     1       1.856  -4.706  -4.628  0.00  0.00    +0.041 C 
ATOM      3  N   UNL     1       2.388  -5.476  -5.623  0.00  0.00    -0.260 N 
ATOM      4  C   UNL     1       2.777  -4.993  -6.809  0.00  0.00    +0.307 C 
ATOM      5  O   UNL     1       3.239  -5.758  -7.633  0.00  0.00    -0.252 OA
ATOM      6  N   UNL     1       2.672  -3.686  -7.120  0.00  0.00    -0.288 N 
ATOM      7  C   UNL     1       2.104  -2.770  -6.117  0.00  0.00    +0.144 C 
ATOM      8  C   UNL     1       2.541  -6.913  -5.378  0.00  0.00    +0.139 C 
ATOM      9  H   UNL     1       2.960  -3.357  -7.986  0.00  0.00    +0.151 HD
ENDROOT
BRANCH   7  10
ATOM     10  C   UNL     1       0.897  -2.101  -6.721  0.00  0.00    -0.019 A 
ATOM     11  C   UNL     1      -0.056  -2.858  -7.378  0.00  0.00    +0.006 A 
ATOM     12  C   UNL     1      -1.165  -2.248  -7.933  0.00  0.00    +0.004 A 
ATOM     13  C   UNL     1      -1.325  -0.879  -7.833  0.00  0.00    +0.046 A 
ATOM     14  C   UNL     1      -0.370  -0.117  -7.175  0.00  0.00    +0.129 A 
ATOM     15  C   UNL     1       0.740  -0.733  -6.614  0.00  0.00    +0.052 A 
BRANCH  14  16
ATOM     16  O   UNL     1      -0.524   1.229  -7.076  0.00  0.00    -0.456 OA
BRANCH  16  17
ATOM     17  C   UNL     1       0.212   2.018  -7.902  0.00  0.00    +0.128 A 
ATOM     18  C   UNL     1       1.146   1.449  -8.756  0.00  0.00    +0.046 A 
ATOM     19  C   UNL     1       1.893   2.254  -9.595  0.00  0.00    +0.004 A 
ATOM     20  C   UNL     1       1.711   3.624  -9.583  0.00  0.00    +0.000 A 
ATOM     21  C   UNL     1       0.781   4.193  -8.733  0.00  0.00    +0.004 A 
ATOM     22  C   UNL     1       0.026   3.393  -7.897  0.00  0.00    +0.046 A 
ENDBRANCH  16  17
ENDBRANCH  14  16
ENDBRANCH   7  10
BRANCH   1  23
ATOM     23  C   UNL     1       1.138  -2.577  -3.763  0.00  0.00    +0.339 C 
ATOM     24  O   UNL     1      -0.015  -2.196  -3.839  0.00  0.00    -0.245 OA
BRANCH  23  25
ATOM     25  O   UNL     1       1.891  -2.237  -2.696  0.00  0.00    -0.462 OA
BRANCH  25  27
ATOM     26  C   UNL     1       2.272  -1.147  -0.573  0.00  0.00    +0.048 C 
ATOM     27  C   UNL     1       1.270  -1.428  -1.695  0.00  0.00    +0.229 C 
ENDBRANCH  25  27
ENDBRANCH  23  25
ENDBRANCH   1  23
BRANCH   2  28
ATOM     28  C   UNL     1       1.451  -5.351  -3.328  0.00  0.00    +0.136 C 
BRANCH  28  29
ATOM     29  N   UNL     1       0.318  -6.255  -3.562  0.00  0.00    -0.294 NA
ATOM     30  C   UNL     1      -0.876  -5.507  -3.977  0.00  0.00    +0.104 C 
ATOM     31  C   UNL     1      -1.977  -6.493  -4.384  0.00  0.00    +0.123 C 
ATOM     32  N   UNL     1      -2.189  -7.439  -3.279  0.00  0.00    -0.296 N 
ATOM     33  C   UNL     1      -1.016  -8.127  -2.717  0.00  0.00    +0.087 C 
ATOM     34  C   UNL     1       0.046  -7.077  -2.375  0.00  0.00    +0.107 C 
ATOM     35  C   UNL     1      -1.422  -8.884  -1.451  0.00  0.00    +0.029 C 
ATOM     36  C   UNL     1      -3.425  -7.671  -2.794  0.00  0.00    +0.218 C 
ATOM     37  O   UNL     1      -3.572  -8.384  -1.824  0.00  0.00    -0.275 OA
BRANCH  36  38
ATOM     38  C   UNL     1      -4.624  -7.043  -3.456  0.00  0.00    +0.069 C 
ATOM     39  C   UNL     1      -5.902  -7.672  -2.898  0.00  0.00    +0.017 C 
ATOM     40  C   UNL     1      -4.632  -5.539  -3.178  0.00  0.00    +0.017 C 
ENDBRANCH  36  38
ENDBRANCH  28  29
ENDBRANCH   2  28
TORSDOF 9
