REMARK  Name = ZINC59417741
REMARK  3 active torsions:
REMARK  status: ('A' for Active; 'I' for Inactive)
REMARK    1  A    between atoms: C_8  and  C_10
REMARK    2  A    between atoms: N_12  and  N_13
REMARK    3  A    between atoms: C_14  and  C_15
REMARK                            x       y       z     vdW  Elec       q    Type
REMARK                         _______ _______ _______ _____ _____    ______ ____
ROOT
ATOM      1  C   UNL     1       3.796  -3.324  -0.052  0.00  0.00    +0.299 C 
ATOM      2  O   UNL     1       3.268  -4.420  -0.053  0.00  0.00    -0.265 OA
ATOM      3  N   UNL     1       5.140  -3.222  -0.064  0.00  0.00    -0.200 N 
ATOM      4  H   UNL     1       5.560  -2.348  -0.063  0.00  0.00    +0.178 HD
ENDROOT
BRANCH   1  12
ATOM      5  C   UNL     1      -0.017   1.362   0.009  0.00  0.00    +0.001 A 
ATOM      6  C   UNL     1       1.171   2.082   0.002  0.00  0.00    +0.004 A 
ATOM      7  C   UNL     1       2.387   1.434  -0.013  0.00  0.00    +0.047 A 
ATOM      8  C   UNL     1       2.431   0.045  -0.021  0.00  0.00    +0.136 A 
ATOM      9  C   UNL     1       1.225  -0.680  -0.013  0.00  0.00    +0.021 A 
ATOM     10  C   UNL     1       0.002  -0.004   0.002  0.00  0.00    +0.011 A 
ATOM     11  C   UNL     1       1.609  -2.091  -0.024  0.00  0.00    +0.063 A 
ATOM     12  C   UNL     1       2.968  -2.110  -0.037  0.00  0.00    +0.192 A 
ATOM     13  O   UNL     1       3.442  -0.847  -0.035  0.00  0.00    -0.450 OA
ENDBRANCH   1  12
BRANCH   3  14
ATOM     14  N   UNL     1       5.929  -4.379  -0.078  0.00  0.00    -0.187 NA
ATOM     15  C   UNL     1       7.227  -4.281  -0.090  0.00  0.00    +0.145 C 
BRANCH  15  16
ATOM     16  C   UNL     1       8.053  -5.492  -0.104  0.00  0.00    +0.032 A 
ATOM     17  C   UNL     1       9.433  -5.608  -0.112  0.00  0.00    +0.017 A 
ATOM     18  C   UNL     1       9.983  -6.868  -0.125  0.00  0.00    +0.008 A 
ATOM     19  C   UNL     1       9.164  -7.952  -0.130  0.00  0.00    +0.046 A 
ATOM     20  S   UNL     1       7.543  -7.204  -0.108  0.00  0.00    -0.096 S 
ENDBRANCH  15  16
ENDBRANCH   3  14
TORSDOF 3
