REMARK  Name = ZINC40862268
REMARK  5 active torsions:
REMARK  status: ('A' for Active; 'I' for Inactive)
REMARK    1  A    between atoms: C_4  and  S_17
REMARK    2  A    between atoms: C_5  and  N_7
REMARK    3  A    between atoms: N_7  and  S_8
REMARK    4  A    between atoms: S_8  and  N_11
REMARK    5  A    between atoms: S_17  and  N_20
REMARK                            x       y       z     vdW  Elec       q    Type
REMARK                         _______ _______ _______ _____ _____    ______ ____
ROOT
ATOM      1  C   UNL     1      -0.017   1.377   0.010  0.00  0.00    +0.002 A 
ATOM      2  C   UNL     1       1.171   2.086   0.002  0.00  0.00    +0.002 A 
ATOM      3  C   UNL     1       2.380   1.416  -0.013  0.00  0.00    +0.030 A 
ATOM      4  C   UNL     1       2.406   0.035  -0.021  0.00  0.00    +0.129 A 
ATOM      5  C   UNL     1       1.215  -0.681  -0.013  0.00  0.00    +0.102 A 
ATOM      6  C   UNL     1       0.002  -0.004   0.002  0.00  0.00    +0.029 A 
ENDROOT
BRANCH   4   7
ATOM      7  S   UNL     1       3.947  -0.818  -0.042  0.00  0.00    +0.058 S 
ATOM      8  O   UNL     1       3.858  -1.793  -1.071  0.00  0.00    -0.153 OA
ATOM      9  O   UNL     1       4.962   0.176  -0.020  0.00  0.00    -0.153 OA
BRANCH   7  10
ATOM     10  N   UNL     1       4.067  -1.648   1.387  0.00  0.00    -0.203 NA
ATOM     11  H   UNL     1       3.351  -1.595   2.039  0.00  0.00    +0.144 HD
ATOM     12  H   UNL     1       4.852  -2.187   1.571  0.00  0.00    +0.144 HD
ENDBRANCH   7  10
ENDBRANCH   4   7
BRANCH   5  13
ATOM     13  N   UNL     1       1.238  -2.077  -0.021  0.00  0.00    -0.085 NA
BRANCH  13  14
ATOM     14  S   UNL     1      -0.182  -2.928  -0.011  0.00  0.00    +0.131 S 
ATOM     15  O   UNL     1      -0.802  -2.671   1.242  0.00  0.00    -0.136 OA
ATOM     16  O   UNL     1      -0.826  -2.658  -1.249  0.00  0.00    -0.136 OA
BRANCH  14  17
ATOM     17  N   UNL     1       0.210  -4.537  -0.024  0.00  0.00    -0.166 NA
ATOM     18  C   UNL     1       0.384  -5.264  -1.291  0.00  0.00    +0.092 C 
ATOM     19  C   UNL     1       1.720  -6.012  -1.244  0.00  0.00    -0.065 C 
ATOM     20  N   UNL     1       1.761  -6.862  -0.047  0.00  0.00    +0.381 N 
ATOM     21  C   UNL     1       1.733  -6.027   1.161  0.00  0.00    -0.065 C 
ATOM     22  C   UNL     1       0.403  -5.279   1.232  0.00  0.00    +0.092 C 
ATOM     23  H   UNL     1       0.963  -7.479  -0.047  0.00  0.00    -0.086 HD
ATOM     24  H   UNL     1       2.608  -7.411  -0.055  0.00  0.00    -0.086 HD
ENDBRANCH  14  17
ENDBRANCH  13  14
ENDBRANCH   5  13
TORSDOF 5
