REMARK  Name = ZINC62870735
REMARK  5 active torsions:
REMARK  status: ('A' for Active; 'I' for Inactive)
REMARK    1  A    between atoms: C_1  and  C_2
REMARK    2  A    between atoms: C_2  and  C_3
REMARK    3  A    between atoms: C_3  and  C_18
REMARK    4  A    between atoms: C_9  and  C_11
REMARK    5  A    between atoms: C_11  and  C_12
REMARK                            x       y       z     vdW  Elec       q    Type
REMARK                         _______ _______ _______ _____ _____    ______ ____
ROOT
ATOM      1  C   UNL     1      -1.433  -0.534   0.013  0.00  0.00    +0.087 C 
ATOM      2  C   UNL     1      -2.149  -0.044   1.274  0.00  0.00    +0.021 C 
ATOM      3  C   UNL     1      -1.389  -0.524   2.513  0.00  0.00    +0.020 C 
ATOM      4  C   UNL     1      -1.369  -2.055   2.533  0.00  0.00    +0.108 C 
ATOM      5  N   UNL     1      -0.814  -2.537   1.260  0.00  0.00    -0.300 N 
ATOM      6  C   UNL     1      -1.413  -2.065   0.004  0.00  0.00    +0.126 C 
ATOM      7  C   UNL     1       0.225  -3.396   1.245  0.00  0.00    +0.214 C 
ATOM      8  O   UNL     1       0.673  -3.787   0.189  0.00  0.00    -0.276 OA
ENDROOT
BRANCH   1   9
ATOM      9  C   UNL     1      -2.163  -0.034  -1.207  0.00  0.00    +0.364 C 
ATOM     10  O   UNL     1      -1.589   0.681  -2.011  0.00  0.00    -0.246 OA
ATOM     11  O   UNL     1      -3.328  -0.343  -1.390  0.00  0.00    -0.246 OA
ENDBRANCH   1   9
BRANCH   1  13
ATOM     12  C   UNL     1      -0.019   1.526   0.010  0.00  0.00    +0.005 C 
ATOM     13  C   UNL     1       0.002  -0.004   0.002  0.00  0.00    +0.016 C 
ENDBRANCH   1  13
BRANCH   7  14
ATOM     14  C   UNL     1       0.829  -3.870   2.542  0.00  0.00    +0.080 C 
BRANCH  14  15
ATOM     15  C   UNL     1       1.983  -4.830   2.246  0.00  0.00    -0.063 C 
ATOM     16  C   UNL     1       2.653  -5.291   3.564  0.00  0.00    -0.017 C 
ATOM     17  C   UNL     1       3.291  -6.639   3.137  0.00  0.00    -0.021 C 
ATOM     18  C   UNL     1       2.263  -7.208   2.137  0.00  0.00    -0.082 C 
ATOM     19  N   UNL     1       1.474  -6.071   1.624  0.00  0.00    +0.381 N 
ATOM     20  H   UNL     1       0.502  -6.197   1.863  0.00  0.00    -0.086 HD
ATOM     21  H   UNL     1       1.572  -6.013   0.621  0.00  0.00    -0.086 HD
ENDBRANCH  14  15
ENDBRANCH   7  14
TORSDOF 4
