REMARK  Name = ZINC43540726
REMARK  8 active torsions:
REMARK  status: ('A' for Active; 'I' for Inactive)
REMARK    1  A    between atoms: C_1  and  C_2
REMARK    2  A    between atoms: C_2  and  C_3
REMARK    3  A    between atoms: C_3  and  C_5
REMARK    4  A    between atoms: C_3  and  N_9
REMARK    5  A    between atoms: N_6  and  O_7
REMARK    6  A    between atoms: C_10  and  C_16
REMARK    7  A    between atoms: C_11  and  C_15
REMARK    8  A    between atoms: C_12  and  C_14
REMARK                            x       y       z     vdW  Elec       q    Type
REMARK                         _______ _______ _______ _____ _____    ______ ____
ROOT
ATOM      1  C   UNL     1      -1.433  -0.534   0.013  0.00  0.00    +0.173 C 
ENDROOT
BRANCH   1   2
ATOM      2  N   UNL     1      -2.105  -0.148  -1.230  0.00  0.00    -0.258 N 
ATOM      3  C   UNL     1      -3.214   0.615  -1.330  0.00  0.00    +0.040 A 
ATOM      4  C   UNL     1      -3.514   0.737  -2.644  0.00  0.00    -0.007 A 
ATOM      5  C   UNL     1      -2.556   0.024  -3.372  0.00  0.00    +0.063 A 
ATOM      6  N   UNL     1      -1.708  -0.502  -2.526  0.00  0.00    -0.175 NA
ATOM      7  C   UNL     1      -2.505  -0.110  -4.872  0.00  0.00    +0.068 C 
ATOM      8  C   UNL     1      -4.675   1.505  -3.221  0.00  0.00    +0.047 C 
ATOM      9  C   UNL     1      -3.980   1.223  -0.184  0.00  0.00    +0.065 C 
ENDBRANCH   1   2
BRANCH   1  10
ATOM     10  C   UNL     1      -1.414  -2.036   0.129  0.00  0.00    +0.156 C 
ATOM     11  N   UNL     1      -0.382  -2.701  -0.274  0.00  0.00    -0.075 NA
ATOM     12  N   UNL     1      -2.496  -2.700   0.663  0.00  0.00    -0.342 N 
ATOM     13  H   UNL     1      -3.270  -2.200   0.964  0.00  0.00    +0.144 HD
ATOM     14  H   UNL     1      -2.483  -3.667   0.737  0.00  0.00    +0.144 HD
BRANCH  11  15
ATOM     15  O   UNL     1      -0.363  -4.113  -0.165  0.00  0.00    -0.408 OA
ATOM     16  H   UNL     1       0.450  -4.522  -0.491  0.00  0.00    +0.328 HD
ENDBRANCH  11  15
ENDBRANCH   1  10
BRANCH   1  18
ATOM     17  C   UNL     1      -0.019   1.526   0.010  0.00  0.00    +0.006 C 
ATOM     18  C   UNL     1       0.002  -0.004   0.002  0.00  0.00    +0.031 C 
ENDBRANCH   1  18
TORSDOF 4
