REMARK  Name = ZINC63162309
REMARK  6 active torsions:
REMARK  status: ('A' for Active; 'I' for Inactive)
REMARK    1  A    between atoms: C_3  and  C_24
REMARK    2  A    between atoms: C_6  and  C_7
REMARK    3  A    between atoms: C_7  and  N_8
REMARK    4  A    between atoms: N_11  and  C_12
REMARK    5  A    between atoms: C_14  and  C_20
REMARK    6  A    between atoms: C_24  and  N_25
REMARK                            x       y       z     vdW  Elec       q    Type
REMARK                         _______ _______ _______ _____ _____    ______ ____
ROOT
ATOM      1  N   UNL     1      -1.825  -0.880  -1.358  0.00  0.00    -0.295 N 
ATOM      2  C   UNL     1      -2.964  -1.554  -1.612  0.00  0.00    +0.304 C 
ATOM      3  O   UNL     1      -3.720  -1.835  -0.702  0.00  0.00    -0.252 OA
ATOM      4  N   UNL     1      -3.265  -1.918  -2.874  0.00  0.00    -0.265 N 
ATOM      5  H   UNL     1      -1.222  -0.656  -2.084  0.00  0.00    +0.151 HD
ATOM      6  H   UNL     1      -2.701  -1.631  -3.609  0.00  0.00    +0.157 HD
ENDROOT
BRANCH   4   7
ATOM      7  C   UNL     1      -4.394  -2.710  -3.125  0.00  0.00    +0.100 A 
ATOM      8  C   UNL     1      -5.382  -2.264  -3.959  0.00  0.00    +0.042 A 
ATOM      9  C   UNL     1      -6.500  -3.077  -4.193  0.00  0.00    +0.073 A 
ATOM     10  C   UNL     1      -6.594  -4.287  -3.598  0.00  0.00    +0.098 A 
ATOM     11  N   UNL     1      -5.613  -4.733  -2.768  0.00  0.00    -0.327 N 
ATOM     12  H   UNL     1      -5.698  -5.604  -2.350  0.00  0.00    +0.168 HD
ATOM     13  C   UNL     1      -4.522  -3.982  -2.525  0.00  0.00    +0.270 A 
ATOM     14  O   UNL     1      -3.647  -4.397  -1.782  0.00  0.00    -0.266 OA
BRANCH   9  15
ATOM     15  C   UNL     1      -7.599  -2.601  -5.109  0.00  0.00    +0.419 C 
ATOM     16  F   UNL     1      -8.598  -3.577  -5.184  0.00  0.00    -0.166 F 
ATOM     17  F   UNL     1      -8.143  -1.414  -4.607  0.00  0.00    -0.166 F 
ATOM     18  F   UNL     1      -7.075  -2.371  -6.385  0.00  0.00    -0.166 F 
ENDBRANCH   9  15
ENDBRANCH   4   7
BRANCH   1  19
ATOM     19  C   UNL     1      -1.497  -0.485   0.014  0.00  0.00    +0.141 C 
BRANCH  19  25
ATOM     20  C   UNL     1      -0.156   1.624  -0.131  0.00  0.00    +0.005 A 
ATOM     21  C   UNL     1       1.050   2.298  -0.121  0.00  0.00    +0.002 A 
ATOM     22  C   UNL     1       2.231   1.599   0.045  0.00  0.00    -0.064 A 
ATOM     23  C   UNL     1       2.206   0.226   0.201  0.00  0.00    +0.002 A 
ATOM     24  C   UNL     1       0.999  -0.449   0.192  0.00  0.00    +0.005 A 
ATOM     25  C   UNL     1      -0.182   0.250   0.025  0.00  0.00    -0.030 A 
BRANCH  22  26
ATOM     26  C   UNL     1       3.547   2.334   0.055  0.00  0.00    -0.043 C 
BRANCH  26  27
ATOM     27  N   UNL     1       3.875   2.731   1.431  0.00  0.00    +0.382 N 
ATOM     28  C   UNL     1       4.186   1.532   2.250  0.00  0.00    -0.078 C 
ATOM     29  C   UNL     1       5.024   2.107   3.419  0.00  0.00    -0.020 C 
ATOM     30  C   UNL     1       5.872   3.201   2.730  0.00  0.00    -0.020 C 
ATOM     31  C   UNL     1       5.102   3.557   1.444  0.00  0.00    -0.078 C 
ATOM     32  H   UNL     1       3.107   3.243   1.839  0.00  0.00    -0.081 HD
ENDBRANCH  26  27
ENDBRANCH  22  26
ENDBRANCH  19  25
ENDBRANCH   1  19
TORSDOF 6
