REMARK  Name = ZINC48639996
REMARK  5 active torsions:
REMARK  status: ('A' for Active; 'I' for Inactive)
REMARK    1  A    between atoms: C_1  and  C_2
REMARK    2  A    between atoms: C_2  and  C_4
REMARK    3  A    between atoms: C_2  and  O_16
REMARK    4  A    between atoms: N_6  and  C_7
REMARK    5  A    between atoms: O_16  and  C_17
REMARK                            x       y       z     vdW  Elec       q    Type
REMARK                         _______ _______ _______ _____ _____    ______ ____
ROOT
ATOM      1  C   UNL     1       2.699  -0.618   2.557  0.00  0.00    +0.053 A 
ATOM      2  C   UNL     1       2.333  -1.783   3.217  0.00  0.00    +0.046 A 
ATOM      3  C   UNL     1       2.980  -2.148   4.382  0.00  0.00    +0.061 A 
ATOM      4  C   UNL     1       3.992  -1.352   4.892  0.00  0.00    +0.061 A 
ATOM      5  C   UNL     1       4.359  -0.190   4.236  0.00  0.00    +0.043 A 
ATOM      6  C   UNL     1       3.719   0.176   3.067  0.00  0.00    +0.064 A 
ATOM      7 CL   UNL     1       4.185   1.629   2.240  0.00  0.00    -0.082 Cl
ATOM      8 CL   UNL     1       4.803  -1.812   6.357  0.00  0.00    -0.082 Cl
ATOM      9 CL   UNL     1       2.522  -3.604   5.209  0.00  0.00    -0.082 Cl
ENDROOT
BRANCH   1  12
ATOM     10  C   UNL     1       0.732  -0.509   1.220  0.00  0.00    +0.246 C 
ATOM     11  O   UNL     1       0.136  -1.139   2.068  0.00  0.00    -0.273 OA
ATOM     12  N   UNL     1       2.045  -0.246   1.375  0.00  0.00    -0.282 N 
ATOM     13  H   UNL     1       2.537   0.201   0.669  0.00  0.00    +0.155 HD
BRANCH  10  15
ATOM     14  C   UNL     1      -0.021   1.510  -0.007  0.00  0.00    +0.048 C 
ATOM     15  C   UNL     1       0.006  -0.020  -0.006  0.00  0.00    +0.200 C 
BRANCH  15  16
ATOM     16  O   UNL     1      -1.333  -0.519   0.003  0.00  0.00    -0.371 OA
ATOM     17  C   UNL     1      -1.886  -0.724  -1.299  0.00  0.00    +0.195 C 
ENDBRANCH  15  16
ENDBRANCH  10  15
ENDBRANCH   1  12
TORSDOF 3
