REMARK  Name = ZINC38050100
REMARK  5 active torsions:
REMARK  status: ('A' for Active; 'I' for Inactive)
REMARK    1  A    between atoms: C_4  and  N_20
REMARK    2  A    between atoms: C_6  and  S_7
REMARK    3  A    between atoms: S_7  and  N_10
REMARK    4  A    between atoms: N_10  and  C_11
REMARK    5  A    between atoms: C_17  and  N_19
REMARK                            x       y       z     vdW  Elec       q    Type
REMARK                         _______ _______ _______ _____ _____    ______ ____
ROOT
ATOM      1  S   UNL     1      -1.513  -0.904   0.012  0.00  0.00    +0.059 S 
ATOM      2  O   UNL     1      -1.220  -2.185   0.553  0.00  0.00    -0.153 OA
ATOM      3  O   UNL     1      -2.492  -0.044   0.577  0.00  0.00    -0.153 OA
ENDROOT
BRANCH   1   9
ATOM      4  C   UNL     1      -0.017   1.378   0.010  0.00  0.00    +0.032 A 
ATOM      5  C   UNL     1       1.170   2.086   0.002  0.00  0.00    +0.055 A 
ATOM      6  C   UNL     1       2.380   1.409  -0.013  0.00  0.00    +0.209 A 
ATOM      7  C   UNL     1       2.396   0.022  -0.021  0.00  0.00    +0.174 A 
ATOM      8  C   UNL     1       1.208  -0.681  -0.013  0.00  0.00    +0.065 A 
ATOM      9  C   UNL     1       0.002  -0.004   0.002  0.00  0.00    +0.108 A 
ATOM     10  O   UNL     1       3.548   2.104  -0.021  0.00  0.00    -0.285 OA
BRANCH   7  11
ATOM     11  N   UNL     1       3.686  -0.704  -0.037  0.00  0.00    +0.060 N 
ATOM     12  O   UNL     1       3.700  -1.913  -0.044  0.00  0.00    -0.126 OA
ATOM     13  O   UNL     1       4.726  -0.088  -0.044  0.00  0.00    -0.126 OA
ENDBRANCH   7  11
ENDBRANCH   1   9
BRANCH   1  14
ATOM     14  N   UNL     1      -1.949  -1.146  -1.567  0.00  0.00    -0.188 NA
ATOM     15  H   UNL     1      -2.756  -0.736  -1.915  0.00  0.00    +0.148 HD
BRANCH  14  16
ATOM     16  C   UNL     1      -1.116  -1.979  -2.438  0.00  0.00    +0.062 C 
ATOM     17  C   UNL     1      -1.661  -3.408  -2.450  0.00  0.00    +0.019 C 
ATOM     18  C   UNL     1      -3.099  -3.402  -2.974  0.00  0.00    +0.001 C 
ATOM     19  C   UNL     1      -3.121  -2.835  -4.395  0.00  0.00    -0.001 C 
ATOM     20  C   UNL     1      -2.576  -1.405  -4.383  0.00  0.00    -0.015 C 
ATOM     21  C   UNL     1      -1.139  -1.412  -3.859  0.00  0.00    -0.056 C 
BRANCH  21  22
ATOM     22  N   UNL     1      -0.616  -0.040  -3.847  0.00  0.00    +0.381 N 
ATOM     23  H   UNL     1       0.333  -0.044  -3.502  0.00  0.00    -0.090 HD
ATOM     24  H   UNL     1      -0.630   0.334  -4.785  0.00  0.00    -0.090 HD
ATOM     25  H   UNL     1      -1.189   0.534  -3.247  0.00  0.00    -0.090 HD
ENDBRANCH  21  22
ENDBRANCH  14  16
ENDBRANCH   1  14
TORSDOF 5
