REMARK  Name = ZINC06312308
REMARK  5 active torsions:
REMARK  status: ('A' for Active; 'I' for Inactive)
REMARK    1  A    between atoms: C_1  and  C_2
REMARK    2  A    between atoms: C_2  and  C_18
REMARK    3  A    between atoms: N_3  and  N_4
REMARK    4  A    between atoms: C_5  and  C_7
REMARK    5  A    between atoms: C_22  and  N_24
REMARK                            x       y       z     vdW  Elec       q    Type
REMARK                         _______ _______ _______ _____ _____    ______ ____
ROOT
ATOM      1  N   UNL     1      -1.611  -1.855  -0.300  0.00  0.00    -0.204 N 
ATOM      2  C   UNL     1      -1.370  -0.529  -0.335  0.00  0.00    +0.276 C 
ATOM      3  O   UNL     1      -2.257   0.241  -0.637  0.00  0.00    -0.270 OA
ATOM      4  H   UNL     1      -0.902  -2.471  -0.059  0.00  0.00    +0.177 HD
ENDROOT
BRANCH   2   5
ATOM      5  C   UNL     1       0.002  -0.004   0.002  0.00  0.00    +0.297 C 
ATOM      6  C   UNL     1       1.008  -0.465  -1.061  0.00  0.00    +0.283 C 
ATOM      7  O   UNL     1       2.295   0.061  -0.718  0.00  0.00    -0.484 OA
ATOM      8  C   UNL     1       2.344   1.374  -0.364  0.00  0.00    +0.162 A 
ATOM      9  C   UNL     1       3.563   2.035  -0.370  0.00  0.00    +0.049 A 
ATOM     10  C   UNL     1       3.630   3.368  -0.010  0.00  0.00    +0.004 A 
ATOM     11  C   UNL     1       2.482   4.046   0.356  0.00  0.00    +0.004 A 
ATOM     12  C   UNL     1       1.264   3.393   0.363  0.00  0.00    +0.049 A 
ATOM     13  C   UNL     1       1.190   2.056   0.002  0.00  0.00    +0.163 A 
ATOM     14  O   UNL     1      -0.017   1.427   0.010  0.00  0.00    -0.472 OA
ENDBRANCH   2   5
BRANCH   1  17
ATOM     15  C   UNL     1      -2.017  -4.576  -0.205  0.00  0.00    +0.068 C 
ATOM     16  C   UNL     1      -3.119  -3.619  -0.580  0.00  0.00    +0.063 C 
ATOM     17  N   UNL     1      -2.887  -2.343  -0.613  0.00  0.00    -0.184 NA
BRANCH  16  18
ATOM     18  C   UNL     1      -4.462  -4.133  -0.909  0.00  0.00    -0.000 A 
ATOM     19  C   UNL     1      -4.715  -5.506  -0.875  0.00  0.00    +0.011 A 
ATOM     20  C   UNL     1      -5.973  -5.980  -1.183  0.00  0.00    +0.023 A 
ATOM     21  C   UNL     1      -6.983  -5.098  -1.528  0.00  0.00    +0.071 A 
ATOM     22  C   UNL     1      -6.739  -3.735  -1.564  0.00  0.00    +0.145 A 
ATOM     23  C   UNL     1      -5.487  -3.248  -1.252  0.00  0.00    +0.044 A 
ATOM     24 CL   UNL     1      -8.564  -5.702  -1.916  0.00  0.00    -0.081 Cl
BRANCH  22  25
ATOM     25  N   UNL     1      -7.825  -2.799  -1.932  0.00  0.00    +0.058 N 
ATOM     26  O   UNL     1      -7.611  -1.601  -1.964  0.00  0.00    -0.126 OA
ATOM     27  O   UNL     1      -8.932  -3.228  -2.204  0.00  0.00    -0.126 OA
ENDBRANCH  22  25
ENDBRANCH  16  18
ENDBRANCH   1  17
TORSDOF 4
