REMARK  Name = ZINC64939074
REMARK  8 active torsions:
REMARK  status: ('A' for Active; 'I' for Inactive)
REMARK    1  A    between atoms: C_1  and  C_2
REMARK    2  A    between atoms: C_2  and  C_3
REMARK    3  A    between atoms: C_2  and  C_4
REMARK    4  A    between atoms: C_4  and  C_5
REMARK    5  A    between atoms: C_5  and  N_6
REMARK    6  A    between atoms: N_9  and  N_10
REMARK    7  A    between atoms: N_10  and  S_11
REMARK    8  A    between atoms: S_11  and  C_14
REMARK                            x       y       z     vdW  Elec       q    Type
REMARK                         _______ _______ _______ _____ _____    ______ ____
ROOT
ATOM      1  N   UNL     1       4.108  -1.442  -4.667  0.00  0.00    -0.107 NA
ATOM      2  H   UNL     1       3.621  -2.243  -4.418  0.00  0.00    +0.172 HD
ENDROOT
BRANCH   1   6
ATOM      3  N   UNL     1       2.873  -0.545  -2.413  0.00  0.00    -0.298 N 
ATOM      4  C   UNL     1       4.184  -0.286  -2.587  0.00  0.00    +0.315 C 
ATOM      5  O   UNL     1       4.798   0.340  -1.745  0.00  0.00    -0.251 OA
ATOM      6  N   UNL     1       4.815  -0.721  -3.696  0.00  0.00    -0.216 N 
ATOM      7  H   UNL     1       2.384  -1.045  -3.085  0.00  0.00    +0.150 HD
ATOM      8  H   UNL     1       5.758  -0.534  -3.822  0.00  0.00    +0.172 HD
BRANCH   3   9
ATOM      9  C   UNL     1       2.187  -0.073  -1.207  0.00  0.00    +0.106 C 
BRANCH   9  10
ATOM     10  C   UNL     1       0.718  -0.497  -1.257  0.00  0.00    +0.022 C 
BRANCH  10  12
ATOM     11  C   UNL     1      -0.019   1.526   0.010  0.00  0.00    +0.007 C 
ATOM     12  C   UNL     1       0.002  -0.004   0.002  0.00  0.00    -0.016 C 
ATOM     13  C   UNL     1      -1.433  -0.534   0.013  0.00  0.00    +0.007 C 
ENDBRANCH  10  12
ENDBRANCH   9  10
ENDBRANCH   3   9
ENDBRANCH   1   6
BRANCH   1  14
ATOM     14  S   UNL     1       4.103  -0.927  -6.241  0.00  0.00    +0.070 S 
ATOM     15  O   UNL     1       3.434  -1.929  -6.994  0.00  0.00    -0.152 OA
ATOM     16  O   UNL     1       3.673   0.427  -6.224  0.00  0.00    -0.152 OA
BRANCH  14  17
ATOM     17  C   UNL     1       5.777  -0.917  -6.791  0.00  0.00    +0.085 C 
ATOM     18  C   UNL     1       6.414   0.236  -6.913  0.00  0.00    +0.032 C 
ATOM     19  C   UNL     1       7.806   0.256  -7.408  0.00  0.00    -0.020 A 
ATOM     20  C   UNL     1       8.613   1.377  -7.227  0.00  0.00    +0.008 A 
ATOM     21  C   UNL     1       9.915   1.362  -7.688  0.00  0.00    +0.001 A 
ATOM     22  C   UNL     1      10.415   0.240  -8.324  0.00  0.00    +0.000 A 
ATOM     23  C   UNL     1       9.614  -0.874  -8.511  0.00  0.00    +0.004 A 
ATOM     24  C   UNL     1       8.311  -0.868  -8.063  0.00  0.00    -0.040 A 
ATOM     25  C   UNL     1       7.414  -2.056  -8.292  0.00  0.00    +0.042 C 
ATOM     26  C   UNL     1       6.457  -2.220  -7.109  0.00  0.00    +0.061 C 
ENDBRANCH  14  17
ENDBRANCH   1  14
TORSDOF 6
