REMARK  Name = ZINC19864844
REMARK  12 active torsions:
REMARK  status: ('A' for Active; 'I' for Inactive)
REMARK    1  A    between atoms: C_1  and  C_2
REMARK    2  A    between atoms: C_2  and  C_3
REMARK    3  A    between atoms: C_16  and  O_35
REMARK    4  A    between atoms: N_19  and  C_34
REMARK    5  A    between atoms: C_22  and  C_29
REMARK    6  A    between atoms: C_22  and  O_33
REMARK    7  A    between atoms: C_23  and  C_25
REMARK    8  A    between atoms: C_25  and  O_27
REMARK    9  A    between atoms: O_27  and  C_28
REMARK   10  A    between atoms: C_29  and  O_31
REMARK   11  A    between atoms: O_31  and  C_32
REMARK   12  A    between atoms: O_35  and  C_36
REMARK                            x       y       z     vdW  Elec       q    Type
REMARK                         _______ _______ _______ _____ _____    ______ ____
ROOT
ATOM      1  C   UNL     1       1.196  -2.389  -2.456  0.00  0.00    -0.006 C 
ATOM      2  C   UNL     1       0.615  -1.569  -3.566  0.00  0.00    -0.027 C 
ATOM      3  C   UNL     1       0.002  -2.095  -4.581  0.00  0.00    -0.049 C 
ATOM      4  C   UNL     1      -0.189  -3.577  -4.706  0.00  0.00    -0.051 C 
ATOM      5  N   UNL     1       0.905  -4.303  -4.054  0.00  0.00    +0.385 N 
ATOM      6  C   UNL     1       1.140  -3.853  -2.693  0.00  0.00    -0.045 C 
ATOM      7  C   UNL     1       0.496  -4.786  -1.713  0.00  0.00    +0.006 C 
ATOM      8  C   UNL     1      -0.245  -5.824  -2.603  0.00  0.00    -0.007 C 
ATOM      9  C   UNL     1       0.522  -5.739  -3.945  0.00  0.00    -0.077 C 
ATOM     10  C   UNL     1       1.486  -5.525  -0.856  0.00  0.00    -0.020 A 
ATOM     11  C   UNL     1       2.493  -6.397  -1.221  0.00  0.00    +0.009 A 
ATOM     12  C   UNL     1       3.255  -6.948  -0.199  0.00  0.00    +0.046 A 
ATOM     13  C   UNL     1       3.014  -6.635   1.129  0.00  0.00    +0.122 A 
ATOM     14  C   UNL     1       2.006  -5.753   1.502  0.00  0.00    +0.069 A 
ATOM     15  C   UNL     1       1.238  -5.191   0.480  0.00  0.00    +0.037 A 
ATOM     16  N   UNL     1       0.211  -4.267   0.585  0.00  0.00    -0.325 N 
ATOM     17  C   UNL     1      -0.496  -4.190  -0.720  0.00  0.00    +0.126 C 
ATOM     18  C   UNL     1      -0.781  -2.717  -1.001  0.00  0.00    +0.195 C 
ATOM     19  C   UNL     1       0.555  -1.980  -1.130  0.00  0.00    +0.150 C 
ATOM     20  C   UNL     1      -0.716  -4.632   1.665  0.00  0.00    +0.129 C 
ATOM     21  H   UNL     1       1.810  -4.113  -4.650  0.00  0.00    -0.081 HD
ENDROOT
BRANCH   1  23
ATOM     22  C   UNL     1       3.356  -2.274  -3.707  0.00  0.00    +0.004 C 
ATOM     23  C   UNL     1       2.676  -2.014  -2.361  0.00  0.00    +0.007 C 
ENDBRANCH   1  23
BRANCH  19  24
ATOM     24  C   UNL     1       0.319  -0.492  -1.116  0.00  0.00    +0.314 C 
ATOM     25  O   UNL     1      -0.692  -0.036  -1.596  0.00  0.00    -0.250 OA
BRANCH  24  26
ATOM     26  O   UNL     1       1.231   0.328  -0.570  0.00  0.00    -0.468 OA
ATOM     27  C   UNL     1       0.938   1.749  -0.592  0.00  0.00    +0.280 C 
ENDBRANCH  24  26
ENDBRANCH  19  24
BRANCH  18  28
ATOM     28  C   UNL     1      -1.576  -2.130   0.136  0.00  0.00    +0.342 C 
ATOM     29  O   UNL     1      -1.008  -1.582   1.051  0.00  0.00    -0.247 OA
BRANCH  28  30
ATOM     30  O   UNL     1      -2.915  -2.215   0.133  0.00  0.00    -0.466 OA
ATOM     31  C   UNL     1      -3.616  -1.627   1.260  0.00  0.00    +0.280 C 
ENDBRANCH  28  30
ENDBRANCH  18  28
BRANCH  18  32
ATOM     32  O   UNL     1      -1.516  -2.595  -2.220  0.00  0.00    -0.375 OA
ATOM     33  H   UNL     1      -1.813  -1.601  -2.585  0.00  0.00    +0.211 HD
ENDBRANCH  18  32
BRANCH  13  34
ATOM     34  O   UNL     1       3.784  -7.205   2.092  0.00  0.00    -0.495 OA
ATOM     35  C   UNL     1       4.807  -8.104   1.659  0.00  0.00    +0.277 C 
ENDBRANCH  13  34
TORSDOF 7
