REMARK  Name = ZINC16451078
REMARK  3 active torsions:
REMARK  status: ('A' for Active; 'I' for Inactive)
REMARK    1  A    between atoms: C_4  and  N_7
REMARK    2  A    between atoms: C_8  and  C_9
REMARK    3  A    between atoms: N_16  and  C_19
REMARK                            x       y       z     vdW  Elec       q    Type
REMARK                         _______ _______ _______ _____ _____    ______ ____
ROOT
ATOM      1  C   UNL     1       6.072  -0.716  -0.158  0.00  0.00    +0.203 C 
ATOM      2  C   UNL     1       5.959  -2.225  -0.045  0.00  0.00    +0.236 C 
ATOM      3  O   UNL     1       6.945  -2.931  -0.046  0.00  0.00    -0.274 OA
ATOM      4  N   UNL     1       4.721  -2.752   0.057  0.00  0.00    -0.266 N 
ATOM      5  C   UNL     1       3.623  -1.986   0.065  0.00  0.00    +0.150 C 
ATOM      6  S   UNL     1       2.109  -2.771   0.207  0.00  0.00    -0.018 S 
ATOM      7  N   UNL     1       3.623  -0.652  -0.035  0.00  0.00    -0.221 N 
ATOM      8  C   UNL     1       4.767   0.057  -0.145  0.00  0.00    +0.243 C 
ATOM      9  O   UNL     1       4.752   1.266  -0.231  0.00  0.00    -0.274 OA
ATOM     10  H   UNL     1       4.623  -3.714   0.131  0.00  0.00    +0.157 HD
ENDROOT
BRANCH   7  11
ATOM     11  C   UNL     1       2.399   0.031  -0.021  0.00  0.00    +0.043 A 
ATOM     12  C   UNL     1       1.728   0.281  -1.210  0.00  0.00    +0.024 A 
ATOM     13  C   UNL     1       0.522   0.953  -1.192  0.00  0.00    +0.002 A 
ATOM     14  C   UNL     1      -0.017   1.378   0.009  0.00  0.00    +0.000 A 
ATOM     15  C   UNL     1       0.649   1.131   1.195  0.00  0.00    +0.002 A 
ATOM     16  C   UNL     1       1.856   0.458   1.183  0.00  0.00    +0.024 A 
ENDBRANCH   7  11
BRANCH   1  18
ATOM     17  N   UNL     1       8.079   0.299   0.751  0.00  0.00    -0.259 NA
ATOM     18  C   UNL     1       6.921  -0.223   0.985  0.00  0.00    +0.106 C 
BRANCH  17  22
ATOM     19  C   UNL     1      10.411   1.657   3.893  0.00  0.00    +0.000 A 
ATOM     20  C   UNL     1      10.984   0.900   2.887  0.00  0.00    +0.002 A 
ATOM     21  C   UNL     1      10.212   0.445   1.838  0.00  0.00    +0.028 A 
ATOM     22  C   UNL     1       8.852   0.749   1.793  0.00  0.00    +0.064 A 
ATOM     23  C   UNL     1       8.281   1.518   2.808  0.00  0.00    +0.028 A 
ATOM     24  C   UNL     1       9.062   1.962   3.854  0.00  0.00    +0.002 A 
ENDBRANCH  17  22
ENDBRANCH   1  18
TORSDOF 3
