REMARK  Name = ZINC12458568
REMARK  11 active torsions:
REMARK  status: ('A' for Active; 'I' for Inactive)
REMARK    1  A    between atoms: C_1  and  C_2
REMARK    2  A    between atoms: C_5  and  C_10
REMARK    3  A    between atoms: C_10  and  N_11
REMARK    4  A    between atoms: C_12  and  C_14
REMARK    5  A    between atoms: C_14  and  C_15
REMARK    6  A    between atoms: C_22  and  C_23
REMARK    7  A    between atoms: C_22  and  N_59
REMARK    8  A    between atoms: C_27  and  O_31
REMARK    9  A    between atoms: C_28  and  O_29
REMARK   10  A    between atoms: O_29  and  C_30
REMARK   11  A    between atoms: O_31  and  C_32
REMARK                            x       y       z     vdW  Elec       q    Type
REMARK                         _______ _______ _______ _____ _____    ______ ____
ROOT
ATOM      1  C   UNL     1       3.513   1.787   1.942  0.00  0.00    +0.028 C 
ATOM      2  C   UNL     1       4.574   1.619   0.891  0.00  0.00    +0.200 C 
ATOM      3  O   UNL     1       5.409   0.752   1.042  0.00  0.00    -0.278 OA
ATOM      4  N   UNL     1       4.636   2.385  -0.203  0.00  0.00    -0.318 N 
ATOM      5  C   UNL     1       3.660   3.431  -0.496  0.00  0.00    +0.085 C 
ATOM      6  C   UNL     1       2.894   3.804   0.775  0.00  0.00    -0.058 C 
ATOM      7  H   UNL     1       5.362   2.240  -0.830  0.00  0.00    +0.149 HD
ATOM      8  N   UNL     1       2.387   2.559   1.386  0.00  0.00    +0.391 N 
ATOM      9  H   UNL     1       1.919   1.998   0.664  0.00  0.00    -0.080 HD
ENDROOT
BRANCH   1  10
ATOM     10  C   UNL     1       3.006   0.410   2.377  0.00  0.00    +0.089 C 
BRANCH  10  12
ATOM     11  N   UNL     1       3.937  -1.615   3.448  0.00  0.00    -0.311 N 
ATOM     12  C   UNL     1       4.104  -0.324   3.102  0.00  0.00    +0.212 C 
ATOM     13  O   UNL     1       5.139   0.248   3.373  0.00  0.00    -0.276 OA
ATOM     14  H   UNL     1       3.109  -2.072   3.231  0.00  0.00    +0.149 HD
BRANCH  11  15
ATOM     15  C   UNL     1       5.005  -2.329   4.153  0.00  0.00    +0.142 C 
BRANCH  15  20
ATOM     16  C   UNL     1       3.338  -7.769   5.178  0.00  0.00    +0.047 C 
ATOM     17  C   UNL     1       3.771  -6.351   4.912  0.00  0.00    -0.012 A 
ATOM     18  C   UNL     1       4.691  -6.085   3.915  0.00  0.00    +0.006 A 
ATOM     19  C   UNL     1       5.089  -4.784   3.670  0.00  0.00    +0.008 A 
ATOM     20  C   UNL     1       4.569  -3.747   4.421  0.00  0.00    +0.008 A 
ATOM     21  C   UNL     1       3.653  -4.011   5.424  0.00  0.00    +0.163 A 
ATOM     22  C   UNL     1       3.249  -5.315   5.667  0.00  0.00    +0.162 A 
ATOM     23  F   UNL     1       2.351  -5.575   6.642  0.00  0.00    -0.202 F 
ATOM     24  F   UNL     1       3.149  -2.998   6.163  0.00  0.00    -0.202 F 
ENDBRANCH  15  20
ENDBRANCH  11  15
ENDBRANCH  10  12
ENDBRANCH   1  10
BRANCH   8  25
ATOM     25  C   UNL     1       1.413   2.878   2.455  0.00  0.00    -0.038 C 
BRANCH  25  26
ATOM     26  C   UNL     1       0.192   3.506   1.835  0.00  0.00    -0.019 A 
ATOM     27  C   UNL     1       0.026   4.878   1.870  0.00  0.00    +0.005 A 
ATOM     28  C   UNL     1      -1.096   5.456   1.307  0.00  0.00    +0.004 A 
ATOM     29  C   UNL     1      -2.055   4.665   0.701  0.00  0.00    +0.049 A 
ATOM     30  C   UNL     1      -1.893   3.290   0.658  0.00  0.00    +0.162 A 
ATOM     31  C   UNL     1      -0.762   2.708   1.224  0.00  0.00    +0.163 A 
BRANCH  31  32
ATOM     32  O   UNL     1      -0.598   1.359   1.184  0.00  0.00    -0.491 OA
ATOM     33  C   UNL     1       0.093   0.823   0.054  0.00  0.00    +0.277 C 
ENDBRANCH  31  32
BRANCH  30  34
ATOM     34  O   UNL     1      -2.835   2.511   0.062  0.00  0.00    -0.491 OA
ATOM     35  C   UNL     1      -3.968   3.177  -0.498  0.00  0.00    +0.277 C 
ENDBRANCH  30  34
ENDBRANCH  25  26
ENDBRANCH   8  25
TORSDOF 8
