REMARK  Name = ZINC36869593
REMARK  4 active torsions:
REMARK  status: ('A' for Active; 'I' for Inactive)
REMARK    1  A    between atoms: C_1  and  N_2
REMARK    2  A    between atoms: N_2  and  C_3
REMARK    3  A    between atoms: N_2  and  C_14
REMARK    4  A    between atoms: C_8  and  N_9
REMARK                            x       y       z     vdW  Elec       q    Type
REMARK                         _______ _______ _______ _____ _____    ______ ____
ROOT
ATOM      1  C   UNL     1       0.023  -0.711   1.211  0.00  0.00    +0.052 A 
ATOM      2  C   UNL     1      -1.166  -1.080   1.815  0.00  0.00    +0.048 A 
ATOM      3  C   UNL     1      -1.151  -1.783   3.018  0.00  0.00    +0.039 A 
ATOM      4  C   UNL     1       0.069  -2.105   3.598  0.00  0.00    -0.016 A 
ATOM      5  C   UNL     1       1.256  -1.740   3.000  0.00  0.00    +0.030 A 
ATOM      6  C   UNL     1       1.242  -1.045   1.800  0.00  0.00    +0.046 A 
ATOM      7  C   UNL     1      -0.249  -2.854   4.872  0.00  0.00    +0.133 C 
ATOM      8  C   UNL     1      -1.762  -2.895   4.907  0.00  0.00    +0.222 C 
ATOM      9  O   UNL     1      -2.449  -3.406   5.767  0.00  0.00    -0.275 OA
ATOM     10  N   UNL     1      -2.201  -2.259   3.808  0.00  0.00    -0.285 N 
ATOM     11  H   UNL     1      -3.139  -2.143   3.589  0.00  0.00    +0.155 HD
ENDROOT
BRANCH   6  12
ATOM     12  N   UNL     1       2.447  -0.676   1.184  0.00  0.00    -0.357 N 
ATOM     13  H   UNL     1       2.434  -0.187   0.347  0.00  0.00    +0.142 HD
ATOM     14  H   UNL     1       3.294  -0.910   1.596  0.00  0.00    +0.142 HD
ENDBRANCH   6  12
BRANCH   1  16
ATOM     15  C   UNL     1      -0.018   1.461   0.010  0.00  0.00    +0.129 C 
ATOM     16  N   UNL     1       0.002  -0.004   0.002  0.00  0.00    -0.327 N 
BRANCH  16  17
ATOM     17  C   UNL     1      -0.000  -0.730  -1.271  0.00  0.00    +0.096 C 
ATOM     18  C   UNL     1      -1.263  -0.360  -2.067  0.00  0.00    +0.046 C 
ATOM     19  C   UNL     1      -1.090  -0.886  -3.520  0.00  0.00    +0.168 C 
ATOM     20  S   UNL     1       0.681  -0.474  -3.820  0.00  0.00    -0.029 S 
ATOM     21  O   UNL     1       1.315  -1.582  -4.443  0.00  0.00    -0.174 OA
ATOM     22  O   UNL     1       0.760   0.809  -4.426  0.00  0.00    -0.174 OA
ATOM     23  C   UNL     1       1.263  -0.350  -2.081  0.00  0.00    +0.188 C 
ENDBRANCH  16  17
ENDBRANCH   1  16
TORSDOF 3
