REMARK  Name = ZINC59992961
REMARK  12 active torsions:
REMARK  status: ('A' for Active; 'I' for Inactive)
REMARK    1  A    between atoms: C_1  and  C_2
REMARK    2  A    between atoms: C_5  and  C_28
REMARK    3  A    between atoms: N_8  and  C_10
REMARK    4  A    between atoms: C_10  and  C_11
REMARK    5  A    between atoms: C_10  and  C_12
REMARK    6  A    between atoms: C_10  and  C_13
REMARK    7  A    between atoms: C_13  and  N_14
REMARK    8  A    between atoms: N_17  and  C_18
REMARK    9  A    between atoms: C_18  and  C_19
REMARK   10  A    between atoms: C_19  and  C_20
REMARK   11  A    between atoms: C_20  and  N_21
REMARK   12  A    between atoms: N_21  and  C_22
REMARK                            x       y       z     vdW  Elec       q    Type
REMARK                         _______ _______ _______ _____ _____    ______ ____
ROOT
ATOM      1  N   UNL     1       2.801  -0.371   2.305  0.00  0.00    -0.301 N 
ATOM      2  C   UNL     1       3.883   0.403   2.090  0.00  0.00    +0.300 C 
ATOM      3  O   UNL     1       4.956  -0.108   1.836  0.00  0.00    -0.253 OA
ATOM      4  N   UNL     1       3.775   1.745   2.157  0.00  0.00    -0.299 N 
ATOM      5  H   UNL     1       1.945   0.037   2.508  0.00  0.00    +0.150 HD
ATOM      6  H   UNL     1       2.919   2.153   2.360  0.00  0.00    +0.150 HD
ENDROOT
BRANCH   1   7
ATOM      7  C   UNL     1       2.918  -1.830   2.232  0.00  0.00    +0.093 C 
BRANCH   7   8
ATOM      8  C   UNL     1       1.589  -2.469   2.639  0.00  0.00    -0.055 C 
ATOM      9  C   UNL     1       1.737  -3.992   2.646  0.00  0.00    -0.008 C 
ATOM     10  C   UNL     1       0.503  -2.067   1.640  0.00  0.00    -0.008 C 
BRANCH   8  16
ATOM     11  C   UNL     1       3.028  -2.192   7.310  0.00  0.00    +0.005 C 
ATOM     12  C   UNL     1       1.925  -1.815   6.319  0.00  0.00    -0.031 C 
ATOM     13  C   UNL     1       0.595  -2.417   6.782  0.00  0.00    +0.003 C 
ATOM     14  C   UNL     1      -0.486  -2.101   5.745  0.00  0.00    -0.031 C 
ATOM     15  C   UNL     1      -0.049  -2.640   4.381  0.00  0.00    -0.075 C 
ATOM     16  N   UNL     1       1.214  -2.007   3.982  0.00  0.00    +0.384 N 
ATOM     17  C   UNL     1       2.273  -2.364   4.934  0.00  0.00    -0.075 C 
ATOM     18  C   UNL     1      -0.682  -0.586   5.657  0.00  0.00    +0.005 C 
ATOM     19  H   UNL     1       1.098  -1.005   3.971  0.00  0.00    -0.081 HD
ENDBRANCH   8  16
ENDBRANCH   7   8
ENDBRANCH   1   7
BRANCH   4  20
ATOM     20  C   UNL     1       4.951   2.587   1.923  0.00  0.00    +0.104 C 
BRANCH  20  21
ATOM     21  C   UNL     1       4.559   4.060   2.058  0.00  0.00    -0.000 C 
BRANCH  21  22
ATOM     22  C   UNL     1       5.787   4.939   1.814  0.00  0.00    -0.081 C 
BRANCH  22  23
ATOM     23  N   UNL     1       5.410   6.353   1.942  0.00  0.00    +0.381 N 
ATOM     24  H   UNL     1       4.697   6.574   1.263  0.00  0.00    -0.086 HD
ATOM     25  H   UNL     1       5.053   6.523   2.871  0.00  0.00    -0.086 HD
BRANCH  23  26
ATOM     26  C   UNL     1       6.589   7.197   1.708  0.00  0.00    -0.072 C 
ATOM     27  C   UNL     1       7.620   6.951   2.812  0.00  0.00    -0.016 C 
ATOM     28  C   UNL     1       8.848   7.830   2.568  0.00  0.00    -0.002 C 
ATOM     29  C   UNL     1       8.431   9.303   2.578  0.00  0.00    -0.000 C 
ATOM     30  C   UNL     1       7.401   9.549   1.475  0.00  0.00    -0.002 C 
ATOM     31  C   UNL     1       6.172   8.669   1.719  0.00  0.00    -0.016 C 
ENDBRANCH  23  26
ENDBRANCH  22  23
ENDBRANCH  21  22
ENDBRANCH  20  21
ENDBRANCH   4  20
TORSDOF 8
