REMARK  Name = ZINC61636262
REMARK  9 active torsions:
REMARK  status: ('A' for Active; 'I' for Inactive)
REMARK    1  A    between atoms: C_1  and  C_2
REMARK    2  A    between atoms: C_2  and  C_3
REMARK    3  A    between atoms: C_3  and  C_4
REMARK    4  A    between atoms: C_3  and  C_5
REMARK    5  A    between atoms: C_5  and  C_6
REMARK    6  A    between atoms: C_5  and  N_25
REMARK    7  A    between atoms: N_8  and  C_9
REMARK    8  A    between atoms: C_9  and  C_10
REMARK    9  A    between atoms: C_13  and  N_16
REMARK                            x       y       z     vdW  Elec       q    Type
REMARK                         _______ _______ _______ _____ _____    ______ ____
ROOT
ATOM      1  C   UNL     1      -2.395   1.214   1.607  0.00  0.00    +0.234 C 
ATOM      2  O   UNL     1      -3.525   1.647   1.687  0.00  0.00    -0.274 OA
ATOM      3  N   UNL     1      -1.345   2.058   1.650  0.00  0.00    -0.310 N 
ATOM      4  H   UNL     1      -0.446   1.721   1.509  0.00  0.00    +0.149 HD
ENDROOT
BRANCH   1   5
ATOM      5  C   UNL     1      -2.165  -0.268   1.458  0.00  0.00    +0.163 C 
BRANCH   5   6
ATOM      6  N   UNL     1      -3.368  -0.993   1.874  0.00  0.00    -0.288 N 
ATOM      7  C   UNL     1      -3.272  -2.264   2.311  0.00  0.00    +0.298 C 
ATOM      8  O   UNL     1      -2.186  -2.810   2.360  0.00  0.00    -0.253 OA
ATOM      9  N   UNL     1      -4.378  -2.931   2.694  0.00  0.00    -0.313 N 
ATOM     10  H   UNL     1      -4.234  -0.558   1.835  0.00  0.00    +0.151 HD
ATOM     11  H   UNL     1      -5.245  -2.496   2.655  0.00  0.00    +0.146 HD
ATOM     12  H   UNL     1      -4.309  -3.846   3.009  0.00  0.00    +0.146 HD
ENDBRANCH   5   6
BRANCH   5  13
ATOM     13  C   UNL     1      -1.854  -0.592  -0.004  0.00  0.00    +0.015 C 
ATOM     14  C   UNL     1      -3.095  -0.330  -0.859  0.00  0.00    +0.010 C 
BRANCH  13  16
ATOM     15  C   UNL     1      -0.131  -2.294   0.609  0.00  0.00    +0.004 C 
ATOM     16  C   UNL     1      -1.452  -2.064  -0.126  0.00  0.00    +0.002 C 
ENDBRANCH  13  16
ENDBRANCH   5  13
ENDBRANCH   1   5
BRANCH   3  17
ATOM     17  C   UNL     1      -1.561   3.483   1.909  0.00  0.00    +0.139 C 
BRANCH  17  18
ATOM     18  C   UNL     1      -0.236   4.201   1.905  0.00  0.00    -0.030 A 
ATOM     19  C   UNL     1       0.483   4.328   3.079  0.00  0.00    +0.007 A 
ATOM     20  C   UNL     1       1.698   4.985   3.079  0.00  0.00    +0.026 A 
ATOM     21  C   UNL     1       2.196   5.520   1.899  0.00  0.00    +0.048 A 
ATOM     22  C   UNL     1       1.472   5.391   0.721  0.00  0.00    +0.026 A 
ATOM     23  C   UNL     1       0.260   4.727   0.727  0.00  0.00    +0.007 A 
BRANCH  21  24
ATOM     24  N   UNL     1       3.428   6.188   1.895  0.00  0.00    -0.299 N 
ATOM     25  C   UNL     1       3.814   7.176   2.751  0.00  0.00    +0.205 A 
ATOM     26  N   UNL     1       5.019   7.570   2.463  0.00  0.00    -0.235 NA
ATOM     27  C   UNL     1       5.491   6.865   1.403  0.00  0.00    +0.089 A 
ATOM     28  C   UNL     1       4.480   5.964   1.027  0.00  0.00    +0.073 A 
ATOM     29  C   UNL     1       4.684   5.099  -0.038  0.00  0.00    +0.028 A 
ATOM     30  C   UNL     1       5.881   5.123  -0.722  0.00  0.00    +0.002 A 
ATOM     31  C   UNL     1       6.884   6.008  -0.353  0.00  0.00    +0.002 A 
ATOM     32  C   UNL     1       6.696   6.879   0.696  0.00  0.00    +0.030 A 
ENDBRANCH  21  24
ENDBRANCH  17  18
ENDBRANCH   3  17
TORSDOF 7
