REMARK  Name = ZINC44714622
REMARK  7 active torsions:
REMARK  status: ('A' for Active; 'I' for Inactive)
REMARK    1  A    between atoms: C_1  and  C_2
REMARK    2  A    between atoms: C_3  and  C_14
REMARK    3  A    between atoms: C_6  and  C_12
REMARK    4  A    between atoms: C_14  and  C_15
REMARK    5  A    between atoms: C_15  and  N_16
REMARK    6  A    between atoms: C_17  and  C_19
REMARK    7  A    between atoms: C_30  and  C_32
REMARK                            x       y       z     vdW  Elec       q    Type
REMARK                         _______ _______ _______ _____ _____    ______ ____
ROOT
ATOM      1  C   UNL     1       2.537   1.613  -6.690  0.00  0.00    +0.100 C 
ATOM      2  C   UNL     1       1.985   0.389  -7.455  0.00  0.00    +0.121 C 
ATOM      3  N   UNL     1       2.826   0.298  -8.672  0.00  0.00    -0.296 N 
ATOM      4  C   UNL     1       4.193   0.628  -8.201  0.00  0.00    +0.115 C 
ATOM      5  C   UNL     1       3.986   1.766  -7.181  0.00  0.00    -0.004 C 
ATOM      6  C   UNL     1       4.958   1.612  -6.015  0.00  0.00    -0.010 C 
ATOM      7  C   UNL     1       6.388   1.826  -6.518  0.00  0.00    -0.082 C 
ATOM      8  N   UNL     1       6.507   3.166  -7.106  0.00  0.00    +0.379 N 
ATOM      9  C   UNL     1       5.637   3.274  -8.284  0.00  0.00    -0.082 C 
ATOM     10  C   UNL     1       4.175   3.121  -7.856  0.00  0.00    -0.010 C 
ATOM     11  C   UNL     1       2.437  -0.013  -9.924  0.00  0.00    +0.248 C 
ATOM     12  O   UNL     1       3.267  -0.139 -10.806  0.00  0.00    -0.270 OA
ATOM     13  H   UNL     1       6.235   3.857  -6.424  0.00  0.00    -0.086 HD
ATOM     14  H   UNL     1       7.465   3.327  -7.381  0.00  0.00    -0.086 HD
ENDROOT
BRANCH  11  15
ATOM     15  C   UNL     1       1.013  -0.201 -10.225  0.00  0.00    +0.052 A 
ATOM     16  C   UNL     1       0.169  -0.743  -9.309  0.00  0.00    +0.059 A 
ATOM     17  S   UNL     1      -1.335  -0.774 -10.051  0.00  0.00    -0.096 S 
ATOM     18  C   UNL     1      -0.924  -0.066 -11.622  0.00  0.00    +0.020 A 
ATOM     19  C   UNL     1       0.455   0.198 -11.520  0.00  0.00    +0.001 A 
ATOM     20  C   UNL     1       1.085   0.780 -12.636  0.00  0.00    +0.010 A 
ATOM     21  C   UNL     1       0.363   1.077 -13.765  0.00  0.00    +0.001 A 
ATOM     22  C   UNL     1      -0.997   0.812 -13.838  0.00  0.00    +0.001 A 
ATOM     23  C   UNL     1      -1.639   0.231 -12.762  0.00  0.00    +0.015 A 
ENDBRANCH  11  15
BRANCH   1  25
ATOM     24  N   UNL     1       2.376   2.389  -4.347  0.00  0.00    -0.315 N 
ATOM     25  C   UNL     1       2.510   1.358  -5.205  0.00  0.00    +0.218 C 
ATOM     26  O   UNL     1       2.609   0.226  -4.782  0.00  0.00    -0.275 OA
ATOM     27  H   UNL     1       2.297   3.295  -4.685  0.00  0.00    +0.149 HD
BRANCH  24  28
ATOM     28  C   UNL     1       2.350   2.141  -2.903  0.00  0.00    +0.109 C 
BRANCH  28  29
ATOM     29  C   UNL     1       2.190   3.470  -2.161  0.00  0.00    +0.056 C 
BRANCH  29  32
ATOM     30  C   UNL     1       4.652   3.411  -0.270  0.00  0.00    +0.063 C 
ATOM     31  C   UNL     1       3.221   3.188   0.150  0.00  0.00    +0.017 A 
ATOM     32  C   UNL     1       2.163   3.215  -0.675  0.00  0.00    -0.018 A 
ATOM     33  C   UNL     1       0.977   2.950   0.143  0.00  0.00    +0.004 A 
ATOM     34  C   UNL     1      -0.385   2.852  -0.132  0.00  0.00    +0.029 A 
ATOM     35  C   UNL     1      -1.274   2.582   0.905  0.00  0.00    +0.052 A 
ATOM     36  C   UNL     1      -0.796   2.412   2.212  0.00  0.00    +0.021 A 
ATOM     37  C   UNL     1       0.537   2.508   2.484  0.00  0.00    +0.027 A 
ATOM     38  C   UNL     1       1.444   2.777   1.461  0.00  0.00    +0.047 A 
ATOM     39  N   UNL     1       2.811   2.923   1.428  0.00  0.00    -0.358 N 
ATOM     40  H   UNL     1       3.397   2.850   2.197  0.00  0.00    +0.166 HD
BRANCH  35  41
ATOM     41  C   UNL     1      -2.676   2.478   0.636  0.00  0.00    +0.099 C 
ATOM     42  N   UNL     1      -3.789   2.396   0.423  0.00  0.00    -0.191 NA
ENDBRANCH  35  41
ENDBRANCH  29  32
ENDBRANCH  28  29
ENDBRANCH  24  28
ENDBRANCH   1  25
TORSDOF 6
