REMARK  Name = ZINC14031239
REMARK  11 active torsions:
REMARK  status: ('A' for Active; 'I' for Inactive)
REMARK    1  A    between atoms: C_1  and  C_2
REMARK    2  A    between atoms: C_2  and  C_3
REMARK    3  A    between atoms: C_3  and  O_4
REMARK    4  A    between atoms: O_4  and  C_5
REMARK    5  A    between atoms: C_8  and  C_11
REMARK    6  A    between atoms: N_13  and  C_14
REMARK    7  A    between atoms: C_14  and  N_16
REMARK    8  A    between atoms: N_16  and  N_17
REMARK    9  A    between atoms: C_18  and  C_20
REMARK   10  A    between atoms: C_20  and  O_21
REMARK   11  A    between atoms: O_21  and  C_22
REMARK                            x       y       z     vdW  Elec       q    Type
REMARK                         _______ _______ _______ _____ _____    ______ ____
ROOT
ATOM      1  C   UNL     1       5.407  -4.043  -0.074  0.00  0.00    +0.153 C 
ATOM      2  S   UNL     1       6.999  -4.674  -0.093  0.00  0.00    -0.017 S 
ENDROOT
BRANCH   1   5
ATOM      3  C   UNL     1       4.547  -6.213  -0.078  0.00  0.00    +0.250 C 
ATOM      4  O   UNL     1       5.677  -6.661  -0.092  0.00  0.00    -0.270 OA
ATOM      5  N   UNL     1       4.351  -4.880  -0.069  0.00  0.00    -0.263 N 
ATOM      6  H   UNL     1       3.449  -4.522  -0.058  0.00  0.00    +0.157 HD
BRANCH   3  10
ATOM      7  C   UNL     1       1.218  -8.849  -0.061  0.00  0.00    +0.121 A 
ATOM      8  C   UNL     1       2.509  -9.363  -0.077  0.00  0.00    +0.046 A 
ATOM      9  C   UNL     1       3.591  -8.512  -0.082  0.00  0.00    +0.016 A 
ATOM     10  C   UNL     1       3.390  -7.129  -0.072  0.00  0.00    +0.037 A 
ATOM     11  C   UNL     1       2.090  -6.616  -0.051  0.00  0.00    +0.016 A 
ATOM     12  C   UNL     1       1.013  -7.474  -0.051  0.00  0.00    +0.046 A 
BRANCH   7  13
ATOM     13  O   UNL     1       0.154  -9.691  -0.056  0.00  0.00    -0.492 OA
BRANCH  13  14
ATOM     14  C   UNL     1      -1.145  -9.095  -0.040  0.00  0.00    +0.229 C 
BRANCH  14  16
ATOM     15  C   UNL     1      -3.600  -9.557  -0.019  0.00  0.00    +0.007 C 
ATOM     16  C   UNL     1      -2.210 -10.194  -0.036  0.00  0.00    +0.038 C 
ENDBRANCH  14  16
ENDBRANCH  13  14
ENDBRANCH   7  13
ENDBRANCH   3  10
ENDBRANCH   1   5
BRANCH   1  17
ATOM     17  N   UNL     1       5.211  -2.710  -0.065  0.00  0.00    -0.245 N 
ATOM     18  H   UNL     1       5.972  -2.108  -0.069  0.00  0.00    +0.172 HD
BRANCH  17  19
ATOM     19  N   UNL     1       3.909  -2.193  -0.049  0.00  0.00    -0.232 N 
ATOM     20  C   UNL     1       3.713  -0.860  -0.040  0.00  0.00    +0.267 C 
ATOM     21  O   UNL     1       4.664  -0.107  -0.044  0.00  0.00    -0.271 OA
ATOM     22  H   UNL     1       3.148  -2.795  -0.045  0.00  0.00    +0.173 HD
BRANCH  20  23
ATOM     23  C   UNL     1       2.312  -0.304  -0.023  0.00  0.00    +0.326 C 
BRANCH  23  24
ATOM     24  O   UNL     1       2.366   1.123  -0.015  0.00  0.00    -0.481 OA
BRANCH  24  25
ATOM     25  C   UNL     1       1.179   1.786   0.000  0.00  0.00    +0.140 A 
ATOM     26  C   UNL     1      -0.013   1.076   0.008  0.00  0.00    +0.048 A 
ATOM     27  C   UNL     1      -1.218   1.751   0.017  0.00  0.00    +0.023 A 
ATOM     28  C   UNL     1      -1.238   3.134   0.031  0.00  0.00    +0.043 A 
ATOM     29  C   UNL     1      -0.051   3.845   0.023  0.00  0.00    +0.043 A 
ATOM     30  C   UNL     1       1.157   3.174   0.008  0.00  0.00    +0.084 A 
ATOM     31 CL   UNL     1       2.647   4.066  -0.002  0.00  0.00    -0.080 Cl
ATOM     32 CL   UNL     1      -2.754   3.979   0.049  0.00  0.00    -0.083 Cl
ENDBRANCH  24  25
ENDBRANCH  23  24
ENDBRANCH  20  23
ENDBRANCH  17  19
ENDBRANCH   1  17
TORSDOF 10
