REMARK  Name = ZINC39607068
REMARK  7 active torsions:
REMARK  status: ('A' for Active; 'I' for Inactive)
REMARK    1  A    between atoms: C_1  and  C_2
REMARK    2  A    between atoms: C_5  and  C_9
REMARK    3  A    between atoms: C_6  and  C_8
REMARK    4  A    between atoms: C_9  and  N_10
REMARK    5  A    between atoms: C_11  and  C_13
REMARK    6  A    between atoms: C_24  and  C_26
REMARK    7  A    between atoms: C_29  and  C_34
REMARK                            x       y       z     vdW  Elec       q    Type
REMARK                         _______ _______ _______ _____ _____    ______ ____
ROOT
ATOM      1  C   UNL     1      -2.906  -6.627   0.517  0.00  0.00    +0.100 C 
ATOM      2  C   UNL     1      -3.346  -6.314   1.965  0.00  0.00    +0.121 C 
ATOM      3  N   UNL     1      -4.125  -7.502   2.384  0.00  0.00    -0.296 N 
ATOM      4  C   UNL     1      -3.384  -8.650   1.810  0.00  0.00    +0.115 C 
ATOM      5  C   UNL     1      -2.932  -8.161   0.419  0.00  0.00    -0.004 C 
ATOM      6  C   UNL     1      -3.928  -8.606  -0.647  0.00  0.00    -0.010 C 
ATOM      7  C   UNL     1      -3.895 -10.132  -0.765  0.00  0.00    -0.082 C 
ATOM      8  N   UNL     1      -2.539 -10.568  -1.121  0.00  0.00    +0.379 N 
ATOM      9  C   UNL     1      -1.602 -10.217  -0.048  0.00  0.00    -0.082 C 
ATOM     10  C   UNL     1      -1.538  -8.694   0.101  0.00  0.00    -0.010 C 
ATOM     11  C   UNL     1      -5.253  -7.532   3.122  0.00  0.00    +0.250 C 
ATOM     12  O   UNL     1      -5.798  -6.494   3.442  0.00  0.00    -0.270 OA
ATOM     13  H   UNL     1      -2.533 -11.567  -1.258  0.00  0.00    -0.086 HD
ATOM     14  H   UNL     1      -2.255 -10.112  -1.976  0.00  0.00    -0.086 HD
ENDROOT
BRANCH  11  15
ATOM     15  C   UNL     1      -5.826  -8.827   3.542  0.00  0.00    +0.075 A 
ATOM     16  C   UNL     1      -4.985  -9.897   3.859  0.00  0.00    +0.016 A 
ATOM     17  C   UNL     1      -5.525 -11.103   4.250  0.00  0.00    +0.007 A 
ATOM     18  C   UNL     1      -6.898 -11.259   4.332  0.00  0.00    -0.012 A 
ATOM     19  C   UNL     1      -7.740 -10.206   4.021  0.00  0.00    +0.162 A 
ATOM     20  C   UNL     1      -7.211  -8.986   3.631  0.00  0.00    +0.171 A 
ATOM     21  F   UNL     1      -8.032  -7.955   3.333  0.00  0.00    -0.202 F 
ATOM     22  F   UNL     1      -9.079 -10.365   4.103  0.00  0.00    -0.202 F 
ATOM     23  C   UNL     1      -7.479 -12.582   4.761  0.00  0.00    +0.047 C 
ENDBRANCH  11  15
BRANCH   1  25
ATOM     24  N   UNL     1      -1.089  -5.893  -0.993  0.00  0.00    -0.311 N 
ATOM     25  C   UNL     1      -1.512  -6.109   0.269  0.00  0.00    +0.218 C 
ATOM     26  O   UNL     1      -0.773  -5.885   1.203  0.00  0.00    -0.275 OA
ATOM     27  H   UNL     1      -1.680  -6.072  -1.740  0.00  0.00    +0.149 HD
BRANCH  24  28
ATOM     28  C   UNL     1       0.266  -5.389  -1.234  0.00  0.00    +0.139 C 
BRANCH  28  33
ATOM     29  C   UNL     1       1.115  -4.805  -6.920  0.00  0.00    +0.044 C 
ATOM     30  C   UNL     1       0.893  -4.958  -5.437  0.00  0.00    -0.050 A 
ATOM     31  C   UNL     1       1.388  -6.066  -4.775  0.00  0.00    +0.004 A 
ATOM     32  C   UNL     1       1.185  -6.205  -3.415  0.00  0.00    +0.006 A 
ATOM     33  C   UNL     1       0.488  -5.237  -2.717  0.00  0.00    -0.027 A 
ATOM     34  C   UNL     1      -0.006  -4.128  -3.379  0.00  0.00    -0.046 A 
ATOM     35  C   UNL     1       0.201  -3.987  -4.739  0.00  0.00    +0.007 A 
ATOM     36  C   UNL     1      -0.766  -3.073  -2.618  0.00  0.00    +0.044 C 
ENDBRANCH  28  33
ENDBRANCH  24  28
ENDBRANCH   1  25
TORSDOF 4
