REMARK  Name = ZINC62101456
REMARK  5 active torsions:
REMARK  status: ('A' for Active; 'I' for Inactive)
REMARK    1  A    between atoms: C_1  and  C_2
REMARK    2  A    between atoms: C_5  and  C_9
REMARK    3  A    between atoms: C_6  and  C_8
REMARK    4  A    between atoms: C_9  and  C_11
REMARK    5  A    between atoms: C_11  and  N_12
REMARK                            x       y       z     vdW  Elec       q    Type
REMARK                         _______ _______ _______ _____ _____    ______ ____
ROOT
ATOM      1  C   UNL     1       0.587  -4.179   0.229  0.00  0.00    +0.177 C 
ATOM      2  O   UNL     1       0.703  -4.685   1.325  0.00  0.00    -0.291 OA
ENDROOT
BRANCH   1   7
ATOM      3  C   UNL     1      -0.549   1.436  -0.242  0.00  0.00    +0.044 C 
ATOM      4  C   UNL     1      -0.251  -0.036  -0.118  0.00  0.00    -0.050 A 
ATOM      5  C   UNL     1       0.012  -0.782  -1.254  0.00  0.00    +0.004 A 
ATOM      6  C   UNL     1       0.286  -2.130  -1.149  0.00  0.00    +0.012 A 
ATOM      7  C   UNL     1       0.296  -2.742   0.108  0.00  0.00    +0.022 A 
ATOM      8  C   UNL     1       0.029  -1.981   1.251  0.00  0.00    -0.040 A 
ATOM      9  C   UNL     1      -0.237  -0.633   1.130  0.00  0.00    +0.007 A 
ATOM     10  C   UNL     1       0.037  -2.630   2.610  0.00  0.00    +0.044 C 
ENDBRANCH   1   7
BRANCH   1  11
ATOM     11  C   UNL     1       0.740  -5.024  -1.010  0.00  0.00    +0.164 C 
BRANCH  11  12
ATOM     12  N   UNL     1       1.024  -6.412  -0.624  0.00  0.00    -0.293 NA
ATOM     13  C   UNL     1       2.244  -6.495   0.165  0.00  0.00    +0.094 C 
ATOM     14  C   UNL     1       2.328  -7.840   0.892  0.00  0.00    +0.111 C 
ATOM     15  C   UNL     1       2.912  -8.863  -0.061  0.00  0.00    +0.214 C 
ATOM     16  O   UNL     1       4.029  -9.299   0.125  0.00  0.00    -0.276 OA
ATOM     17  N   UNL     1       2.195  -9.284  -1.107  0.00  0.00    -0.314 N 
ATOM     18  C   UNL     1       0.837  -8.761  -1.331  0.00  0.00    +0.119 C 
ATOM     19  C   UNL     1       0.946  -7.300  -1.775  0.00  0.00    +0.103 C 
ATOM     20  H   UNL     1       2.570  -9.937  -1.720  0.00  0.00    +0.149 HD
ENDBRANCH  11  12
ENDBRANCH   1  11
TORSDOF 3
