REMARK  Name = ZINC05275637
REMARK  8 active torsions:
REMARK  status: ('A' for Active; 'I' for Inactive)
REMARK    1  A    between atoms: C_1  and  C_2
REMARK    2  A    between atoms: C_17  and  C_29
REMARK    3  A    between atoms: C_22  and  C_23
REMARK    4  A    between atoms: C_22  and  O_28
REMARK    5  A    between atoms: C_23  and  N_24
REMARK    6  A    between atoms: N_24  and  C_25
REMARK    7  A    between atoms: C_25  and  C_26
REMARK    8  A    between atoms: C_26  and  O_27
REMARK                            x       y       z     vdW  Elec       q    Type
REMARK                         _______ _______ _______ _____ _____    ______ ____
ROOT
ATOM      1  C   UNL     1      -0.019   1.542   0.011  0.00  0.00    +0.012 C 
ATOM      2  C   UNL     1       0.002  -0.004   0.002  0.00  0.00    -0.026 C 
ATOM      3  C   UNL     1       0.712  -0.467  -1.264  0.00  0.00    +0.007 C 
ATOM      4  C   UNL     1       2.179  -0.038  -1.279  0.00  0.00    +0.001 C 
ATOM      5  C   UNL     1       2.885  -0.610  -0.048  0.00  0.00    +0.000 C 
ATOM      6  C   UNL     1       2.220  -0.047   1.207  0.00  0.00    +0.004 C 
ATOM      7  C   UNL     1       0.749  -0.447   1.256  0.00  0.00    -0.005 C 
ATOM      8  C   UNL     1       0.632  -1.960   1.437  0.00  0.00    +0.004 C 
ATOM      9  C   UNL     1      -0.841  -2.286   1.686  0.00  0.00    +0.004 C 
ATOM     10  C   UNL     1      -1.667  -1.916   0.455  0.00  0.00    -0.004 C 
ATOM     11  C   UNL     1      -1.448  -0.476   0.018  0.00  0.00    -0.001 C 
ATOM     12  C   UNL     1      -2.143  -0.148  -1.300  0.00  0.00    +0.005 C 
ATOM     13  C   UNL     1      -1.943  -1.200  -2.394  0.00  0.00    +0.010 C 
ATOM     14  C   UNL     1      -2.340  -2.559  -1.860  0.00  0.00    -0.002 C 
ATOM     15  C   UNL     1      -1.401  -2.878  -0.672  0.00  0.00    +0.001 C 
ATOM     16  C   UNL     1      -1.717  -4.357  -0.408  0.00  0.00    +0.007 C 
ATOM     17  C   UNL     1      -1.821  -4.945  -1.842  0.00  0.00    +0.034 C 
ATOM     18  C   UNL     1      -2.100  -3.752  -2.790  0.00  0.00    +0.057 C 
ATOM     19  C   UNL     1      -3.810  -2.559  -1.445  0.00  0.00    +0.014 C 
ENDROOT
BRANCH  18  20
ATOM     20  O   UNL     1      -0.969  -3.508  -3.627  0.00  0.00    -0.390 OA
ATOM     21  H   UNL     1      -0.769  -4.231  -4.237  0.00  0.00    +0.210 HD
ENDBRANCH  18  20
BRANCH  18  22
ATOM     22  C   UNL     1      -3.345  -4.019  -3.636  0.00  0.00    -0.047 C 
BRANCH  22  23
ATOM     23  N   UNL     1      -3.142  -5.236  -4.434  0.00  0.00    +0.382 N 
ATOM     24  H   UNL     1      -2.345  -5.112  -5.040  0.00  0.00    -0.086 HD
ATOM     25  H   UNL     1      -2.979  -6.019  -3.819  0.00  0.00    -0.086 HD
BRANCH  23  26
ATOM     26  C   UNL     1      -4.339  -5.493  -5.247  0.00  0.00    -0.054 C 
BRANCH  26  27
ATOM     27  C   UNL     1      -4.128  -6.760  -6.078  0.00  0.00    +0.137 C 
BRANCH  27  28
ATOM     28  O   UNL     1      -4.012  -7.887  -5.208  0.00  0.00    -0.397 OA
ATOM     29  H   UNL     1      -3.877  -8.727  -5.668  0.00  0.00    +0.209 HD
ENDBRANCH  27  28
ENDBRANCH  26  27
ENDBRANCH  23  26
ENDBRANCH  22  23
ENDBRANCH  18  22
TORSDOF 6
