REMARK  Name = ZINC45861285
REMARK  7 active torsions:
REMARK  status: ('A' for Active; 'I' for Inactive)
REMARK    1  A    between atoms: C_1  and  C_2
REMARK    2  A    between atoms: C_3  and  C_17
REMARK    3  A    between atoms: C_10  and  C_13
REMARK    4  A    between atoms: N_19  and  C_20
REMARK    5  A    between atoms: C_20  and  C_21
REMARK    6  A    between atoms: C_21  and  C_23
REMARK    7  A    between atoms: C_21  and  N_28
REMARK                            x       y       z     vdW  Elec       q    Type
REMARK                         _______ _______ _______ _____ _____    ______ ____
ROOT
ATOM      1  C   UNL     1      -0.356  -0.655  -2.422  0.00  0.00    +0.247 C 
ATOM      2  O   UNL     1      -0.323   0.550  -2.579  0.00  0.00    -0.270 OA
ATOM      3  N   UNL     1      -0.251  -1.476  -3.486  0.00  0.00    -0.312 N 
ATOM      4  H   UNL     1      -0.276  -2.437  -3.361  0.00  0.00    +0.149 HD
ENDROOT
BRANCH   1   7
ATOM      5  C   UNL     1      -0.623   0.995   0.245  0.00  0.00    +0.066 C 
ATOM      6  C   UNL     1      -0.627  -0.505   0.107  0.00  0.00    +0.056 A 
ATOM      7  C   UNL     1      -0.509  -1.218  -1.068  0.00  0.00    +0.077 A 
ATOM      8  C   UNL     1      -0.563  -2.591  -0.732  0.00  0.00    +0.148 A 
ATOM      9  N   UNL     1      -0.704  -2.685   0.562  0.00  0.00    -0.172 NA
ATOM     10  N   UNL     1      -0.742  -1.397   1.109  0.00  0.00    -0.218 N 
ATOM     11  C   UNL     1      -0.878  -1.090   2.466  0.00  0.00    +0.154 A 
ATOM     12  C   UNL     1      -1.485  -2.002   3.321  0.00  0.00    +0.049 A 
ATOM     13  C   UNL     1      -1.613  -1.685   4.662  0.00  0.00    +0.017 A 
ATOM     14  C   UNL     1      -1.127  -0.462   5.103  0.00  0.00    +0.073 A 
ATOM     15  C   UNL     1      -0.535   0.396   4.197  0.00  0.00    +0.125 A 
ATOM     16  N   UNL     1      -0.423   0.065   2.925  0.00  0.00    -0.236 NA
BRANCH  14  17
ATOM     17  C   UNL     1      -1.245  -0.074   6.554  0.00  0.00    +0.419 C 
ATOM     18  F   UNL     1      -0.109  -0.507   7.247  0.00  0.00    -0.166 F 
ATOM     19  F   UNL     1      -1.353   1.317   6.658  0.00  0.00    -0.166 F 
ATOM     20  F   UNL     1      -2.383  -0.672   7.106  0.00  0.00    -0.166 F 
ENDBRANCH  14  17
ENDBRANCH   1   7
BRANCH   3  21
ATOM     21  C   UNL     1      -0.098  -0.916  -4.831  0.00  0.00    +0.097 C 
BRANCH  21  22
ATOM     22  C   UNL     1       0.129  -2.050  -5.832  0.00  0.00    +0.016 C 
BRANCH  22  23
ATOM     23  N   UNL     1       1.266  -2.870  -5.394  0.00  0.00    +0.387 N 
ATOM     24  C   UNL     1       2.472  -2.037  -5.326  0.00  0.00    -0.078 C 
ATOM     25  C   UNL     1       3.641  -2.867  -4.792  0.00  0.00    -0.019 C 
ATOM     26  C   UNL     1       3.889  -4.052  -5.730  0.00  0.00    -0.004 C 
ATOM     27  C   UNL     1       2.602  -4.873  -5.852  0.00  0.00    -0.019 C 
ATOM     28  C   UNL     1       1.471  -3.968  -6.346  0.00  0.00    -0.078 C 
ATOM     29  H   UNL     1       1.071  -3.252  -4.480  0.00  0.00    -0.081 HD
ENDBRANCH  22  23
BRANCH  22  30
ATOM     30  C   UNL     1      -1.109  -2.906  -5.911  0.00  0.00    +0.093 A 
ATOM     31  C   UNL     1      -2.047  -2.846  -6.872  0.00  0.00    +0.043 A 
ATOM     32  C   UNL     1      -3.022  -3.820  -6.554  0.00  0.00    +0.041 A 
ATOM     33  C   UNL     1      -2.621  -4.416  -5.418  0.00  0.00    +0.195 A 
ATOM     34  O   UNL     1      -1.458  -3.863  -5.035  0.00  0.00    -0.469 OA
ENDBRANCH  22  30
ENDBRANCH  21  22
ENDBRANCH   3  21
TORSDOF 6
