REMARK  Name = ZINC04032923
REMARK  7 active torsions:
REMARK  status: ('A' for Active; 'I' for Inactive)
REMARK    1  A    between atoms: C_1  and  C_2
REMARK    2  A    between atoms: C_5  and  C_31
REMARK    3  A    between atoms: C_9  and  C_14
REMARK    4  A    between atoms: C_14  and  C_15
REMARK    5  A    between atoms: C_15  and  N_16
REMARK    6  A    between atoms: C_17  and  C_19
REMARK    7  A    between atoms: C_19  and  C_24
REMARK                            x       y       z     vdW  Elec       q    Type
REMARK                         _______ _______ _______ _____ _____    ______ ____
ROOT
ATOM      1  C   UNL     1      -1.328  -0.018   5.539  0.00  0.00    +0.109 C 
ENDROOT
BRANCH   1   2
ATOM      2  N   UNL     1      -1.347   0.658   6.839  0.00  0.00    -0.314 N 
ATOM      3  C   UNL     1      -2.519   0.885   7.463  0.00  0.00    +0.224 C 
ATOM      4  O   UNL     1      -3.564   0.612   6.911  0.00  0.00    -0.275 OA
ATOM      5  H   UNL     1      -0.515   0.943   7.249  0.00  0.00    +0.149 HD
BRANCH   3   6
ATOM      6  C   UNL     1      -2.532   1.477   8.849  0.00  0.00    +0.072 C 
ATOM      7  C   UNL     1      -1.703   0.601   9.805  0.00  0.00    +0.021 C 
ATOM      8  C   UNL     1      -2.668   0.115  10.906  0.00  0.00    +0.001 C 
ATOM      9  C   UNL     1      -4.068   0.199  10.249  0.00  0.00    +0.001 C 
ATOM     10  C   UNL     1      -3.972   1.493   9.403  0.00  0.00    +0.021 C 
BRANCH   6  11
ATOM     11  C   UNL     1      -1.976   2.877   8.817  0.00  0.00    -0.032 A 
ATOM     12  C   UNL     1      -1.671   3.472   7.607  0.00  0.00    +0.006 A 
ATOM     13  C   UNL     1      -1.161   4.756   7.577  0.00  0.00    +0.020 A 
ATOM     14  C   UNL     1      -0.955   5.446   8.758  0.00  0.00    +0.041 A 
ATOM     15  C   UNL     1      -1.260   4.850   9.969  0.00  0.00    +0.020 A 
ATOM     16  C   UNL     1      -1.775   3.568   9.998  0.00  0.00    +0.006 A 
ATOM     17 CL   UNL     1      -0.313   7.059   8.722  0.00  0.00    -0.084 Cl
ENDBRANCH   6  11
ENDBRANCH   3   6
ENDBRANCH   1   2
BRANCH   1  18
ATOM     18  C   UNL     1       0.117  -0.148   5.053  0.00  0.00    +0.059 C 
BRANCH  18  27
ATOM     19  C   UNL     1       0.209   1.389   0.079  0.00  0.00    +0.044 C 
ATOM     20  C   UNL     1       0.201  -0.118   0.081  0.00  0.00    -0.041 A 
ATOM     21  C   UNL     1       0.222  -0.806  -1.099  0.00  0.00    +0.004 A 
ATOM     22  C   UNL     1       0.215  -2.194  -1.107  0.00  0.00    +0.005 A 
ATOM     23  C   UNL     1       0.187  -2.905   0.074  0.00  0.00    -0.026 A 
ATOM     24  C   UNL     1       0.165  -2.226   1.287  0.00  0.00    +0.052 A 
ATOM     25  C   UNL     1       0.177  -0.818   1.292  0.00  0.00    +0.002 A 
ATOM     26  C   UNL     1       0.159  -0.112   2.575  0.00  0.00    +0.019 A 
ATOM     27  C   UNL     1       0.136  -0.844   3.716  0.00  0.00    +0.019 A 
ATOM     28  C   UNL     1       0.130  -2.254   3.657  0.00  0.00    +0.252 A 
ATOM     29  O   UNL     1       0.109  -2.892   4.695  0.00  0.00    -0.268 OA
ATOM     30  N   UNL     1       0.136  -2.911   2.483  0.00  0.00    -0.322 N 
ATOM     31  H   UNL     1       0.131  -3.881   2.479  0.00  0.00    +0.169 HD
ATOM     32  C   UNL     1       0.179  -4.412   0.050  0.00  0.00    +0.046 C 
ENDBRANCH  18  27
ENDBRANCH   1  18
TORSDOF 5
