REMARK  Name = ZINC04511934
REMARK  4 active torsions:
REMARK  status: ('A' for Active; 'I' for Inactive)
REMARK    1  A    between atoms: C_6  and  C_7
REMARK    2  A    between atoms: C_18  and  S_20
REMARK    3  A    between atoms: S_20  and  C_21
REMARK    4  A    between atoms: C_21  and  C_22
REMARK                            x       y       z     vdW  Elec       q    Type
REMARK                         _______ _______ _______ _____ _____    ______ ____
ROOT
ATOM      1  C   UNL     1       4.024   2.043  -0.026  0.00  0.00    +0.008 A 
ATOM      2  C   UNL     1       3.471   0.777  -0.027  0.00  0.00    +0.049 A 
ATOM      3  C   UNL     1       2.095   0.626  -0.015  0.00  0.00    +0.156 A 
ATOM      4  C   UNL     1       1.268   1.759  -0.001  0.00  0.00    +0.111 A 
ATOM      5  C   UNL     1       1.839   3.032   0.000  0.00  0.00    +0.035 A 
ATOM      6  C   UNL     1       3.211   3.165  -0.012  0.00  0.00    -0.039 A 
ATOM      7  N   UNL     1      -0.016   1.305   0.009  0.00  0.00    -0.203 NA
ATOM      8  C   UNL     1       0.002  -0.004   0.002  0.00  0.00    +0.258 A 
ATOM      9  O   UNL     1       1.272  -0.448  -0.013  0.00  0.00    -0.431 OA
ENDROOT
BRANCH   6  10
ATOM     10  C   UNL     1       3.830   4.539  -0.010  0.00  0.00    -0.003 C 
ATOM     11  C   UNL     1       3.394   5.293   1.247  0.00  0.00    +0.015 C 
ATOM     12  C   UNL     1       4.023   6.688   1.249  0.00  0.00    -0.010 C 
ATOM     13  C   UNL     1       5.548   6.561   1.233  0.00  0.00    +0.007 C 
ATOM     14  C   UNL     1       5.983   5.806  -0.025  0.00  0.00    -0.010 C 
ATOM     15  C   UNL     1       5.355   4.411  -0.026  0.00  0.00    +0.015 C 
ATOM     16  C   UNL     1       5.523   6.574  -1.265  0.00  0.00    +0.007 C 
ATOM     17  C   UNL     1       3.998   6.702  -1.249  0.00  0.00    -0.010 C 
ATOM     18  C   UNL     1       3.563   7.456   0.008  0.00  0.00    +0.007 C 
ATOM     19  C   UNL     1       3.370   5.307  -1.251  0.00  0.00    +0.015 C 
ENDBRANCH   6  10
BRANCH   8  20
ATOM     20  S   UNL     1      -1.428  -1.033   0.011  0.00  0.00    -0.058 S 
BRANCH  20  21
ATOM     21  C   UNL     1      -0.642  -2.664  -0.006  0.00  0.00    +0.174 C 
BRANCH  21  22
ATOM     22  C   UNL     1      -1.703  -3.733  -0.001  0.00  0.00    +0.221 C 
ATOM     23  O   UNL     1      -2.876  -3.424   0.012  0.00  0.00    -0.275 OA
ATOM     24  N   UNL     1      -1.350  -5.034  -0.012  0.00  0.00    -0.329 N 
ATOM     25  H   UNL     1      -0.412  -5.281  -0.022  0.00  0.00    +0.145 HD
ATOM     26  H   UNL     1      -2.033  -5.722  -0.009  0.00  0.00    +0.145 HD
ENDBRANCH  21  22
ENDBRANCH  20  21
ENDBRANCH   8  20
TORSDOF 4
