REMARK  Name = ZINC12881935
REMARK  6 active torsions:
REMARK  status: ('A' for Active; 'I' for Inactive)
REMARK    1  A    between atoms: C_1  and  C_2
REMARK    2  A    between atoms: C_4  and  C_37
REMARK    3  A    between atoms: C_13  and  C_15
REMARK    4  A    between atoms: C_15  and  C_16
REMARK    5  A    between atoms: N_21  and  C_24
REMARK    6  A    between atoms: C_24  and  C_25
REMARK                            x       y       z     vdW  Elec       q    Type
REMARK                         _______ _______ _______ _____ _____    ______ ____
ROOT
ATOM      1  C   UNL     1      -1.292  -0.777   0.010  0.00  0.00    +0.044 C 
ATOM      2  C   UNL     1       0.002  -0.004   0.002  0.00  0.00    -0.050 A 
ATOM      3  C   UNL     1      -0.017   1.379   0.010  0.00  0.00    +0.008 A 
ATOM      4  C   UNL     1       1.164   2.091   0.002  0.00  0.00    -0.029 A 
ATOM      5  C   UNL     1       2.386   1.423  -0.014  0.00  0.00    +0.039 A 
ATOM      6  C   UNL     1       2.393   0.031  -0.021  0.00  0.00    -0.027 A 
ATOM      7  C   UNL     1       1.211  -0.676  -0.013  0.00  0.00    +0.008 A 
ATOM      8  C   UNL     1       3.840  -0.373  -0.039  0.00  0.00    +0.050 C 
ATOM      9  C   UNL     1       4.198  -1.238   1.176  0.00  0.00    +0.088 C 
ATOM     10  C   UNL     1       4.141  -2.698   0.646  0.00  0.00    +0.073 C 
ATOM     11  C   UNL     1       3.743  -2.566  -0.840  0.00  0.00    -0.049 C 
ATOM     12  C   UNL     1       5.577  -3.159   0.739  0.00  0.00    +0.224 C 
ATOM     13  O   UNL     1       5.984  -4.254   0.413  0.00  0.00    -0.275 OA
ATOM     14  N   UNL     1       6.330  -2.171   1.236  0.00  0.00    -0.237 N 
ATOM     15  C   UNL     1       5.659  -1.049   1.519  0.00  0.00    +0.225 C 
ATOM     16  O   UNL     1       6.145  -0.039   1.979  0.00  0.00    -0.275 OA
ATOM     17  C   UNL     1       4.607   0.920  -0.040  0.00  0.00    +0.211 C 
ATOM     18  O   UNL     1       5.813   1.047  -0.053  0.00  0.00    -0.277 OA
ATOM     19  N   UNL     1       3.695   1.911  -0.024  0.00  0.00    -0.286 N 
ATOM     20  C   UNL     1       1.133   3.598   0.011  0.00  0.00    +0.045 C 
ATOM     21  H   UNL     1       3.920   2.855  -0.021  0.00  0.00    +0.155 HD
ATOM     22  N   UNL     1       4.143  -1.202  -1.193  0.00  0.00    +0.394 N 
ATOM     23  H   UNL     1       5.148  -1.168  -1.400  0.00  0.00    -0.083 HD
ATOM     24  H   UNL     1       3.614  -0.878  -2.011  0.00  0.00    -0.083 HD
ENDROOT
BRANCH  11  25
ATOM     25  C   UNL     1       4.487  -3.602  -1.684  0.00  0.00    +0.080 C 
BRANCH  25  26
ATOM     26  C   UNL     1       4.050  -3.486  -3.121  0.00  0.00    +0.209 C 
ATOM     27  O   UNL     1       3.224  -2.657  -3.439  0.00  0.00    -0.276 OA
ATOM     28  N   UNL     1       4.576  -4.305  -4.054  0.00  0.00    -0.329 N 
ATOM     29  H   UNL     1       5.237  -4.968  -3.800  0.00  0.00    +0.145 HD
ATOM     30  H   UNL     1       4.294  -4.231  -4.979  0.00  0.00    +0.145 HD
ENDBRANCH  25  26
ENDBRANCH  11  25
BRANCH  14  31
ATOM     31  C   UNL     1       7.773  -2.307   1.452  0.00  0.00    +0.151 C 
BRANCH  31  32
ATOM     32  C   UNL     1       8.510  -1.876   0.211  0.00  0.00    -0.026 A 
ATOM     33  C   UNL     1       8.809  -2.803  -0.770  0.00  0.00    +0.009 A 
ATOM     34  C   UNL     1       9.481  -2.412  -1.914  0.00  0.00    +0.050 A 
ATOM     35  C   UNL     1       9.865  -1.090  -2.074  0.00  0.00    +0.166 A 
ATOM     36  C   UNL     1       9.568  -0.158  -1.083  0.00  0.00    +0.167 A 
ATOM     37  C   UNL     1       8.890  -0.556   0.057  0.00  0.00    +0.054 A 
ATOM     38  O   UNL     1      10.047   1.060  -1.473  0.00  0.00    -0.453 OA
ATOM     39  C   UNL     1      10.278   0.947  -2.890  0.00  0.00    +0.466 C 
ATOM     40  O   UNL     1      10.530  -0.457  -3.084  0.00  0.00    -0.453 OA
ENDBRANCH  31  32
ENDBRANCH  14  31
TORSDOF 4
