REMARK  Name = ZINC04452931
REMARK  11 active torsions:
REMARK  status: ('A' for Active; 'I' for Inactive)
REMARK    1  A    between atoms: C_1  and  C_2
REMARK    2  A    between atoms: C_2  and  C_3
REMARK    3  A    between atoms: C_2  and  N_4
REMARK    4  A    between atoms: C_11  and  C_23
REMARK    5  A    between atoms: C_13  and  C_19
REMARK    6  A    between atoms: C_13  and  C_21
REMARK    7  A    between atoms: C_14  and  N_18
REMARK    8  A    between atoms: C_15  and  C_16
REMARK    9  A    between atoms: C_26  and  O_29
REMARK   10  A    between atoms: O_29  and  C_30
REMARK   11  A    between atoms: C_30  and  C_31
REMARK                            x       y       z     vdW  Elec       q    Type
REMARK                         _______ _______ _______ _____ _____    ______ ____
ROOT
ATOM      1  N   UNL     1       0.016   1.095  -0.185  0.00  0.00    -0.296 NA
ATOM      2  C   UNL     1       0.112  -0.364  -0.368  0.00  0.00    +0.112 C 
ATOM      3  C   UNL     1       0.791  -0.617  -1.691  0.00  0.00    -0.006 C 
ATOM      4  C   UNL     1       1.704   0.225  -2.139  0.00  0.00    -0.026 C 
ATOM      5  C   UNL     1       2.160   1.427  -1.362  0.00  0.00    +0.044 C 
ATOM      6  C   UNL     1       1.356   1.684  -0.108  0.00  0.00    +0.094 C 
ATOM      7  C   UNL     1       2.150   2.633  -2.303  0.00  0.00    +0.067 C 
ATOM      8  C   UNL     1       3.155   2.392  -3.430  0.00  0.00    +0.188 C 
ATOM      9  C   UNL     1       2.950   1.058  -4.080  0.00  0.00    +0.054 C 
ATOM     10  C   UNL     1       2.287   0.031  -3.490  0.00  0.00    +0.074 C 
ENDROOT
BRANCH   7  11
ATOM     11  C   UNL     1       0.770   2.809  -2.883  0.00  0.00    -0.041 A 
ATOM     12  C   UNL     1       0.418   2.140  -4.041  0.00  0.00    +0.007 A 
ATOM     13  C   UNL     1      -0.848   2.295  -4.572  0.00  0.00    +0.046 A 
ATOM     14  C   UNL     1      -1.763   3.132  -3.948  0.00  0.00    +0.121 A 
ATOM     15  C   UNL     1      -1.405   3.806  -2.789  0.00  0.00    +0.046 A 
ATOM     16  C   UNL     1      -0.140   3.643  -2.259  0.00  0.00    +0.007 A 
BRANCH  14  17
ATOM     17  O   UNL     1      -3.007   3.291  -4.472  0.00  0.00    -0.483 OA
BRANCH  17  18
ATOM     18  C   UNL     1      -3.305   2.566  -5.666  0.00  0.00    +0.324 C 
BRANCH  18  19
ATOM     19  C   UNL     1      -4.718   2.865  -6.095  0.00  0.00    +0.248 C 
ATOM     20  O   UNL     1      -5.403   3.624  -5.442  0.00  0.00    -0.272 OA
ATOM     21  N   UNL     1      -5.222   2.289  -7.205  0.00  0.00    -0.327 N 
ATOM     22  H   UNL     1      -6.254   2.507  -7.518  0.00  0.00    +0.145 HD
ATOM     23  H   UNL     1      -4.602   1.600  -7.797  0.00  0.00    +0.145 HD
ENDBRANCH  18  19
ENDBRANCH  17  18
ENDBRANCH  14  17
ENDBRANCH   7  11
BRANCH   1  25
ATOM     24  C   UNL     1      -0.162   0.737   2.231  0.00  0.00    +0.024 C 
ATOM     25  C   UNL     1      -0.773   1.425   1.009  0.00  0.00    +0.051 C 
ATOM     26  C   UNL     1      -0.768   2.941   1.221  0.00  0.00    +0.024 C 
ENDBRANCH   1  25
BRANCH   9  27
ATOM     27  N   UNL     1       3.458   0.864  -5.334  0.00  0.00    -0.358 N 
ATOM     28  H   UNL     1       3.324  -0.104  -5.838  0.00  0.00    +0.142 HD
ATOM     29  H   UNL     1       4.001   1.677  -5.839  0.00  0.00    +0.142 HD
ENDBRANCH   9  27
BRANCH  10  30
ATOM     30  C   UNL     1       2.151  -1.226  -4.164  0.00  0.00    +0.101 C 
ATOM     31  N   UNL     1       2.043  -2.222  -4.698  0.00  0.00    -0.191 NA
ENDBRANCH  10  30
BRANCH   8  32
ATOM     32  C   UNL     1       3.001   3.449  -4.444  0.00  0.00    +0.091 C 
ATOM     33  N   UNL     1       2.883   4.264  -5.226  0.00  0.00    -0.194 NA
ENDBRANCH   8  32
BRANCH   8  34
ATOM     34  C   UNL     1       4.518   2.453  -2.879  0.00  0.00    +0.091 C 
ATOM     35  N   UNL     1       5.570   2.500  -2.453  0.00  0.00    -0.194 NA
ENDBRANCH   8  34
TORSDOF 9
