REMARK  Name = ZINC12517063
REMARK  7 active torsions:
REMARK  status: ('A' for Active; 'I' for Inactive)
REMARK    1  A    between atoms: C_1  and  C_2
REMARK    2  A    between atoms: C_2  and  C_3
REMARK    3  A    between atoms: C_3  and  C_5
REMARK    4  A    between atoms: C_3  and  N_14
REMARK    5  A    between atoms: C_10  and  C_13
REMARK    6  A    between atoms: N_14  and  C_15
REMARK    7  A    between atoms: C_24  and  C_27
REMARK                            x       y       z     vdW  Elec       q    Type
REMARK                         _______ _______ _______ _____ _____    ______ ____
ROOT
ATOM      1  N   UNL     1       2.647  -4.007  -0.601  0.00  0.00    -0.333 N 
ATOM      2  H   UNL     1       1.849  -4.502  -0.847  0.00  0.00    +0.147 HD
ENDROOT
BRANCH   1   3
ATOM      3  C   UNL     1       2.555  -2.650  -0.274  0.00  0.00    +0.030 A 
ATOM      4  C   UNL     1       3.697  -1.942   0.076  0.00  0.00    +0.026 A 
ATOM      5  C   UNL     1       3.612  -0.600   0.399  0.00  0.00    +0.049 A 
ATOM      6  C   UNL     1       2.385   0.040   0.373  0.00  0.00    +0.143 A 
ATOM      7  C   UNL     1       1.237  -0.667   0.022  0.00  0.00    +0.077 A 
ATOM      8  C   UNL     1       1.323  -2.011  -0.301  0.00  0.00    +0.050 A 
ATOM      9  N   UNL     1       0.002  -0.004   0.002  0.00  0.00    -0.279 N 
ATOM     10  C   UNL     1      -0.016   1.347   0.009  0.00  0.00    +0.258 C 
ATOM     11  O   UNL     1      -1.073   1.941   0.018  0.00  0.00    -0.271 OA
ATOM     12  C   UNL     1       1.282   2.112   0.001  0.00  0.00    +0.256 C 
ATOM     13  O   UNL     1       2.287   1.361   0.688  0.00  0.00    -0.478 OA
ATOM     14  C   UNL     1       1.085   3.458   0.701  0.00  0.00    +0.062 C 
ATOM     15  H   UNL     1      -0.827  -0.507  -0.017  0.00  0.00    +0.155 HD
ENDBRANCH   1   3
BRANCH   1  16
ATOM     16  C   UNL     1       3.947  -4.681  -0.573  0.00  0.00    +0.157 C 
BRANCH  16  17
ATOM     17  C   UNL     1       3.918  -5.868  -1.501  0.00  0.00    +0.239 C 
ATOM     18  O   UNL     1       2.910  -6.126  -2.125  0.00  0.00    -0.273 OA
ATOM     19  N   UNL     1       5.012  -6.644  -1.638  0.00  0.00    -0.266 N 
ATOM     20  C   UNL     1       4.984  -7.743  -2.497  0.00  0.00    +0.168 A 
ATOM     21  C   UNL     1       3.891  -8.176  -3.293  0.00  0.00    +0.091 A 
ATOM     22  C   UNL     1       4.367  -9.267  -3.935  0.00  0.00    +0.136 A 
ATOM     23  O   UNL     1       5.633  -9.430  -3.526  0.00  0.00    -0.358 OA
ATOM     24  N   UNL     1       5.962  -8.577  -2.736  0.00  0.00    -0.063 NA
ATOM     25  C   UNL     1       3.619 -10.131  -4.918  0.00  0.00    +0.089 C 
ATOM     26  H   UNL     1       5.818  -6.438  -1.139  0.00  0.00    +0.156 HD
ENDBRANCH  16  17
BRANCH  16  28
ATOM     27  C   UNL     1       4.398  -3.941   1.770  0.00  0.00    +0.006 C 
ATOM     28  C   UNL     1       4.245  -5.155   0.851  0.00  0.00    +0.028 C 
ENDBRANCH  16  28
ENDBRANCH   1  16
TORSDOF 4
