REMARK  Name = ZINC67547128
REMARK  8 active torsions:
REMARK  status: ('A' for Active; 'I' for Inactive)
REMARK    1  A    between atoms: C_1  and  C_2
REMARK    2  A    between atoms: C_5  and  N_13
REMARK    3  A    between atoms: C_6  and  C_12
REMARK    4  A    between atoms: C_7  and  N_8
REMARK    5  A    between atoms: C_9  and  C_11
REMARK    6  A    between atoms: N_16  and  C_17
REMARK    7  A    between atoms: C_17  and  C_19
REMARK    8  A    between atoms: C_17  and  C_20
REMARK                            x       y       z     vdW  Elec       q    Type
REMARK                         _______ _______ _______ _____ _____    ______ ____
ROOT
ATOM      1  N   UNL     1      -1.159  -3.641  -0.584  0.00  0.00    -0.269 N 
ATOM      2  C   UNL     1      -0.956  -4.375  -1.696  0.00  0.00    +0.304 C 
ATOM      3  O   UNL     1      -0.189  -3.982  -2.553  0.00  0.00    -0.252 OA
ATOM      4  N   UNL     1      -1.605  -5.545  -1.858  0.00  0.00    -0.288 N 
ATOM      5  H   UNL     1      -1.726  -3.981   0.125  0.00  0.00    +0.156 HD
ATOM      6  H   UNL     1      -2.217  -5.859  -1.175  0.00  0.00    +0.151 HD
ENDROOT
BRANCH   1  11
ATOM      7  C   UNL     1       1.322   1.439  -0.060  0.00  0.00    +0.045 C 
ATOM      8  C   UNL     1       0.663   0.091  -0.198  0.00  0.00    -0.029 A 
ATOM      9  C   UNL     1       1.252  -0.890  -0.973  0.00  0.00    +0.007 A 
ATOM     10  C   UNL     1       0.651  -2.127  -1.101  0.00  0.00    +0.024 A 
ATOM     11  C   UNL     1      -0.549  -2.388  -0.452  0.00  0.00    +0.039 A 
ATOM     12  C   UNL     1      -1.143  -1.406   0.327  0.00  0.00    -0.008 A 
ATOM     13  C   UNL     1      -0.533  -0.166   0.459  0.00  0.00    +0.041 A 
ATOM     14  C   UNL     1      -2.445  -1.686   1.033  0.00  0.00    +0.047 C 
BRANCH  13  15
ATOM     15  N   UNL     1      -1.126   0.825   1.249  0.00  0.00    -0.285 N 
ATOM     16  C   UNL     1      -1.463   0.558   2.526  0.00  0.00    +0.214 C 
ATOM     17  O   UNL     1      -1.181  -0.515   3.016  0.00  0.00    -0.276 OA
ATOM     18  C   UNL     1      -2.191   1.592   3.346  0.00  0.00    +0.109 C 
ATOM     19  H   UNL     1      -1.295   1.705   0.877  0.00  0.00    +0.155 HD
ENDBRANCH  13  15
ENDBRANCH   1  11
BRANCH   4  20
ATOM     20  C   UNL     1      -1.385  -6.343  -3.067  0.00  0.00    +0.157 C 
ATOM     21  C   UNL     1      -0.148  -7.223  -2.879  0.00  0.00    +0.038 C 
BRANCH  20  22
ATOM     22  C   UNL     1      -2.588  -7.215  -3.319  0.00  0.00    +0.236 C 
ATOM     23  O   UNL     1      -3.359  -7.462  -2.416  0.00  0.00    -0.274 OA
ATOM     24  N   UNL     1      -2.808  -7.721  -4.549  0.00  0.00    -0.298 N 
ATOM     25  C   UNL     1      -1.819  -7.506  -5.606  0.00  0.00    +0.118 C 
ATOM     26  C   UNL     1      -1.198  -8.850  -6.005  0.00  0.00    +0.088 C 
ATOM     27  S   UNL     1      -2.530  -9.974  -6.526  0.00  0.00    -0.158 S 
ATOM     28  C   UNL     1      -3.677  -9.937  -5.115  0.00  0.00    +0.088 C 
ATOM     29  C   UNL     1      -4.031  -8.482  -4.809  0.00  0.00    +0.118 C 
ENDBRANCH  20  22
ENDBRANCH   4  20
TORSDOF 4
