REMARK  Name = ZINC13737416
REMARK  4 active torsions:
REMARK  status: ('A' for Active; 'I' for Inactive)
REMARK    1  A    between atoms: C_3  and  N_23
REMARK    2  A    between atoms: C_6  and  N_7
REMARK    3  A    between atoms: N_9  and  C_10
REMARK    4  A    between atoms: N_20  and  C_21
REMARK                            x       y       z     vdW  Elec       q    Type
REMARK                         _______ _______ _______ _____ _____    ______ ____
ROOT
ATOM      1  N   UNL     1      -1.106  -0.681   0.015  0.00  0.00    -0.324 N 
ATOM      2  C   UNL     1      -1.166  -2.029   0.281  0.00  0.00    +0.211 C 
ATOM      3  N   UNL     1      -2.280  -2.680   0.098  0.00  0.00    -0.248 NA
ATOM      4  N   UNL     1      -0.048  -2.692   0.744  0.00  0.00    -0.263 N 
ATOM      5  H   UNL     1      -0.282  -0.193   0.169  0.00  0.00    +0.169 HD
ATOM      6  H   UNL     1      -0.110  -3.624   1.003  0.00  0.00    +0.181 HD
ENDROOT
BRANCH   3   7
ATOM      7  C   UNL     1      -2.319  -4.132   0.288  0.00  0.00    +0.112 C 
ATOM      8  C   UNL     1      -2.904  -4.824  -0.965  0.00  0.00    +0.030 C 
ATOM      9  C   UNL     1      -4.187  -5.547  -0.452  0.00  0.00    -0.009 C 
ATOM     10  C   UNL     1      -5.194  -4.394  -0.156  0.00  0.00    +0.004 C 
ATOM     11  C   UNL     1      -4.620  -3.685   1.092  0.00  0.00    +0.006 C 
ATOM     12  C   UNL     1      -3.301  -4.503   1.441  0.00  0.00    +0.014 C 
ATOM     13  C   UNL     1      -3.736  -5.945   0.997  0.00  0.00    +0.009 C 
ENDBRANCH   3   7
BRANCH   1  19
ATOM     14  C   UNL     1      -2.464   1.323  -0.151  0.00  0.00    +0.030 A 
ATOM     15  C   UNL     1      -3.590   1.942  -0.661  0.00  0.00    +0.045 A 
ATOM     16  C   UNL     1      -4.451   1.218  -1.478  0.00  0.00    +0.116 A 
ATOM     17  N   UNL     1      -4.202  -0.049  -1.769  0.00  0.00    -0.239 NA
ATOM     18  C   UNL     1      -3.137  -0.671  -1.300  0.00  0.00    +0.138 A 
ATOM     19  C   UNL     1      -2.235  -0.012  -0.479  0.00  0.00    +0.060 A 
BRANCH  16  20
ATOM     20  N   UNL     1      -5.588   1.832  -1.996  0.00  0.00    -0.343 N 
ATOM     21  H   UNL     1      -5.776   2.760  -1.786  0.00  0.00    +0.144 HD
ATOM     22  H   UNL     1      -6.192   1.332  -2.567  0.00  0.00    +0.144 HD
ENDBRANCH  16  20
ENDBRANCH   1  19
BRANCH   4  23
ATOM     23  C   UNL     1       1.137  -2.040   0.835  0.00  0.00    +0.184 C 
ATOM     24  N   UNL     1       2.130  -1.494   0.911  0.00  0.00    -0.171 NA
ENDBRANCH   4  23
TORSDOF 4
