REMARK  Name = ZINC49778612
REMARK  11 active torsions:
REMARK  status: ('A' for Active; 'I' for Inactive)
REMARK    1  A    between atoms: C_1  and  C_2
REMARK    2  A    between atoms: C_2  and  C_4
REMARK    3  A    between atoms: C_2  and  N_12
REMARK    4  A    between atoms: C_9  and  O_10
REMARK    5  A    between atoms: O_10  and  C_11
REMARK    6  A    between atoms: N_15  and  C_16
REMARK    7  A    between atoms: N_15  and  C_17
REMARK    8  A    between atoms: C_17  and  C_19
REMARK    9  A    between atoms: C_17  and  C_20
REMARK   10  A    between atoms: C_25  and  O_26
REMARK   11  A    between atoms: O_26  and  C_27
REMARK                            x       y       z     vdW  Elec       q    Type
REMARK                         _______ _______ _______ _____ _____    ______ ____
ROOT
ATOM      1  N   UNL     1       0.983  -0.321   0.681  0.00  0.00    -0.293 N 
ATOM      2  C   UNL     1       2.289  -0.531   0.943  0.00  0.00    +0.303 C 
ATOM      3  O   UNL     1       3.124  -0.308   0.089  0.00  0.00    -0.253 OA
ATOM      4  N   UNL     1       2.668  -0.990   2.153  0.00  0.00    -0.282 N 
ATOM      5  C   UNL     1       1.661  -1.259   3.182  0.00  0.00    +0.134 C 
ATOM      6  H   UNL     1       0.317  -0.499   1.363  0.00  0.00    +0.151 HD
ENDROOT
BRANCH   1   8
ATOM      7  C   UNL     1       0.671   1.704  -0.654  0.00  0.00    +0.033 C 
ATOM      8  C   UNL     1       0.571   0.177  -0.633  0.00  0.00    +0.105 C 
BRANCH   8   9
ATOM      9  C   UNL     1      -0.852  -0.237  -0.904  0.00  0.00    +0.014 A 
ATOM     10  C   UNL     1      -1.710  -0.491   0.148  0.00  0.00    +0.009 A 
ATOM     11  C   UNL     1      -3.016  -0.872  -0.100  0.00  0.00    +0.001 A 
ATOM     12  C   UNL     1      -3.467  -0.999  -1.401  0.00  0.00    +0.004 A 
ATOM     13  C   UNL     1      -2.613  -0.746  -2.456  0.00  0.00    +0.046 A 
ATOM     14  C   UNL     1      -1.303  -0.358  -2.210  0.00  0.00    +0.125 A 
BRANCH  14  15
ATOM     15  O   UNL     1      -0.462  -0.103  -3.247  0.00  0.00    -0.495 OA
ATOM     16  C   UNL     1      -0.995  -0.249  -4.565  0.00  0.00    +0.277 C 
ENDBRANCH  14  15
ENDBRANCH   8   9
ENDBRANCH   1   8
BRANCH   4  17
ATOM     17  C   UNL     1       4.086  -1.219   2.438  0.00  0.00    +0.108 C 
ATOM     18  C   UNL     1       4.495  -0.412   3.672  0.00  0.00    +0.033 C 
BRANCH  17  19
ATOM     19  C   UNL     1       4.316  -2.685   2.697  0.00  0.00    +0.014 A 
ATOM     20  C   UNL     1       4.503  -3.137   3.990  0.00  0.00    +0.009 A 
ATOM     21  C   UNL     1       4.715  -4.482   4.228  0.00  0.00    +0.001 A 
ATOM     22  C   UNL     1       4.740  -5.379   3.175  0.00  0.00    +0.004 A 
ATOM     23  C   UNL     1       4.553  -4.931   1.882  0.00  0.00    +0.046 A 
ATOM     24  C   UNL     1       4.335  -3.583   1.640  0.00  0.00    +0.125 A 
BRANCH  24  25
ATOM     25  O   UNL     1       4.146  -3.141   0.369  0.00  0.00    -0.495 OA
ATOM     26  C   UNL     1       4.178  -4.122  -0.670  0.00  0.00    +0.277 C 
ENDBRANCH  24  25
ENDBRANCH  17  19
ENDBRANCH   4  17
TORSDOF 6
