REMARK  Name = ZINC12279683
REMARK  10 active torsions:
REMARK  status: ('A' for Active; 'I' for Inactive)
REMARK    1  A    between atoms: C_2  and  C_3
REMARK    2  A    between atoms: C_3  and  O_4
REMARK    3  A    between atoms: O_4  and  C_5
REMARK    4  A    between atoms: C_10  and  C_11
REMARK    5  A    between atoms: C_11  and  N_70
REMARK    6  A    between atoms: C_14  and  C_17
REMARK    7  A    between atoms: C_14  and  O_36
REMARK    8  A    between atoms: C_24  and  C_26
REMARK    9  A    between atoms: N_28  and  C_29
REMARK   10  A    between atoms: C_29  and  C_30
REMARK                            x       y       z     vdW  Elec       q    Type
REMARK                         _______ _______ _______ _____ _____    ______ ____
ROOT
ATOM      1  C   UNL     1     -14.929   2.283   1.792  0.00  0.00    -0.075 C 
ATOM      2  C   UNL     1     -13.399   2.322   1.789  0.00  0.00    +0.021 C 
ATOM      3  C   UNL     1     -12.888   2.009   0.380  0.00  0.00    +0.088 C 
ATOM      4  C   UNL     1     -13.482   3.019  -0.606  0.00  0.00    +0.021 C 
ATOM      5  C   UNL     1     -15.009   2.959  -0.533  0.00  0.00    -0.075 C 
ATOM      6  N   UNL     1     -15.437   3.294   0.842  0.00  0.00    +0.383 N 
ATOM      7  H   UNL     1     -15.054   4.212   1.095  0.00  0.00    -0.081 HD
ENDROOT
BRANCH   3   8
ATOM      8  C   UNL     1     -11.385   2.105   0.356  0.00  0.00    -0.015 A 
ATOM      9  C   UNL     1     -10.736   2.983   1.214  0.00  0.00    +0.010 A 
ATOM     10  C   UNL     1      -9.363   3.088   1.209  0.00  0.00    +0.047 A 
ATOM     11  C   UNL     1      -8.612   2.307   0.337  0.00  0.00    +0.136 A 
ATOM     12  C   UNL     1      -9.274   1.419  -0.530  0.00  0.00    +0.021 A 
ATOM     13  C   UNL     1     -10.668   1.328  -0.509  0.00  0.00    +0.018 A 
ATOM     14  C   UNL     1      -8.221   0.759  -1.302  0.00  0.00    +0.063 A 
ATOM     15  C   UNL     1      -7.048   1.280  -0.858  0.00  0.00    +0.190 A 
ATOM     16  O   UNL     1      -7.290   2.187   0.111  0.00  0.00    -0.450 OA
BRANCH  15  17
ATOM     17  C   UNL     1      -5.716   0.907  -1.355  0.00  0.00    +0.279 C 
ATOM     18  O   UNL     1      -5.606   0.071  -2.231  0.00  0.00    -0.267 OA
ATOM     19  N   UNL     1      -4.617   1.492  -0.839  0.00  0.00    -0.306 N 
ATOM     20  H   UNL     1      -4.704   2.158  -0.140  0.00  0.00    +0.149 HD
BRANCH  19  21
ATOM     21  C   UNL     1      -3.289   1.120  -1.334  0.00  0.00    +0.136 C 
BRANCH  21  22
ATOM     22  C   UNL     1      -2.223   1.924  -0.587  0.00  0.00    +0.135 C 
ATOM     23  C   UNL     1      -0.833   1.634  -1.185  0.00  0.00    +0.035 C 
ATOM     24  C   UNL     1      -0.013   1.086   0.008  0.00  0.00    +0.031 C 
ATOM     25  C   UNL     1      -0.810   1.621   1.224  0.00  0.00    +0.160 C 
ATOM     26  O   UNL     1      -2.186   1.524   0.793  0.00  0.00    -0.375 OA
ENDBRANCH  21  22
ENDBRANCH  19  21
ENDBRANCH  15  17
ENDBRANCH   3   8
BRANCH   3  27
ATOM     27  O   UNL     1     -13.288   0.688   0.010  0.00  0.00    -0.384 OA
ATOM     28  H   UNL     1     -12.999   0.422  -0.874  0.00  0.00    +0.211 HD
ENDBRANCH   3  27
BRANCH   6  29
ATOM     29  C   UNL     1     -16.912   3.354   0.910  0.00  0.00    -0.039 C 
BRANCH  29  35
ATOM     30  C   UNL     1     -17.560   3.610  -1.499  0.00  0.00    +0.122 A 
ATOM     31  C   UNL     1     -18.035   4.373  -2.556  0.00  0.00    +0.046 A 
ATOM     32  C   UNL     1     -18.372   5.697  -2.355  0.00  0.00    +0.004 A 
ATOM     33  C   UNL     1     -18.237   6.263  -1.100  0.00  0.00    +0.000 A 
ATOM     34  C   UNL     1     -17.770   5.504  -0.043  0.00  0.00    +0.005 A 
ATOM     35  C   UNL     1     -17.426   4.180  -0.241  0.00  0.00    -0.022 A 
BRANCH  30  36
ATOM     36  O   UNL     1     -17.228   2.307  -1.695  0.00  0.00    -0.488 OA
BRANCH  36  37
ATOM     37  C   UNL     1     -17.392   1.787  -3.016  0.00  0.00    +0.256 C 
BRANCH  37  39
ATOM     38  C   UNL     1     -17.724  -0.546  -3.654  0.00  0.00    +0.007 C 
ATOM     39  C   UNL     1     -16.977   0.339  -3.040  0.00  0.00    +0.006 C 
ENDBRANCH  37  39
ENDBRANCH  36  37
ENDBRANCH  30  36
ENDBRANCH  29  35
ENDBRANCH   6  29
TORSDOF 10
