REMARK  Name = ZINC06797586
REMARK  6 active torsions:
REMARK  status: ('A' for Active; 'I' for Inactive)
REMARK    1  A    between atoms: C_1  and  C_2
REMARK    2  A    between atoms: C_5  and  N_8
REMARK    3  A    between atoms: C_9  and  C_11
REMARK    4  A    between atoms: C_11  and  C_12
REMARK    5  A    between atoms: C_12  and  C_13
REMARK    6  A    between atoms: C_13  and  N_14
REMARK                            x       y       z     vdW  Elec       q    Type
REMARK                         _______ _______ _______ _____ _____    ______ ____
ROOT
ATOM      1  C   UNL     1      -0.747   1.602  -1.232  0.00  0.00    +0.127 C 
ENDROOT
BRANCH   1   2
ATOM      2  N   UNL     1      -0.063   1.127  -2.437  0.00  0.00    -0.290 N 
ATOM      3  C   UNL     1      -0.433  -0.087  -3.005  0.00  0.00    +0.160 A 
ATOM      4  C   UNL     1       0.209  -0.555  -4.153  0.00  0.00    +0.090 A 
ATOM      5  C   UNL     1      -0.179  -1.770  -4.703  0.00  0.00    +0.031 A 
ATOM      6  C   UNL     1      -1.197  -2.480  -4.082  0.00  0.00    +0.022 A 
ATOM      7  C   UNL     1      -1.788  -1.959  -2.948  0.00  0.00    +0.113 A 
ATOM      8  N   UNL     1      -1.401  -0.802  -2.447  0.00  0.00    -0.236 NA
ATOM      9  N   UNL     1       1.230   0.189  -4.749  0.00  0.00    -0.309 N 
ATOM     10  C   UNL     1       2.000  -0.029  -5.844  0.00  0.00    +0.092 A 
ATOM     11  C   UNL     1       2.855   1.012  -5.996  0.00  0.00    +0.020 A 
ATOM     12  C   UNL     1       2.616   1.920  -4.960  0.00  0.00    +0.033 A 
ATOM     13  C   UNL     1       1.601   1.395  -4.190  0.00  0.00    +0.112 A 
ATOM     14  C   UNL     1       0.914   1.873  -2.988  0.00  0.00    +0.277 A 
ATOM     15  O   UNL     1       1.228   2.937  -2.487  0.00  0.00    -0.265 OA
ENDBRANCH   1   2
BRANCH   1  16
ATOM     16  C   UNL     1      -0.011   1.088   0.008  0.00  0.00    +0.031 C 
BRANCH  16  17
ATOM     17  C   UNL     1      -0.725   1.585   1.267  0.00  0.00    +0.098 C 
BRANCH  17  19
ATOM     18  N   UNL     1      -0.453   1.393   3.718  0.00  0.00    -0.285 N 
ATOM     19  C   UNL     1      -0.001   1.079   2.488  0.00  0.00    +0.217 C 
ATOM     20  O   UNL     1       0.989   0.389   2.363  0.00  0.00    -0.275 OA
ATOM     21  H   UNL     1      -1.304   2.080   3.832  0.00  0.00    +0.155 HD
BRANCH  18  26
ATOM     22  C   UNL     1       2.034  -0.830   8.307  0.00  0.00    +0.044 C 
ATOM     23  C   UNL     1       1.373  -0.240   7.088  0.00  0.00    -0.050 A 
ATOM     24  C   UNL     1       2.133   0.079   5.977  0.00  0.00    +0.005 A 
ATOM     25  C   UNL     1       1.531   0.621   4.859  0.00  0.00    +0.023 A 
ATOM     26  C   UNL     1       0.160   0.845   4.850  0.00  0.00    +0.033 A 
ATOM     27  C   UNL     1      -0.599   0.529   5.969  0.00  0.00    +0.023 A 
ATOM     28  C   UNL     1       0.009  -0.018   7.082  0.00  0.00    +0.005 A 
ENDBRANCH  18  26
ENDBRANCH  17  19
ENDBRANCH  16  17
ENDBRANCH   1  16
TORSDOF 5
