REMARK  Name = ZINC43509620
REMARK  9 active torsions:
REMARK  status: ('A' for Active; 'I' for Inactive)
REMARK    1  A    between atoms: C_1  and  C_2
REMARK    2  A    between atoms: C_4  and  O_22
REMARK    3  A    between atoms: C_8  and  C_21
REMARK    4  A    between atoms: C_9  and  C_10
REMARK    5  A    between atoms: C_9  and  O_12
REMARK    6  A    between atoms: C_10  and  O_11
REMARK    7  A    between atoms: C_14  and  O_20
REMARK    8  A    between atoms: C_17  and  C_18
REMARK    9  A    between atoms: C_17  and  C_19
REMARK                            x       y       z     vdW  Elec       q    Type
REMARK                         _______ _______ _______ _____ _____    ______ ____
ROOT
ATOM      1  C   UNL     1      -0.050   1.495  -0.253  0.00  0.00    +0.042 C 
ATOM      2  C   UNL     1      -0.087  -0.009  -0.150  0.00  0.00    -0.040 C 
ATOM      3  C   UNL     1      -0.388  -0.683  -1.210  0.00  0.00    +0.006 C 
ATOM      4  C   UNL     1      -0.463  -2.187  -1.257  0.00  0.00    +0.142 C 
ATOM      5  C   UNL     1       0.214  -2.786  -0.023  0.00  0.00    +0.036 C 
ATOM      6  C   UNL     1      -0.306  -2.076   1.226  0.00  0.00    +0.011 C 
ATOM      7  C   UNL     1       0.227  -0.628   1.179  0.00  0.00    +0.115 C 
ATOM      8  C   UNL     1       0.223  -2.718   2.504  0.00  0.00    +0.041 C 
ATOM      9  C   UNL     1      -0.026  -4.219   2.544  0.00  0.00    +0.116 C 
ATOM     10  C   UNL     1       0.587  -4.896   1.331  0.00  0.00    +0.038 C 
ATOM     11  C   UNL     1       0.107  -4.296   0.011  0.00  0.00    -0.026 C 
ATOM     12  C   UNL     1      -1.303  -4.799  -0.299  0.00  0.00    +0.011 C 
ATOM     13  C   UNL     1       1.045  -4.885  -1.072  0.00  0.00    +0.011 C 
ATOM     14  C   UNL     1      -1.836  -2.007   1.260  0.00  0.00    +0.015 C 
ENDROOT
BRANCH   7  15
ATOM     15  O   UNL     1       1.639  -0.632   1.378  0.00  0.00    -0.381 OA
ATOM     16  H   UNL     1       2.040   0.248   1.371  0.00  0.00    +0.211 HD
ENDBRANCH   7  15
BRANCH   9  17
ATOM     17  O   UNL     1      -1.412  -4.519   2.674  0.00  0.00    -0.392 OA
ATOM     18  H   UNL     1      -1.609  -5.465   2.703  0.00  0.00    +0.210 HD
ENDBRANCH   9  17
BRANCH   4  19
ATOM     19  O   UNL     1       0.207  -2.601  -2.452  0.00  0.00    -0.387 OA
ATOM     20  H   UNL     1      -0.182  -2.248  -3.264  0.00  0.00    +0.210 HD
ENDBRANCH   4  19
BRANCH   7  21
ATOM     21  C   UNL     1      -0.445   0.193   2.280  0.00  0.00    +0.195 C 
BRANCH  21  22
ATOM     22  O   UNL     1      -0.099  -0.347   3.556  0.00  0.00    -0.392 OA
ATOM     23  H   UNL     1      -0.491   0.125   4.303  0.00  0.00    +0.210 HD
ENDBRANCH  21  22
ENDBRANCH   7  21
TORSDOF 5
