REMARK  Name = ZINC63376389
REMARK  10 active torsions:
REMARK  status: ('A' for Active; 'I' for Inactive)
REMARK    1  A    between atoms: N_9  and  C_14
REMARK    2  A    between atoms: C_10  and  O_13
REMARK    3  A    between atoms: C_14  and  C_15
REMARK    4  A    between atoms: C_15  and  C_16
REMARK    5  A    between atoms: C_16  and  C_17
REMARK    6  A    between atoms: C_17  and  C_18
REMARK    7  A    between atoms: C_18  and  C_19
REMARK    8  A    between atoms: N_21  and  C_22
REMARK    9  A    between atoms: C_22  and  C_23
REMARK   10  A    between atoms: C_23  and  C_24
REMARK                            x       y       z     vdW  Elec       q    Type
REMARK                         _______ _______ _______ _____ _____    ______ ____
ROOT
ATOM      1  C   UNL     1       1.967  -6.947  -2.856  0.00  0.00    +0.009 C 
ENDROOT
BRANCH   1   2
ATOM      2  C   UNL     1       2.326  -6.337  -1.500  0.00  0.00    +0.002 C 
BRANCH   2   3
ATOM      3  C   UNL     1       2.219  -4.813  -1.582  0.00  0.00    +0.019 C 
BRANCH   3   4
ATOM      4  C   UNL     1       2.578  -4.203  -0.226  0.00  0.00    +0.112 C 
BRANCH   4  13
ATOM      5  C   UNL     1      -0.017   1.375   0.010  0.00  0.00    +0.001 A 
ATOM      6  C   UNL     1       1.168   2.095   0.002  0.00  0.00    +0.002 A 
ATOM      7  C   UNL     1       2.386   1.444  -0.015  0.00  0.00    +0.024 A 
ATOM      8  C   UNL     1       2.422   0.060  -0.024  0.00  0.00    +0.042 A 
ATOM      9  C   UNL     1       1.223  -0.674  -0.013  0.00  0.00    +0.058 A 
ATOM     10  C   UNL     1       0.002  -0.004   0.002  0.00  0.00    +0.015 A 
ATOM     11  C   UNL     1       1.301  -2.146  -0.013  0.00  0.00    +0.251 C 
ATOM     12  O   UNL     1       0.318  -2.814   0.246  0.00  0.00    -0.270 OA
ATOM     13  N   UNL     1       2.475  -2.744  -0.304  0.00  0.00    -0.256 N 
ATOM     14  C   UNL     1       3.647  -1.961  -0.696  0.00  0.00    +0.299 C 
ATOM     15  N   UNL     1       3.620  -0.645  -0.047  0.00  0.00    -0.303 N 
ATOM     16  H   UNL     1       4.421  -0.275   0.357  0.00  0.00    +0.150 HD
BRANCH  14  17
ATOM     17  O   UNL     1       3.646  -1.786  -2.114  0.00  0.00    -0.359 OA
ATOM     18  H   UNL     1       4.397  -1.275  -2.448  0.00  0.00    +0.213 HD
ENDBRANCH  14  17
ENDBRANCH   4  13
ENDBRANCH   3   4
ENDBRANCH   2   3
ENDBRANCH   1   2
BRANCH   1  19
ATOM     19  C   UNL     1       2.074  -8.471  -2.774  0.00  0.00    +0.096 C 
BRANCH  19  20
ATOM     20  C   UNL     1       1.720  -9.072  -4.110  0.00  0.00    +0.213 C 
ATOM     21  O   UNL     1       1.413  -8.353  -5.036  0.00  0.00    -0.276 OA
ATOM     22  N   UNL     1       1.746 -10.410  -4.275  0.00  0.00    -0.315 N 
ATOM     23  H   UNL     1       1.992 -10.986  -3.534  0.00  0.00    +0.149 HD
BRANCH  22  24
ATOM     24  C   UNL     1       1.402 -10.994  -5.574  0.00  0.00    +0.108 C 
BRANCH  24  25
ATOM     25  C   UNL     1       1.510 -12.518  -5.492  0.00  0.00    +0.052 C 
BRANCH  25  26
ATOM     26  C   UNL     1       1.156 -13.119  -6.828  0.00  0.00    -0.040 C 
ATOM     27  C   UNL     1       2.013 -13.478  -7.811  0.00  0.00    +0.000 A 
ATOM     28  C   UNL     1       3.475 -13.418  -7.926  0.00  0.00    +0.030 A 
ATOM     29  C   UNL     1       4.063 -13.862  -9.061  0.00  0.00    +0.042 A 
ATOM     30  C   UNL     1       3.311 -14.376 -10.128  0.00  0.00    +0.022 A 
ATOM     31  C   UNL     1       1.965 -14.463 -10.095  0.00  0.00    +0.027 A 
ATOM     32  C   UNL     1       1.243 -14.026  -8.950  0.00  0.00    +0.043 A 
ATOM     33  N   UNL     1      -0.040 -14.006  -8.682  0.00  0.00    -0.380 N 
ATOM     34  C   UNL     1      -0.229 -13.449  -7.338  0.00  0.00    +0.144 C 
ATOM     35 CL   UNL     1       5.792 -13.792  -9.201  0.00  0.00    -0.084 Cl
ATOM     36  H   UNL     1      -0.746 -14.313  -9.273  0.00  0.00    +0.160 HD
ENDBRANCH  25  26
ENDBRANCH  24  25
ENDBRANCH  22  24
ENDBRANCH  19  20
ENDBRANCH   1  19
TORSDOF 10
