REMARK  Name = ZINC67499451
REMARK  7 active torsions:
REMARK  status: ('A' for Active; 'I' for Inactive)
REMARK    1  A    between atoms: C_1  and  C_2
REMARK    2  A    between atoms: C_4  and  C_7
REMARK    3  A    between atoms: C_7  and  N_8
REMARK    4  A    between atoms: C_9  and  C_11
REMARK    5  A    between atoms: C_11  and  O_12
REMARK    6  A    between atoms: O_12  and  C_13
REMARK    7  A    between atoms: C_16  and  C_19
REMARK                            x       y       z     vdW  Elec       q    Type
REMARK                         _______ _______ _______ _____ _____    ______ ____
ROOT
ATOM      1  C   UNL     1      -2.639  -5.396  -3.052  0.00  0.00    +0.324 C 
ENDROOT
BRANCH   1   3
ATOM      2  N   UNL     1      -1.691  -3.832  -1.387  0.00  0.00    -0.307 N 
ATOM      3  C   UNL     1      -2.442  -4.923  -1.635  0.00  0.00    +0.251 C 
ATOM      4  O   UNL     1      -2.959  -5.524  -0.717  0.00  0.00    -0.272 OA
ATOM      5  H   UNL     1      -1.278  -3.351  -2.121  0.00  0.00    +0.149 HD
BRANCH   2   6
ATOM      6  C   UNL     1      -1.500  -3.372  -0.010  0.00  0.00    +0.163 C 
BRANCH   6  10
ATOM      7  C   UNL     1      -0.018   1.503   0.010  0.00  0.00    +0.089 C 
ATOM      8  C   UNL     1       0.002  -0.004   0.002  0.00  0.00    +0.135 A 
ATOM      9  C   UNL     1      -1.077  -0.810   0.003  0.00  0.00    +0.072 A 
ATOM     10  C   UNL     1      -0.627  -2.143  -0.007  0.00  0.00    +0.101 A 
ATOM     11  N   UNL     1       0.676  -2.130  -0.013  0.00  0.00    -0.081 NA
ATOM     12  O   UNL     1       1.098  -0.778  -0.013  0.00  0.00    -0.360 OA
ENDBRANCH   6  10
ENDBRANCH   2   6
ENDBRANCH   1   3
BRANCH   1  13
ATOM     13  O   UNL     1      -3.467  -6.561  -3.054  0.00  0.00    -0.483 OA
BRANCH  13  14
ATOM     14  C   UNL     1      -3.744  -7.119  -4.262  0.00  0.00    +0.121 A 
ATOM     15  C   UNL     1      -3.226  -6.559  -5.421  0.00  0.00    +0.046 A 
ATOM     16  C   UNL     1      -3.509  -7.128  -6.648  0.00  0.00    +0.016 A 
ATOM     17  C   UNL     1      -4.309  -8.254  -6.721  0.00  0.00    +0.055 A 
ATOM     18  C   UNL     1      -4.827  -8.813  -5.568  0.00  0.00    +0.016 A 
ATOM     19  C   UNL     1      -4.542  -8.252  -4.338  0.00  0.00    +0.046 A 
BRANCH  17  20
ATOM     20  C   UNL     1      -4.616  -8.872  -8.061  0.00  0.00    +0.417 C 
ATOM     21  F   UNL     1      -3.643  -9.829  -8.367  0.00  0.00    -0.166 F 
ATOM     22  F   UNL     1      -5.873  -9.483  -8.015  0.00  0.00    -0.166 F 
ATOM     23  F   UNL     1      -4.617  -7.877  -9.044  0.00  0.00    -0.166 F 
ENDBRANCH  17  20
ENDBRANCH  13  14
ENDBRANCH   1  13
TORSDOF 6
