REMARK  Name = ZINC24270365
REMARK  13 active torsions:
REMARK  status: ('A' for Active; 'I' for Inactive)
REMARK    1  A    between atoms: C_1  and  C_2
REMARK    2  A    between atoms: C_5  and  C_31
REMARK    3  A    between atoms: C_6  and  O_8
REMARK    4  A    between atoms: O_8  and  C_9
REMARK    5  A    between atoms: C_9  and  C_10
REMARK    6  A    between atoms: C_13  and  S_16
REMARK    7  A    between atoms: N_14  and  N_15
REMARK    8  A    between atoms: S_16  and  C_17
REMARK    9  A    between atoms: C_17  and  C_19
REMARK   10  A    between atoms: C_17  and  C_20
REMARK   11  A    between atoms: N_22  and  C_23
REMARK   12  A    between atoms: C_31  and  C_32
REMARK   13  A    between atoms: C_31  and  C_33
REMARK                            x       y       z     vdW  Elec       q    Type
REMARK                         _______ _______ _______ _____ _____    ______ ____
ROOT
ATOM      1  C   UNL     1       1.585  -2.461  -2.179  0.00  0.00    +0.189 A 
ATOM      2  N   UNL     1       2.055  -2.233  -0.985  0.00  0.00    -0.128 NA
ATOM      3  N   UNL     1       2.340  -0.987  -0.853  0.00  0.00    -0.121 NA
ATOM      4  C   UNL     1       2.056  -0.345  -1.963  0.00  0.00    +0.209 A 
ATOM      5  N   UNL     1       1.569  -1.267  -2.845  0.00  0.00    -0.225 N 
ENDROOT
BRANCH   5   6
ATOM      6  N   UNL     1       1.151  -1.043  -4.126  0.00  0.00    -0.295 N 
ATOM      7  H   UNL     1       1.190  -0.027  -4.547  0.00  0.00    +0.163 HD
ATOM      8  H   UNL     1       0.777  -1.877  -4.737  0.00  0.00    +0.163 HD
ENDBRANCH   5   6
BRANCH   1   9
ATOM      9  C   UNL     1       1.141  -3.794  -2.724  0.00  0.00    +0.306 C 
BRANCH   9  10
ATOM     10  O   UNL     1       2.250  -4.448  -3.344  0.00  0.00    -0.484 OA
BRANCH  10  16
ATOM     11  C   UNL     1      -0.861  -8.079  -4.326  0.00  0.00    +0.044 C 
ATOM     12  C   UNL     1       0.517  -7.471  -4.389  0.00  0.00    -0.047 A 
ATOM     13  C   UNL     1       1.547  -8.158  -5.005  0.00  0.00    +0.004 A 
ATOM     14  C   UNL     1       2.812  -7.604  -5.065  0.00  0.00    +0.008 A 
ATOM     15  C   UNL     1       3.049  -6.359  -4.514  0.00  0.00    -0.003 A 
ATOM     16  C   UNL     1       2.019  -5.670  -3.891  0.00  0.00    +0.125 A 
ATOM     17  C   UNL     1       0.750  -6.229  -3.833  0.00  0.00    +0.049 A 
BRANCH  15  18
ATOM     18  C   UNL     1       4.427  -5.753  -4.586  0.00  0.00    +0.016 C 
ATOM     19  C   UNL     1       5.425  -6.671  -3.878  0.00  0.00    +0.012 C 
ATOM     20  C   UNL     1       4.836  -5.587  -6.051  0.00  0.00    +0.012 C 
ENDBRANCH  15  18
ENDBRANCH  10  16
ENDBRANCH   9  10
ENDBRANCH   1   9
BRANCH   4  21
ATOM     21  S   UNL     1       2.272   1.378  -2.261  0.00  0.00    -0.072 S 
BRANCH  21  22
ATOM     22  C   UNL     1       2.940   1.893  -0.660  0.00  0.00    +0.137 C 
ATOM     23  C   UNL     1       4.305   1.236  -0.443  0.00  0.00    +0.029 C 
BRANCH  22  24
ATOM     24  C   UNL     1       3.095   3.392  -0.638  0.00  0.00    +0.230 C 
ATOM     25  O   UNL     1       3.139   4.012  -1.680  0.00  0.00    -0.274 OA
ATOM     26  N   UNL     1       3.183   4.043   0.538  0.00  0.00    -0.280 N 
ATOM     27  H   UNL     1       3.060   3.492   1.483  0.00  0.00    +0.155 HD
BRANCH  26  28
ATOM     28  C   UNL     1       3.432   5.422   0.559  0.00  0.00    +0.105 A 
ATOM     29  C   UNL     1       4.739   5.894   0.579  0.00  0.00    +0.147 A 
ATOM     30  C   UNL     1       4.980   7.256   0.593  0.00  0.00    +0.040 A 
ATOM     31  C   UNL     1       3.923   8.148   0.599  0.00  0.00    +0.006 A 
ATOM     32  C   UNL     1       2.621   7.682   0.586  0.00  0.00    +0.040 A 
ATOM     33  C   UNL     1       2.372   6.321   0.566  0.00  0.00    +0.147 A 
ATOM     34  F   UNL     1       1.099   5.867   0.553  0.00  0.00    -0.203 F 
ATOM     35  F   UNL     1       5.772   5.024   0.578  0.00  0.00    -0.203 F 
ENDBRANCH  26  28
ENDBRANCH  22  24
ENDBRANCH  21  22
ENDBRANCH   4  21
TORSDOF 9
