REMARK  Name = ZINC03081775
REMARK  6 active torsions:
REMARK  status: ('A' for Active; 'I' for Inactive)
REMARK    1  A    between atoms: C_3  and  C_6
REMARK    2  A    between atoms: N_8  and  C_9
REMARK    3  A    between atoms: C_9  and  C_10
REMARK    4  A    between atoms: N_12  and  N_13
REMARK    5  A    between atoms: C_14  and  C_15
REMARK    6  A    between atoms: C_20  and  O_21
REMARK                            x       y       z     vdW  Elec       q    Type
REMARK                         _______ _______ _______ _____ _____    ______ ____
ROOT
ATOM      1  C   UNL     1       3.441   6.304   0.002  0.00  0.00    +0.249 C 
ATOM      2  O   UNL     1       4.496   5.707  -0.011  0.00  0.00    -0.272 OA
ATOM      3  N   UNL     1       2.279   5.621   0.009  0.00  0.00    -0.206 N 
ATOM      4  H   UNL     1       1.435   6.099   0.020  0.00  0.00    +0.177 HD
ENDROOT
BRANCH   3   5
ATOM      5  N   UNL     1       2.291   4.220   0.002  0.00  0.00    -0.188 NA
ATOM      6  C   UNL     1       1.172   3.561   0.009  0.00  0.00    +0.142 C 
BRANCH   6   7
ATOM      7  C   UNL     1       1.185   2.088   0.002  0.00  0.00    +0.037 A 
ATOM      8  C   UNL     1      -0.017   1.375   0.010  0.00  0.00    +0.027 A 
ATOM      9  C   UNL     1       0.002  -0.004   0.002  0.00  0.00    +0.014 A 
ATOM     10  C   UNL     1       1.208  -0.686  -0.013  0.00  0.00    +0.018 A 
ATOM     11  C   UNL     1       2.403   0.008  -0.020  0.00  0.00    +0.047 A 
ATOM     12  C   UNL     1       2.402   1.393  -0.013  0.00  0.00    +0.126 A 
ATOM     13  I   UNL     1      -1.800  -1.072   0.013  0.00  0.00    -0.044 I 
BRANCH  12  14
ATOM     14  O   UNL     1       3.576   2.076  -0.020  0.00  0.00    -0.506 OA
ATOM     15  H   UNL     1       3.909   2.278  -0.905  0.00  0.00    +0.292 HD
ENDBRANCH  12  14
ENDBRANCH   6   7
ENDBRANCH   3   5
BRANCH   1  16
ATOM     16  C   UNL     1       3.428   7.811   0.010  0.00  0.00    +0.202 C 
BRANCH  16  19
ATOM     17  C   UNL     1       5.040   9.639   0.004  0.00  0.00    +0.280 C 
ATOM     18  O   UNL     1       4.108  10.421   0.017  0.00  0.00    -0.267 OA
ATOM     19  N   UNL     1       4.805   8.311  -0.001  0.00  0.00    -0.300 N 
ATOM     20  H   UNL     1       5.547   7.687  -0.011  0.00  0.00    +0.150 HD
BRANCH  17  23
ATOM     21  C   UNL     1       8.199  11.468  -0.016  0.00  0.00    +0.042 A 
ATOM     22  C   UNL     1       6.796  11.451  -0.003  0.00  0.00    +0.054 A 
ATOM     23  C   UNL     1       6.418  10.139  -0.006  0.00  0.00    +0.189 A 
ATOM     24  O   UNL     1       7.536   9.383  -0.015  0.00  0.00    -0.458 OA
ATOM     25  C   UNL     1       8.612  10.181  -0.026  0.00  0.00    +0.196 A 
ENDBRANCH  17  23
ENDBRANCH  16  19
ENDBRANCH   1  16
TORSDOF 6
