REMARK  Name = ZINC36588700
REMARK  16 active torsions:
REMARK  status: ('A' for Active; 'I' for Inactive)
REMARK    1  A    between atoms: C_1  and  C_2
REMARK    2  A    between atoms: C_2  and  C_3
REMARK    3  A    between atoms: C_2  and  C_4
REMARK    4  A    between atoms: C_2  and  N_5
REMARK    5  A    between atoms: C_6  and  C_8
REMARK    6  A    between atoms: C_8  and  C_10
REMARK    7  A    between atoms: C_8  and  N_19
REMARK    8  A    between atoms: C_13  and  N_16
REMARK    9  A    between atoms: N_19  and  C_36
REMARK   10  A    between atoms: C_20  and  C_22
REMARK   11  A    between atoms: C_22  and  C_23
REMARK   12  A    between atoms: C_22  and  C_29
REMARK   13  A    between atoms: C_22  and  O_35
REMARK   14  A    between atoms: C_36  and  C_37
REMARK   15  A    between atoms: C_36  and  C_38
REMARK   16  A    between atoms: C_36  and  C_39
REMARK                            x       y       z     vdW  Elec       q    Type
REMARK                         _______ _______ _______ _____ _____    ______ ____
ROOT
ATOM      1  N   UNL     1       3.744   0.730  -1.807  0.00  0.00    -0.278 N 
ATOM      2  C   UNL     1       4.096  -0.530  -1.482  0.00  0.00    +0.258 C 
ATOM      3  O   UNL     1       3.516  -1.110  -0.589  0.00  0.00    -0.272 OA
ENDROOT
BRANCH   1   4
ATOM      4  C   UNL     1       4.699   1.603  -2.495  0.00  0.00    +0.030 C 
ATOM      5  C   UNL     1       4.459   3.054  -2.073  0.00  0.00    +0.031 C 
ATOM      6  C   UNL     1       6.125   1.192  -2.123  0.00  0.00    +0.031 C 
ATOM      7  C   UNL     1       4.510   1.474  -4.008  0.00  0.00    +0.031 C 
ENDBRANCH   1   4
BRANCH   1   8
ATOM      8  C   UNL     1       2.407   1.226  -1.473  0.00  0.00    +0.193 C 
BRANCH   8   9
ATOM      9  C   UNL     1       2.393   1.709  -0.046  0.00  0.00    -0.018 A 
ATOM     10  C   UNL     1       3.306   1.208   0.863  0.00  0.00    +0.008 A 
ATOM     11  C   UNL     1       3.293   1.651   2.172  0.00  0.00    +0.033 A 
ATOM     12  C   UNL     1       2.367   2.596   2.572  0.00  0.00    +0.126 A 
ATOM     13  C   UNL     1       1.454   3.098   1.664  0.00  0.00    +0.033 A 
ATOM     14  C   UNL     1       1.470   2.658   0.353  0.00  0.00    +0.008 A 
BRANCH  12  15
ATOM     15  N   UNL     1       2.352   3.070   3.975  0.00  0.00    +0.056 N 
ATOM     16  O   UNL     1       3.150   2.631   4.770  0.00  0.00    -0.126 OA
ATOM     17  O   UNL     1       1.542   3.897   4.325  0.00  0.00    -0.126 OA
ENDBRANCH  12  15
ENDBRANCH   8   9
BRANCH   8  19
ATOM     18  N   UNL     1       0.116   0.313  -1.293  0.00  0.00    -0.309 N 
ATOM     19  C   UNL     1       1.403   0.114  -1.637  0.00  0.00    +0.239 C 
ATOM     20  O   UNL     1       1.754  -0.959  -2.079  0.00  0.00    -0.273 OA
ATOM     21  H   UNL     1      -0.165   1.171  -0.939  0.00  0.00    +0.149 HD
BRANCH  18  23
ATOM     22  C   UNL     1      -0.433  -1.970  -0.607  0.00  0.00    +0.031 C 
ATOM     23  C   UNL     1      -0.860  -0.768  -1.452  0.00  0.00    +0.026 C 
ATOM     24  C   UNL     1      -0.931  -1.179  -2.924  0.00  0.00    +0.031 C 
ATOM     25  C   UNL     1      -2.237  -0.285  -0.991  0.00  0.00    +0.031 C 
ENDBRANCH  18  23
ENDBRANCH   8  19
ENDBRANCH   1   8
BRANCH   2  26
ATOM     26  C   UNL     1       5.212  -1.217  -2.227  0.00  0.00    +0.192 C 
BRANCH  26  27
ATOM     27  C   UNL     1       5.091  -2.708  -2.048  0.00  0.00    -0.003 A 
ATOM     28  C   UNL     1       3.844  -3.304  -2.033  0.00  0.00    +0.007 A 
ATOM     29  C   UNL     1       3.733  -4.672  -1.869  0.00  0.00    +0.000 A 
ATOM     30  C   UNL     1       4.870  -5.445  -1.720  0.00  0.00    +0.000 A 
ATOM     31  C   UNL     1       6.117  -4.849  -1.736  0.00  0.00    +0.000 A 
ATOM     32  C   UNL     1       6.228  -3.482  -1.904  0.00  0.00    +0.007 A 
ENDBRANCH  26  27
BRANCH  26  33
ATOM     33  C   UNL     1       5.120  -0.878  -3.693  0.00  0.00    -0.003 A 
ATOM     34  C   UNL     1       3.884  -0.694  -4.284  0.00  0.00    +0.007 A 
ATOM     35  C   UNL     1       3.799  -0.383  -5.628  0.00  0.00    +0.000 A 
ATOM     36  C   UNL     1       4.951  -0.256  -6.381  0.00  0.00    +0.000 A 
ATOM     37  C   UNL     1       6.187  -0.439  -5.790  0.00  0.00    +0.000 A 
ATOM     38  C   UNL     1       6.272  -0.745  -4.445  0.00  0.00    +0.007 A 
ENDBRANCH  26  33
BRANCH  26  39
ATOM     39  O   UNL     1       6.470  -0.776  -1.714  0.00  0.00    -0.371 OA
ATOM     40  H   UNL     1       6.632  -1.032  -0.796  0.00  0.00    +0.212 HD
ENDBRANCH  26  39
ENDBRANCH   2  26
TORSDOF 10
