REMARK  Name = ZINC04082980
REMARK  5 active torsions:
REMARK  status: ('A' for Active; 'I' for Inactive)
REMARK    1  A    between atoms: C_1  and  C_2
REMARK    2  A    between atoms: C_2  and  C_3
REMARK    3  A    between atoms: C_25  and  C_30
REMARK    4  A    between atoms: C_25  and  C_31
REMARK    5  A    between atoms: C_27  and  C_29
REMARK                            x       y       z     vdW  Elec       q    Type
REMARK                         _______ _______ _______ _____ _____    ______ ____
ROOT
ATOM      1  C   UNL     1       1.183   1.779   0.000  0.00  0.00    -0.047 A 
ATOM      2  C   UNL     1      -0.013   1.076   0.008  0.00  0.00    +0.009 A 
ATOM      3  C   UNL     1      -1.216   1.740   0.017  0.00  0.00    -0.023 A 
ATOM      4  C   UNL     1      -1.166   3.133   0.032  0.00  0.00    +0.043 A 
ATOM      5  C   UNL     1       0.029   3.841   0.023  0.00  0.00    -0.022 A 
ATOM      6  C   UNL     1       1.233   3.171   0.007  0.00  0.00    +0.008 A 
ATOM      7  C   UNL     1      -0.370   5.279   0.037  0.00  0.00    +0.079 C 
ATOM      8  C   UNL     1       0.146   5.976   1.268  0.00  0.00    +0.022 A 
ATOM      9  C   UNL     1       0.652   7.232   1.240  0.00  0.00    -0.021 A 
ATOM     10  C   UNL     1       1.048   7.564   2.590  0.00  0.00    +0.003 A 
ATOM     11  C   UNL     1       1.626   8.703   3.158  0.00  0.00    +0.010 A 
ATOM     12  C   UNL     1       1.873   8.667   4.508  0.00  0.00    +0.001 A 
ATOM     13  C   UNL     1       1.568   7.559   5.283  0.00  0.00    +0.002 A 
ATOM     14  C   UNL     1       0.996   6.419   4.747  0.00  0.00    +0.026 A 
ATOM     15  C   UNL     1       0.735   6.426   3.379  0.00  0.00    +0.047 A 
ATOM     16  N   UNL     1       0.190   5.490   2.547  0.00  0.00    -0.358 N 
ATOM     17  H   UNL     1      -0.119   4.613   2.821  0.00  0.00    +0.166 HD
ATOM     18  C   UNL     1       0.747   8.058  -0.018  0.00  0.00    +0.018 C 
ATOM     19  C   UNL     1      -0.163   7.424  -1.079  0.00  0.00    -0.075 C 
ATOM     20  C   UNL     1      -1.889   5.261   0.055  0.00  0.00    +0.219 C 
ATOM     21  O   UNL     1      -2.619   6.229   0.070  0.00  0.00    -0.276 OA
ATOM     22  N   UNL     1      -2.275   3.975   0.052  0.00  0.00    -0.266 N 
ATOM     23  C   UNL     1      -3.635   3.409   0.052  0.00  0.00    +0.037 C 
ATOM     24  C   UNL     1      -3.579   2.026   0.712  0.00  0.00    +0.033 C 
ATOM     25  C   UNL     1      -2.574   1.103   0.014  0.00  0.00    +0.020 C 
ATOM     26  C   UNL     1      -2.511  -0.234   0.756  0.00  0.00    +0.012 C 
ATOM     27  C   UNL     1      -4.149   3.275  -1.383  0.00  0.00    +0.032 C 
ATOM     28  C   UNL     1      -4.568   4.322   0.850  0.00  0.00    +0.032 C 
ATOM     29  N   UNL     1       0.112   5.974  -1.170  0.00  0.00    +0.395 N 
ATOM     30  H   UNL     1      -0.366   5.591  -1.994  0.00  0.00    -0.083 HD
ATOM     31  H   UNL     1       1.124   5.827  -1.262  0.00  0.00    -0.083 HD
ENDROOT
BRANCH   1  33
ATOM     32  C   UNL     1       2.902   0.753  -1.464  0.00  0.00    +0.009 C 
ATOM     33  C   UNL     1       2.478   1.007  -0.016  0.00  0.00    +0.032 C 
ENDBRANCH   1  33
TORSDOF 1
