REMARK  Name = ZINC08951753
REMARK  6 active torsions:
REMARK  status: ('A' for Active; 'I' for Inactive)
REMARK    1  A    between atoms: C_3  and  C_10
REMARK    2  A    between atoms: C_5  and  N_7
REMARK    3  A    between atoms: C_11  and  C_12
REMARK    4  A    between atoms: C_11  and  C_14
REMARK    5  A    between atoms: N_16  and  C_17
REMARK    6  A    between atoms: C_18  and  C_26
REMARK                            x       y       z     vdW  Elec       q    Type
REMARK                         _______ _______ _______ _____ _____    ______ ____
ROOT
ATOM      1  C   UNL     1      -2.534   5.236  -0.051  0.00  0.00    +0.259 C 
ATOM      2  O   UNL     1      -2.528   4.033   0.126  0.00  0.00    -0.269 OA
ATOM      3  N   UNL     1      -3.701   5.884  -0.240  0.00  0.00    -0.275 N 
ATOM      4  H   UNL     1      -3.706   6.844  -0.381  0.00  0.00    +0.156 HD
ENDROOT
BRANCH   3   5
ATOM      5  C   UNL     1      -4.893   5.179  -0.232  0.00  0.00    +0.085 A 
ATOM      6  C   UNL     1      -6.183   5.664  -0.401  0.00  0.00    +0.068 A 
ATOM      7  C   UNL     1      -7.273   4.704  -0.354  0.00  0.00    -0.023 A 
ATOM      8  C   UNL     1      -6.902   3.423  -0.135  0.00  0.00    -0.004 A 
ATOM      9  S   UNL     1      -5.138   3.479  -0.002  0.00  0.00    -0.077 S 
ATOM     10  C   UNL     1      -7.799   2.229  -0.031  0.00  0.00    +0.043 C 
ATOM     11  C   UNL     1      -9.240   2.722   0.165  0.00  0.00    +0.005 C 
ATOM     12  C   UNL     1      -9.532   3.814  -0.868  0.00  0.00    +0.005 C 
ATOM     13  C   UNL     1      -8.740   5.077  -0.527  0.00  0.00    +0.037 C 
BRANCH   6  14
ATOM     14  C   UNL     1      -6.436   7.091  -0.623  0.00  0.00    +0.244 C 
ATOM     15  O   UNL     1      -6.461   7.535  -1.756  0.00  0.00    -0.270 OA
ATOM     16  N   UNL     1      -6.641   7.910   0.427  0.00  0.00    -0.325 N 
ATOM     17  H   UNL     1      -6.621   7.556   1.330  0.00  0.00    +0.145 HD
ATOM     18  H   UNL     1      -6.809   8.854   0.280  0.00  0.00    +0.145 HD
ENDBRANCH   6  14
ENDBRANCH   3   5
BRANCH   1  20
ATOM     19  C   UNL     1      -0.069   5.311  -0.021  0.00  0.00    +0.032 C 
ATOM     20  C   UNL     1      -1.267   5.986  -0.060  0.00  0.00    +0.114 C 
BRANCH  19  23
ATOM     21  C   UNL     1      -0.785   1.877  -1.341  0.00  0.00    +0.003 A 
ATOM     22  C   UNL     1      -0.822   3.246  -1.184  0.00  0.00    +0.008 A 
ATOM     23  C   UNL     1      -0.042   3.854  -0.192  0.00  0.00    -0.021 A 
ATOM     24  C   UNL     1       0.765   3.062   0.635  0.00  0.00    +0.040 A 
ATOM     25  C   UNL     1       0.785   1.695   0.468  0.00  0.00    +0.127 A 
ATOM     26  C   UNL     1       0.011   1.102  -0.516  0.00  0.00    +0.033 A 
BRANCH  25  27
ATOM     27  N   UNL     1       1.637   0.856   1.341  0.00  0.00    +0.056 N 
ATOM     28  O   UNL     1       1.656  -0.353   1.194  0.00  0.00    -0.126 OA
ATOM     29  O   UNL     1       2.319   1.375   2.206  0.00  0.00    -0.126 OA
ENDBRANCH  25  27
ENDBRANCH  19  23
BRANCH  20  30
ATOM     30  C   UNL     1      -1.282   7.417  -0.108  0.00  0.00    +0.104 C 
ATOM     31  N   UNL     1      -1.293   8.552  -0.146  0.00  0.00    -0.191 NA
ENDBRANCH  20  30
ENDBRANCH   1  20
TORSDOF 6
