REMARK  Name = ZINC36610022
REMARK  12 active torsions:
REMARK  status: ('A' for Active; 'I' for Inactive)
REMARK    1  A    between atoms: C_1  and  C_2
REMARK    2  A    between atoms: C_2  and  C_3
REMARK    3  A    between atoms: C_2  and  C_4
REMARK    4  A    between atoms: C_2  and  N_5
REMARK    5  A    between atoms: C_6  and  C_8
REMARK    6  A    between atoms: C_8  and  C_10
REMARK    7  A    between atoms: C_8  and  N_17
REMARK    8  A    between atoms: C_13  and  O_16
REMARK    9  A    between atoms: N_17  and  C_18
REMARK   10  A    between atoms: C_24  and  C_26
REMARK   11  A    between atoms: C_27  and  O_33
REMARK   12  A    between atoms: C_31  and  O_32
REMARK                            x       y       z     vdW  Elec       q    Type
REMARK                         _______ _______ _______ _____ _____    ______ ____
ROOT
ATOM      1  N   UNL     1       4.292  -0.519  -2.790  0.00  0.00    -0.251 N 
ATOM      2  C   UNL     1       4.892  -1.352  -1.917  0.00  0.00    +0.259 C 
ATOM      3  O   UNL     1       4.249  -1.854  -1.015  0.00  0.00    -0.269 OA
ENDROOT
BRANCH   1   4
ATOM      4  C   UNL     1       5.052   0.142  -3.761  0.00  0.00    +0.038 A 
ATOM      5  C   UNL     1       5.962   1.121  -3.385  0.00  0.00    +0.023 A 
ATOM      6  C   UNL     1       6.711   1.771  -4.346  0.00  0.00    +0.002 A 
ATOM      7  C   UNL     1       6.554   1.449  -5.682  0.00  0.00    +0.000 A 
ATOM      8  C   UNL     1       5.649   0.475  -6.060  0.00  0.00    +0.002 A 
ATOM      9  C   UNL     1       4.901  -0.184  -5.103  0.00  0.00    +0.023 A 
ENDBRANCH   1   4
BRANCH   2  10
ATOM     10  C   UNL     1       6.326  -1.654  -2.055  0.00  0.00    +0.120 A 
ATOM     11  C   UNL     1       7.273  -0.949  -1.297  0.00  0.00    +0.133 A 
ATOM     12  C   UNL     1       8.620  -1.241  -1.434  0.00  0.00    +0.046 A 
ATOM     13  C   UNL     1       9.033  -2.225  -2.313  0.00  0.00    +0.007 A 
ATOM     14  C   UNL     1       8.108  -2.926  -3.065  0.00  0.00    +0.046 A 
ATOM     15  C   UNL     1       6.756  -2.654  -2.940  0.00  0.00    +0.133 A 
BRANCH  15  16
ATOM     16  O   UNL     1       5.851  -3.347  -3.675  0.00  0.00    -0.506 OA
ATOM     17  H   UNL     1       5.653  -2.948  -4.533  0.00  0.00    +0.292 HD
ENDBRANCH  15  16
BRANCH  11  18
ATOM     18  O   UNL     1       6.870   0.017  -0.433  0.00  0.00    -0.506 OA
ATOM     19  H   UNL     1       6.688  -0.305   0.460  0.00  0.00    +0.292 HD
ENDBRANCH  11  18
ENDBRANCH   2  10
BRANCH   1  20
ATOM     20  C   UNL     1       2.844  -0.306  -2.723  0.00  0.00    +0.197 C 
BRANCH  20  21
ATOM     21  C   UNL     1       2.404   0.531  -3.897  0.00  0.00    -0.018 A 
ATOM     22  C   UNL     1       2.967   1.776  -4.106  0.00  0.00    +0.009 A 
ATOM     23  C   UNL     1       2.565   2.545  -5.181  0.00  0.00    +0.046 A 
ATOM     24  C   UNL     1       1.596   2.066  -6.051  0.00  0.00    +0.117 A 
ATOM     25  C   UNL     1       1.034   0.816  -5.839  0.00  0.00    +0.046 A 
ATOM     26  C   UNL     1       1.443   0.049  -4.766  0.00  0.00    +0.009 A 
BRANCH  24  27
ATOM     27  O   UNL     1       1.199   2.821  -7.109  0.00  0.00    -0.507 OA
ATOM     28  H   UNL     1       1.714   2.671  -7.914  0.00  0.00    +0.292 HD
ENDBRANCH  24  27
ENDBRANCH  20  21
BRANCH  20  30
ATOM     29  N   UNL     1       1.218   0.712  -1.161  0.00  0.00    -0.309 N 
ATOM     30  C   UNL     1       2.501   0.408  -1.441  0.00  0.00    +0.239 C 
ATOM     31  O   UNL     1       3.380   0.709  -0.660  0.00  0.00    -0.273 OA
ATOM     32  H   UNL     1       0.516   0.472  -1.785  0.00  0.00    +0.149 HD
BRANCH  29  34
ATOM     33  C   UNL     1       1.602   2.757   0.124  0.00  0.00    +0.031 C 
ATOM     34  C   UNL     1       0.885   1.407   0.085  0.00  0.00    +0.026 C 
ATOM     35  C   UNL     1       1.331   0.557   1.277  0.00  0.00    +0.031 C 
ATOM     36  C   UNL     1      -0.627   1.629   0.156  0.00  0.00    +0.031 C 
ENDBRANCH  29  34
ENDBRANCH  20  30
ENDBRANCH   1  20
TORSDOF 9
