REMARK  Name = ZINC25261803
REMARK  10 active torsions:
REMARK  status: ('A' for Active; 'I' for Inactive)
REMARK    1  A    between atoms: C_1  and  C_2
REMARK    2  A    between atoms: C_2  and  C_3
REMARK    3  A    between atoms: C_3  and  C_5
REMARK    4  A    between atoms: C_3  and  C_6
REMARK    5  A    between atoms: C_6  and  C_8
REMARK    6  A    between atoms: C_6  and  N_25
REMARK    7  A    between atoms: N_10  and  C_11
REMARK    8  A    between atoms: C_14  and  O_17
REMARK    9  A    between atoms: O_17  and  C_18
REMARK   10  A    between atoms: C_21  and  C_24
REMARK                            x       y       z     vdW  Elec       q    Type
REMARK                         _______ _______ _______ _____ _____    ______ ____
ROOT
ATOM      1  C   UNL     1      -0.150  -0.121   0.134  0.00  0.00    +0.238 C 
ATOM      2  O   UNL     1       0.792  -0.881   0.219  0.00  0.00    -0.273 OA
ATOM      3  N   UNL     1       0.006   1.081  -0.455  0.00  0.00    -0.284 N 
ATOM      4  H   UNL     1      -0.866   1.734  -0.611  0.00  0.00    +0.155 HD
ENDROOT
BRANCH   3   5
ATOM      5  C   UNL     1       1.277   1.498  -0.870  0.00  0.00    +0.034 A 
ATOM      6  C   UNL     1       1.558   2.853  -0.991  0.00  0.00    +0.027 A 
ATOM      7  C   UNL     1       2.813   3.264  -1.395  0.00  0.00    +0.048 A 
ATOM      8  C   UNL     1       3.789   2.324  -1.692  0.00  0.00    +0.129 A 
ATOM      9  C   UNL     1       3.507   0.970  -1.576  0.00  0.00    +0.048 A 
ATOM     10  C   UNL     1       2.255   0.558  -1.167  0.00  0.00    +0.027 A 
BRANCH   8  11
ATOM     11  O   UNL     1       5.023   2.729  -2.095  0.00  0.00    -0.456 OA
BRANCH  11  12
ATOM     12  C   UNL     1       5.322   2.643  -3.417  0.00  0.00    +0.128 A 
ATOM     13  C   UNL     1       4.345   2.267  -4.328  0.00  0.00    +0.046 A 
ATOM     14  C   UNL     1       4.651   2.186  -5.673  0.00  0.00    +0.007 A 
ATOM     15  C   UNL     1       5.932   2.466  -6.110  0.00  0.00    -0.050 A 
ATOM     16  C   UNL     1       6.909   2.836  -5.204  0.00  0.00    +0.007 A 
ATOM     17  C   UNL     1       6.607   2.924  -3.858  0.00  0.00    +0.046 A 
ATOM     18  C   UNL     1       6.264   2.370  -7.577  0.00  0.00    +0.044 C 
ENDBRANCH  11  12
ENDBRANCH   8  11
ENDBRANCH   3   5
BRANCH   1  19
ATOM     19  C   UNL     1      -1.493  -0.521   0.687  0.00  0.00    +0.163 C 
BRANCH  19  20
ATOM     20  N   UNL     1      -1.548  -1.978   0.830  0.00  0.00    -0.288 N 
ATOM     21  C   UNL     1      -0.834  -2.588   1.797  0.00  0.00    +0.298 C 
ATOM     22  O   UNL     1      -0.213  -1.925   2.604  0.00  0.00    -0.253 OA
ATOM     23  N   UNL     1      -0.809  -3.934   1.868  0.00  0.00    -0.313 N 
ATOM     24  H   UNL     1      -2.173  -2.574   0.148  0.00  0.00    +0.151 HD
ATOM     25  H   UNL     1      -0.226  -4.432   2.657  0.00  0.00    +0.146 HD
ATOM     26  H   UNL     1      -1.371  -4.534   1.137  0.00  0.00    +0.146 HD
ENDBRANCH  19  20
BRANCH  19  27
ATOM     27  C   UNL     1      -1.697   0.133   2.055  0.00  0.00    +0.015 C 
ATOM     28  C   UNL     1      -2.994  -0.384   2.680  0.00  0.00    +0.010 C 
BRANCH  27  30
ATOM     29  C   UNL     1      -1.861   2.314   3.264  0.00  0.00    +0.004 C 
ATOM     30  C   UNL     1      -1.782   1.652   1.887  0.00  0.00    +0.002 C 
ENDBRANCH  27  30
ENDBRANCH  19  27
ENDBRANCH   1  19
TORSDOF 7
