REMARK  Name = ZINC14478337
REMARK  6 active torsions:
REMARK  status: ('A' for Active; 'I' for Inactive)
REMARK    1  A    between atoms: C_4  and  N_34
REMARK    2  A    between atoms: C_5  and  C_7
REMARK    3  A    between atoms: C_18  and  S_23
REMARK    4  A    between atoms: S_23  and  N_26
REMARK    5  A    between atoms: N_26  and  C_27
REMARK    6  A    between atoms: C_27  and  C_28
REMARK                            x       y       z     vdW  Elec       q    Type
REMARK                         _______ _______ _______ _____ _____    ______ ____
ROOT
ATOM      1  C   UNL     1      -6.969  -0.406   7.185  0.00  0.00    +0.107 C 
ATOM      2  C   UNL     1      -5.998  -1.372   7.870  0.00  0.00    +0.029 C 
ATOM      3  C   UNL     1      -6.594  -1.717   9.266  0.00  0.00    +0.033 C 
ATOM      4  C   UNL     1      -6.171  -0.543  10.128  0.00  0.00    -0.030 C 
ATOM      5  C   UNL     1      -5.136   0.065   9.601  0.00  0.00    -0.023 C 
ATOM      6  C   UNL     1      -4.731  -0.614   8.315  0.00  0.00    +0.049 C 
ATOM      7  C   UNL     1      -4.256   0.375   7.299  0.00  0.00    -0.018 A 
ATOM      8  C   UNL     1      -2.997   0.938   7.455  0.00  0.00    +0.034 A 
ATOM      9  C   UNL     1      -2.518   1.851   6.537  0.00  0.00    +0.106 A 
ATOM     10  C   UNL     1      -3.291   2.220   5.452  0.00  0.00    +0.030 A 
ATOM     11  C   UNL     1      -4.544   1.665   5.284  0.00  0.00    +0.025 A 
ATOM     12  C   UNL     1      -5.027   0.747   6.208  0.00  0.00    +0.031 A 
ATOM     13  N   UNL     1      -6.301   0.199   6.028  0.00  0.00    -0.336 N 
ATOM     14  H   UNL     1      -6.732   0.218   5.159  0.00  0.00    +0.147 HD
ENDROOT
BRANCH   1  19
ATOM     15  C   UNL     1      -6.954   2.781   9.209  0.00  0.00    +0.000 A 
ATOM     16  C   UNL     1      -8.127   2.656   9.929  0.00  0.00    +0.002 A 
ATOM     17  C   UNL     1      -8.925   1.540   9.762  0.00  0.00    +0.033 A 
ATOM     18  C   UNL     1      -8.553   0.551   8.870  0.00  0.00    +0.131 A 
ATOM     19  C   UNL     1      -7.378   0.674   8.153  0.00  0.00    +0.003 A 
ATOM     20  C   UNL     1      -6.579   1.790   8.320  0.00  0.00    +0.008 A 
BRANCH  18  21
ATOM     21  N   UNL     1      -9.410  -0.641   8.687  0.00  0.00    +0.057 N 
ATOM     22  O   UNL     1     -10.470  -0.727   9.282  0.00  0.00    -0.126 OA
ATOM     23  O   UNL     1      -9.057  -1.537   7.941  0.00  0.00    -0.126 OA
ENDBRANCH  18  21
ENDBRANCH   1  19
BRANCH   9  24
ATOM     24  S   UNL     1      -0.916   2.554   6.753  0.00  0.00    +0.058 S 
ATOM     25  O   UNL     1      -0.616   2.462   8.139  0.00  0.00    -0.153 OA
ATOM     26  O   UNL     1      -0.918   3.791   6.054  0.00  0.00    -0.153 OA
BRANCH  24  27
ATOM     27  N   UNL     1       0.160   1.569   5.969  0.00  0.00    -0.187 NA
ATOM     28  H   UNL     1       0.834   1.088   6.475  0.00  0.00    +0.148 HD
BRANCH  27  29
ATOM     29  C   UNL     1       0.095   1.425   4.513  0.00  0.00    +0.137 C 
BRANCH  29  30
ATOM     30  C   UNL     1       1.389   0.785   4.005  0.00  0.00    +0.134 C 
ATOM     31  C   UNL     1       1.401   0.734   2.456  0.00  0.00    +0.035 C 
ATOM     32  C   UNL     1       2.372  -0.440   2.178  0.00  0.00    +0.031 C 
ATOM     33  C   UNL     1       2.375  -1.246   3.491  0.00  0.00    +0.160 C 
ATOM     34  O   UNL     1       1.455  -0.607   4.392  0.00  0.00    -0.375 OA
ENDBRANCH  29  30
ENDBRANCH  27  29
ENDBRANCH  24  27
ENDBRANCH   9  24
TORSDOF 6
