REMARK  Name = ZINC42560473
REMARK  8 active torsions:
REMARK  status: ('A' for Active; 'I' for Inactive)
REMARK    1  A    between atoms: C_1  and  C_2
REMARK    2  A    between atoms: C_3  and  N_19
REMARK    3  A    between atoms: C_7  and  S_8
REMARK    4  A    between atoms: S_8  and  N_11
REMARK    5  A    between atoms: N_11  and  C_12
REMARK    6  A    between atoms: C_12  and  C_14
REMARK    7  A    between atoms: C_12  and  C_15
REMARK    8  A    between atoms: N_17  and  C_18
REMARK                            x       y       z     vdW  Elec       q    Type
REMARK                         _______ _______ _______ _____ _____    ______ ____
ROOT
ATOM      1  S   UNL     1      -0.243   0.185   3.069  0.00  0.00    +0.059 S 
ATOM      2  O   UNL     1      -1.247   1.134   3.403  0.00  0.00    -0.153 OA
ATOM      3  O   UNL     1       0.043  -0.941   3.887  0.00  0.00    -0.153 OA
ENDROOT
BRANCH   1  10
ATOM      4  C   UNL     1       1.420  -1.839   1.561  0.00  0.00    +0.047 C 
ATOM      5  C   UNL     1       0.170  -1.367   0.864  0.00  0.00    -0.004 A 
ATOM      6  C   UNL     1      -0.157  -1.865  -0.391  0.00  0.00    +0.029 A 
ATOM      7  C   UNL     1      -1.310  -1.427  -1.030  0.00  0.00    +0.023 A 
ATOM      8  C   UNL     1      -2.127  -0.498  -0.415  0.00  0.00    +0.004 A 
ATOM      9  C   UNL     1      -1.799  -0.004   0.834  0.00  0.00    +0.029 A 
ATOM     10  C   UNL     1      -0.654  -0.442   1.475  0.00  0.00    +0.110 A 
BRANCH   6  11
ATOM     11  N   UNL     1       0.672  -2.803  -1.010  0.00  0.00    -0.358 N 
ATOM     12  H   UNL     1       1.477  -3.108  -0.563  0.00  0.00    +0.142 HD
ATOM     13  H   UNL     1       0.443  -3.151  -1.886  0.00  0.00    +0.142 HD
ENDBRANCH   6  11
ENDBRANCH   1  10
BRANCH   1  14
ATOM     14  N   UNL     1       1.173   1.029   2.913  0.00  0.00    -0.178 NA
ATOM     15  H   UNL     1       1.975   0.718   3.363  0.00  0.00    +0.149 HD
BRANCH  14  16
ATOM     16  C   UNL     1       1.216   2.244   2.097  0.00  0.00    +0.159 C 
ATOM     17  C   UNL     1       2.106   2.007   0.875  0.00  0.00    +0.035 C 
BRANCH  16  18
ATOM     18  C   UNL     1       1.777   3.379   2.914  0.00  0.00    +0.231 C 
ATOM     19  O   UNL     1       2.108   3.191   4.066  0.00  0.00    -0.274 OA
ATOM     20  N   UNL     1       1.910   4.603   2.366  0.00  0.00    -0.317 N 
ATOM     21  C   UNL     1       2.455   5.707   3.161  0.00  0.00    +0.128 C 
ATOM     22  H   UNL     1       1.645   4.754   1.445  0.00  0.00    +0.148 HD
ENDBRANCH  16  18
ENDBRANCH  14  16
ENDBRANCH   1  14
TORSDOF 5
