REMARK  Name = ZINC63253554
REMARK  12 active torsions:
REMARK  status: ('A' for Active; 'I' for Inactive)
REMARK    1  A    between atoms: C_1  and  C_2
REMARK    2  A    between atoms: C_2  and  C_3
REMARK    3  A    between atoms: C_2  and  C_4
REMARK    4  A    between atoms: C_9  and  N_10
REMARK    5  A    between atoms: C_11  and  C_13
REMARK    6  A    between atoms: C_13  and  O_14
REMARK    7  A    between atoms: O_14  and  C_15
REMARK    8  A    between atoms: C_15  and  C_17
REMARK    9  A    between atoms: C_17  and  C_19
REMARK   10  A    between atoms: C_17  and  N_29
REMARK   11  A    between atoms: C_19  and  C_20
REMARK   12  A    between atoms: C_30  and  C_32
REMARK                            x       y       z     vdW  Elec       q    Type
REMARK                         _______ _______ _______ _____ _____    ______ ____
ROOT
ATOM      1  C   UNL     1      -5.943  -4.176   4.873  0.00  0.00    +0.186 C 
ENDROOT
BRANCH   1   2
ATOM      2  N   UNL     1      -7.331  -4.509   4.543  0.00  0.00    -0.298 N 
ATOM      3  C   UNL     1      -8.243  -4.646   5.525  0.00  0.00    +0.245 C 
ATOM      4  O   UNL     1      -7.915  -4.493   6.685  0.00  0.00    -0.270 OA
ATOM      5  H   UNL     1      -7.593  -4.631   3.617  0.00  0.00    +0.150 HD
BRANCH   3   6
ATOM      6  C   UNL     1      -9.643  -4.982   5.192  0.00  0.00    +0.037 A 
ATOM      7  C   UNL     1     -10.021  -5.164   3.860  0.00  0.00    +0.016 A 
ATOM      8  C   UNL     1     -11.328  -5.478   3.554  0.00  0.00    +0.039 A 
ATOM      9  C   UNL     1     -12.267  -5.612   4.566  0.00  0.00    +0.123 A 
ATOM     10  C   UNL     1     -11.896  -5.433   5.890  0.00  0.00    +0.039 A 
ATOM     11  C   UNL     1     -10.590  -5.125   6.207  0.00  0.00    +0.016 A 
ATOM     12  F   UNL     1     -13.546  -5.919   4.261  0.00  0.00    -0.205 F 
ENDBRANCH   3   6
ENDBRANCH   1   2
BRANCH   1  13
ATOM     13  C   UNL     1      -5.295  -3.495   3.695  0.00  0.00    +0.328 C 
ATOM     14  O   UNL     1      -5.928  -3.308   2.683  0.00  0.00    -0.249 OA
BRANCH  13  15
ATOM     15  O   UNL     1      -4.016  -3.097   3.770  0.00  0.00    -0.454 OA
BRANCH  15  16
ATOM     16  C   UNL     1      -3.466  -2.458   2.615  0.00  0.00    +0.328 C 
BRANCH  16  18
ATOM     17  N   UNL     1      -1.307  -1.466   1.930  0.00  0.00    -0.282 N 
ATOM     18  C   UNL     1      -2.031  -2.085   2.883  0.00  0.00    +0.255 C 
ATOM     19  O   UNL     1      -1.528  -2.340   3.957  0.00  0.00    -0.272 OA
ATOM     20  H   UNL     1      -1.724  -1.211   1.093  0.00  0.00    +0.155 HD
BRANCH  17  26
ATOM     21  C   UNL     1       0.915  -1.073   1.070  0.00  0.00    -0.024 A 
ATOM     22  C   UNL     1       2.252  -0.798   1.288  0.00  0.00    +0.006 A 
ATOM     23  C   UNL     1       2.727  -0.649   2.578  0.00  0.00    +0.000 A 
ATOM     24  C   UNL     1       1.866  -0.774   3.654  0.00  0.00    +0.002 A 
ATOM     25  C   UNL     1       0.530  -1.048   3.442  0.00  0.00    +0.023 A 
ATOM     26  C   UNL     1       0.048  -1.194   2.148  0.00  0.00    +0.037 A 
BRANCH  21  28
ATOM     27  C   UNL     1       0.535   0.092  -1.086  0.00  0.00    +0.012 C 
ATOM     28  C   UNL     1       0.399  -1.235  -0.336  0.00  0.00    +0.015 C 
ATOM     29  C   UNL     1       1.210  -2.313  -1.057  0.00  0.00    +0.012 C 
ENDBRANCH  21  28
ENDBRANCH  17  26
ENDBRANCH  16  18
ENDBRANCH  15  16
ENDBRANCH  13  15
ENDBRANCH   1  13
BRANCH   1  30
ATOM     30  C   UNL     1      -5.176  -5.457   5.206  0.00  0.00    +0.067 C 
BRANCH  30  31
ATOM     31  C   UNL     1      -5.747  -6.074   6.457  0.00  0.00    -0.039 C 
ATOM     32  C   UNL     1      -6.681  -7.050   6.530  0.00  0.00    -0.001 A 
ATOM     33  C   UNL     1      -7.417  -7.800   5.506  0.00  0.00    +0.010 A 
ATOM     34  C   UNL     1      -8.311  -8.737   5.895  0.00  0.00    +0.001 A 
ATOM     35  C   UNL     1      -8.551  -9.010   7.248  0.00  0.00    +0.002 A 
ATOM     36  C   UNL     1      -7.913  -8.363   8.247  0.00  0.00    +0.026 A 
ATOM     37  C   UNL     1      -6.952  -7.357   7.953  0.00  0.00    +0.043 A 
ATOM     38  N   UNL     1      -6.215  -6.600   8.729  0.00  0.00    -0.380 N 
ATOM     39  C   UNL     1      -5.387  -5.731   7.886  0.00  0.00    +0.144 C 
ATOM     40  H   UNL     1      -6.214  -6.616   9.699  0.00  0.00    +0.160 HD
ENDBRANCH  30  31
ENDBRANCH   1  30
TORSDOF 10
