REMARK  Name = ZINC04358536
REMARK  10 active torsions:
REMARK  status: ('A' for Active; 'I' for Inactive)
REMARK    1  A    between atoms: C_1  and  C_2
REMARK    2  A    between atoms: C_4  and  C_27
REMARK    3  A    between atoms: C_5  and  N_9
REMARK    4  A    between atoms: C_6  and  C_8
REMARK    5  A    between atoms: C_10  and  C_12
REMARK    6  A    between atoms: C_12  and  C_13
REMARK    7  A    between atoms: C_13  and  C_26
REMARK    8  A    between atoms: N_14  and  N_15
REMARK    9  A    between atoms: C_16  and  C_18
REMARK   10  A    between atoms: C_23  and  O_24
REMARK                            x       y       z     vdW  Elec       q    Type
REMARK                         _______ _______ _______ _____ _____    ______ ____
ROOT
ATOM      1  C   UNL     1      -5.958   1.963  -0.456  0.00  0.00    +0.043 C 
ATOM      2  N   UNL     1      -6.674   2.192  -1.492  0.00  0.00    -0.189 NA
ATOM      3  C   UNL     1      -6.327   2.583   0.867  0.00  0.00    +0.063 C 
ENDROOT
BRANCH   2   4
ATOM      4  N   UNL     1      -7.801   3.019  -1.396  0.00  0.00    -0.203 N 
ATOM      5  C   UNL     1      -8.554   3.260  -2.487  0.00  0.00    +0.267 C 
ATOM      6  O   UNL     1      -8.256   2.760  -3.555  0.00  0.00    -0.268 OA
ATOM      7  H   UNL     1      -8.038   3.418  -0.544  0.00  0.00    +0.178 HD
BRANCH   5   8
ATOM      8  C   UNL     1      -9.740   4.131  -2.386  0.00  0.00    +0.081 A 
ATOM      9  C   UNL     1     -10.086   4.708  -1.161  0.00  0.00    +0.036 A 
ATOM     10  C   UNL     1     -11.196   5.521  -1.074  0.00  0.00    +0.042 A 
ATOM     11  C   UNL     1     -11.971   5.770  -2.196  0.00  0.00    +0.023 A 
ATOM     12  C   UNL     1     -11.639   5.206  -3.412  0.00  0.00    +0.047 A 
ATOM     13  C   UNL     1     -10.524   4.390  -3.519  0.00  0.00    +0.129 A 
ATOM     14 CL   UNL     1     -11.625   6.238   0.448  0.00  0.00    -0.084 Cl
BRANCH  13  15
ATOM     15  O   UNL     1     -10.194   3.840  -4.715  0.00  0.00    -0.506 OA
ATOM     16  H   UNL     1     -10.599   2.976  -4.876  0.00  0.00    +0.292 HD
ENDBRANCH  13  15
ENDBRANCH   5   8
ENDBRANCH   2   4
BRANCH   1  17
ATOM     17  C   UNL     1      -4.746   1.073  -0.559  0.00  0.00    +0.148 C 
BRANCH  17  19
ATOM     18  N   UNL     1      -2.294   1.291  -0.322  0.00  0.00    -0.285 N 
ATOM     19  C   UNL     1      -3.504   1.882  -0.285  0.00  0.00    +0.223 C 
ATOM     20  O   UNL     1      -3.595   3.064  -0.031  0.00  0.00    -0.275 OA
ATOM     21  H   UNL     1      -2.226   0.331  -0.445  0.00  0.00    +0.155 HD
BRANCH  18  26
ATOM     22  C   UNL     1       2.413   4.408   0.244  0.00  0.00    +0.044 C 
ATOM     23  C   UNL     1       1.161   3.583   0.092  0.00  0.00    -0.050 A 
ATOM     24  C   UNL     1       0.190   3.614   1.076  0.00  0.00    +0.008 A 
ATOM     25  C   UNL     1      -0.958   2.859   0.940  0.00  0.00    -0.029 A 
ATOM     26  C   UNL     1      -1.134   2.062  -0.184  0.00  0.00    +0.039 A 
ATOM     27  C   UNL     1      -0.160   2.038  -1.173  0.00  0.00    -0.029 A 
ATOM     28  C   UNL     1       0.986   2.795  -1.031  0.00  0.00    +0.008 A 
ATOM     29  C   UNL     1      -0.350   1.180  -2.398  0.00  0.00    +0.045 C 
ATOM     30  C   UNL     1      -2.016   2.893   2.013  0.00  0.00    +0.045 C 
ENDBRANCH  18  26
ENDBRANCH  17  19
ENDBRANCH   1  17
TORSDOF 6
