REMARK  Name = ZINC36500705
REMARK  13 active torsions:
REMARK  status: ('A' for Active; 'I' for Inactive)
REMARK    1  A    between atoms: C_1  and  C_2
REMARK    2  A    between atoms: C_2  and  C_3
REMARK    3  A    between atoms: C_2  and  C_4
REMARK    4  A    between atoms: C_2  and  N_5
REMARK    5  A    between atoms: C_6  and  C_8
REMARK    6  A    between atoms: C_8  and  C_10
REMARK    7  A    between atoms: C_8  and  N_17
REMARK    8  A    between atoms: C_13  and  O_16
REMARK    9  A    between atoms: N_17  and  C_18
REMARK   10  A    between atoms: C_18  and  C_19
REMARK   11  A    between atoms: C_24  and  C_26
REMARK   12  A    between atoms: C_30  and  O_33
REMARK   13  A    between atoms: C_31  and  O_32
REMARK                            x       y       z     vdW  Elec       q    Type
REMARK                         _______ _______ _______ _____ _____    ______ ____
ROOT
ATOM      1  N   UNL     1       4.168   1.063  -1.934  0.00  0.00    -0.275 N 
ATOM      2  C   UNL     1       5.136   0.458  -1.217  0.00  0.00    +0.252 C 
ATOM      3  O   UNL     1       5.124   0.522  -0.003  0.00  0.00    -0.270 OA
ENDROOT
BRANCH   2   4
ATOM      4  C   UNL     1       6.210  -0.283  -1.906  0.00  0.00    +0.082 A 
ATOM      5  C   UNL     1       5.894  -1.319  -2.789  0.00  0.00    +0.017 A 
ATOM      6  C   UNL     1       6.900  -2.009  -3.431  0.00  0.00    +0.005 A 
ATOM      7  C   UNL     1       8.227  -1.681  -3.205  0.00  0.00    +0.049 A 
ATOM      8  C   UNL     1       8.556  -0.657  -2.333  0.00  0.00    +0.159 A 
ATOM      9  C   UNL     1       7.551   0.052  -1.682  0.00  0.00    +0.171 A 
BRANCH   9  10
ATOM     10  O   UNL     1       7.869   1.060  -0.830  0.00  0.00    -0.503 OA
ATOM     11  H   UNL     1       7.994   0.776   0.086  0.00  0.00    +0.292 HD
ENDBRANCH   9  10
BRANCH   8  12
ATOM     12  O   UNL     1       9.861  -0.342  -2.117  0.00  0.00    -0.503 OA
ATOM     13  H   UNL     1      10.209   0.328  -2.721  0.00  0.00    +0.292 HD
ENDBRANCH   8  12
ENDBRANCH   2   4
BRANCH   1  14
ATOM     14  C   UNL     1       4.113   0.885  -3.387  0.00  0.00    +0.193 C 
BRANCH  14  15
ATOM     15  C   UNL     1       2.896   0.072  -3.748  0.00  0.00    -0.018 A 
ATOM     16  C   UNL     1       2.126  -0.496  -2.750  0.00  0.00    +0.009 A 
ATOM     17  C   UNL     1       1.010  -1.242  -3.078  0.00  0.00    +0.046 A 
ATOM     18  C   UNL     1       0.663  -1.420  -4.410  0.00  0.00    +0.117 A 
ATOM     19  C   UNL     1       1.438  -0.847  -5.409  0.00  0.00    +0.046 A 
ATOM     20  C   UNL     1       2.549  -0.098  -5.075  0.00  0.00    +0.009 A 
BRANCH  18  21
ATOM     21  O   UNL     1      -0.434  -2.153  -4.735  0.00  0.00    -0.507 OA
ATOM     22  H   UNL     1      -1.249  -1.636  -4.797  0.00  0.00    +0.292 HD
ENDBRANCH  18  21
ENDBRANCH  14  15
BRANCH  14  24
ATOM     23  N   UNL     1       4.213   2.337  -5.387  0.00  0.00    -0.309 N 
ATOM     24  C   UNL     1       4.033   2.233  -4.055  0.00  0.00    +0.239 C 
ATOM     25  O   UNL     1       3.807   3.225  -3.395  0.00  0.00    -0.273 OA
ATOM     26  H   UNL     1       4.314   1.537  -5.926  0.00  0.00    +0.149 HD
BRANCH  23  28
ATOM     27  C   UNL     1       5.226   4.559  -5.253  0.00  0.00    +0.031 C 
ATOM     28  C   UNL     1       4.256   3.657  -6.019  0.00  0.00    +0.026 C 
ATOM     29  C   UNL     1       2.858   4.279  -5.998  0.00  0.00    +0.031 C 
ATOM     30  C   UNL     1       4.729   3.514  -7.468  0.00  0.00    +0.031 C 
ENDBRANCH  23  28
ENDBRANCH  14  24
ENDBRANCH   1  14
BRANCH   1  31
ATOM     31  C   UNL     1       3.172   1.898  -1.260  0.00  0.00    +0.183 C 
BRANCH  31  32
ATOM     32  C   UNL     1       3.855   3.084  -0.628  0.00  0.00    +0.122 A 
ATOM     33  C   UNL     1       3.490   4.370  -0.771  0.00  0.00    +0.046 A 
ATOM     34  C   UNL     1       4.399   5.141  -0.011  0.00  0.00    +0.041 A 
ATOM     35  C   UNL     1       5.266   4.280   0.551  0.00  0.00    +0.195 A 
ATOM     36  O   UNL     1       4.927   3.034   0.179  0.00  0.00    -0.466 OA
ENDBRANCH  31  32
ENDBRANCH   1  31
TORSDOF 10
