REMARK  Name = ZINC13251362
REMARK  5 active torsions:
REMARK  status: ('A' for Active; 'I' for Inactive)
REMARK    1  A    between atoms: C_3  and  N_18
REMARK    2  A    between atoms: C_5  and  S_7
REMARK    3  A    between atoms: S_7  and  N_10
REMARK    4  A    between atoms: C_19  and  C_21
REMARK    5  A    between atoms: C_27  and  C_29
REMARK                            x       y       z     vdW  Elec       q    Type
REMARK                         _______ _______ _______ _____ _____    ______ ____
ROOT
ATOM      1  C   UNL     1      -0.005   1.381   0.020  0.00  0.00    +0.004 A 
ATOM      2  C   UNL     1       0.009   0.000   0.006  0.00  0.00    +0.023 A 
ATOM      3  C   UNL     1       1.219  -0.680  -0.007  0.00  0.00    +0.035 A 
ATOM      4  C   UNL     1       2.412   0.031  -0.005  0.00  0.00    +0.052 A 
ATOM      5  C   UNL     1       2.392   1.411   0.009  0.00  0.00    +0.114 A 
ATOM      6  C   UNL     1       1.184   2.086   0.022  0.00  0.00    +0.029 A 
ENDROOT
BRANCH   3   7
ATOM      7  N   UNL     1       1.237  -2.079  -0.021  0.00  0.00    -0.285 N 
ATOM      8  C   UNL     1       2.198  -2.734  -0.704  0.00  0.00    +0.221 C 
ATOM      9  O   UNL     1       3.094  -2.114  -1.235  0.00  0.00    -0.275 OA
ATOM     10  H   UNL     1       0.558  -2.578   0.459  0.00  0.00    +0.155 HD
BRANCH   8  11
ATOM     11  C   UNL     1       2.158  -4.237  -0.806  0.00  0.00    +0.093 C 
ATOM     12  C   UNL     1       2.230  -4.850   0.594  0.00  0.00    +0.040 C 
ATOM     13  C   UNL     1       2.463  -6.331   0.497  0.00  0.00    -0.030 C 
ATOM     14  C   UNL     1       2.886  -6.931  -0.569  0.00  0.00    -0.030 C 
ATOM     15  C   UNL     1       3.199  -6.233  -1.860  0.00  0.00    +0.042 C 
ATOM     16  C   UNL     1       3.361  -4.730  -1.620  0.00  0.00    +0.118 C 
BRANCH  16  17
ATOM     17  C   UNL     1       3.408  -4.009  -2.942  0.00  0.00    +0.360 C 
ATOM     18  O   UNL     1       2.567  -3.184  -3.211  0.00  0.00    -0.246 OA
ATOM     19  O   UNL     1       4.384  -4.283  -3.822  0.00  0.00    -0.246 OA
ENDBRANCH  16  17
ENDBRANCH   8  11
ENDBRANCH   3   7
BRANCH   5  20
ATOM     20  S   UNL     1       3.905   2.314   0.012  0.00  0.00    +0.100 S 
ATOM     21  O   UNL     1       3.617   3.586   0.577  0.00  0.00    -0.146 OA
ATOM     22  O   UNL     1       4.894   1.448   0.549  0.00  0.00    -0.146 OA
BRANCH  20  23
ATOM     23  N   UNL     1       4.318   2.582  -1.569  0.00  0.00    -0.118 NA
ATOM     24  C   UNL     1       5.400   3.231  -1.854  0.00  0.00    +0.117 C 
ATOM     25  C   UNL     1       6.267   3.735  -0.810  0.00  0.00    +0.073 C 
ATOM     26  C   UNL     1       6.560   5.236  -0.957  0.00  0.00    +0.008 C 
ATOM     27  C   UNL     1       7.605   5.364  -2.030  0.00  0.00    +0.002 C 
ATOM     28  C   UNL     1       7.004   5.654  -3.428  0.00  0.00    +0.019 C 
ATOM     29  C   UNL     1       5.725   4.828  -3.645  0.00  0.00    +0.102 C 
ATOM     30  N   UNL     1       5.776   3.466  -3.186  0.00  0.00    -0.331 N 
ATOM     31  H   UNL     1       6.057   2.742  -3.767  0.00  0.00    +0.147 HD
ENDBRANCH  20  23
ENDBRANCH   5  20
TORSDOF 5
