REMARK  Name = ZINC04491350
REMARK  9 active torsions:
REMARK  status: ('A' for Active; 'I' for Inactive)
REMARK    1  A    between atoms: C_1  and  C_2
REMARK    2  A    between atoms: C_3  and  C_17
REMARK    3  A    between atoms: C_4  and  C_10
REMARK    4  A    between atoms: C_13  and  O_16
REMARK    5  A    between atoms: C_17  and  O_19
REMARK    6  A    between atoms: O_19  and  C_20
REMARK    7  A    between atoms: C_20  and  C_21
REMARK    8  A    between atoms: C_21  and  O_22
REMARK    9  A    between atoms: O_22  and  C_23
REMARK                            x       y       z     vdW  Elec       q    Type
REMARK                         _______ _______ _______ _____ _____    ______ ____
ROOT
ATOM      1  C   UNL     1      -2.363   4.848  -4.630  0.00  0.00    +0.061 C 
ATOM      2  C   UNL     1      -1.744   5.664  -3.524  0.00  0.00    +0.021 C 
ATOM      3  C   UNL     1      -1.434   5.068  -2.353  0.00  0.00    +0.078 C 
ATOM      4  C   UNL     1      -0.808   5.923  -1.270  0.00  0.00    +0.143 C 
ATOM      5  N   UNL     1      -0.592   7.345  -1.585  0.00  0.00    -0.288 N 
ATOM      6  C   UNL     1      -0.959   7.796  -2.801  0.00  0.00    +0.304 C 
ATOM      7  O   UNL     1      -0.785   8.969  -3.070  0.00  0.00    -0.252 OA
ATOM      8  N   UNL     1      -1.509   6.995  -3.721  0.00  0.00    -0.273 N 
ATOM      9  H   UNL     1      -0.195   7.944  -0.932  0.00  0.00    +0.151 HD
ATOM     10  H   UNL     1      -1.752   7.380  -4.578  0.00  0.00    +0.156 HD
ENDROOT
BRANCH   4  11
ATOM     11  C   UNL     1      -1.689   5.847  -0.050  0.00  0.00    -0.022 A 
ATOM     12  C   UNL     1      -2.831   6.622   0.027  0.00  0.00    +0.009 A 
ATOM     13  C   UNL     1      -3.643   6.550   1.142  0.00  0.00    +0.046 A 
ATOM     14  C   UNL     1      -3.306   5.707   2.190  0.00  0.00    +0.117 A 
ATOM     15  C   UNL     1      -2.157   4.934   2.114  0.00  0.00    +0.046 A 
ATOM     16  C   UNL     1      -1.351   5.005   0.994  0.00  0.00    +0.009 A 
BRANCH  14  17
ATOM     17  O   UNL     1      -4.101   5.637   3.291  0.00  0.00    -0.507 OA
ATOM     18  H   UNL     1      -3.868   6.269   3.985  0.00  0.00    +0.292 HD
ENDBRANCH  14  17
ENDBRANCH   4  11
BRANCH   3  19
ATOM     19  C   UNL     1      -1.681   3.690  -2.145  0.00  0.00    +0.339 C 
ATOM     20  O   UNL     1      -2.294   3.050  -2.979  0.00  0.00    -0.245 OA
BRANCH  19  21
ATOM     21  O   UNL     1      -1.236   3.087  -1.024  0.00  0.00    -0.458 OA
BRANCH  21  22
ATOM     22  C   UNL     1      -1.521   1.694  -0.880  0.00  0.00    +0.273 C 
BRANCH  22  23
ATOM     23  C   UNL     1      -0.943   1.189   0.444  0.00  0.00    +0.270 C 
BRANCH  23  24
ATOM     24  O   UNL     1      -1.615   1.826   1.532  0.00  0.00    -0.489 OA
BRANCH  24  25
ATOM     25  C   UNL     1      -1.218   1.486   2.786  0.00  0.00    +0.121 A 
ATOM     26  C   UNL     1      -0.206   0.554   2.966  0.00  0.00    +0.045 A 
ATOM     27  C   UNL     1       0.199   0.215   4.243  0.00  0.00    +0.004 A 
ATOM     28  C   UNL     1      -0.410   0.795   5.340  0.00  0.00    +0.000 A 
ATOM     29  C   UNL     1      -1.423   1.720   5.163  0.00  0.00    +0.004 A 
ATOM     30  C   UNL     1      -1.828   2.067   3.889  0.00  0.00    +0.045 A 
ENDBRANCH  24  25
ENDBRANCH  23  24
ENDBRANCH  22  23
ENDBRANCH  21  22
ENDBRANCH  19  21
ENDBRANCH   3  19
TORSDOF 8
