REMARK  Name = ZINC20676985
REMARK  9 active torsions:
REMARK  status: ('A' for Active; 'I' for Inactive)
REMARK    1  A    between atoms: C_1  and  C_2
REMARK    2  A    between atoms: C_2  and  C_3
REMARK    3  A    between atoms: C_3  and  N_4
REMARK    4  A    between atoms: C_17  and  C_22
REMARK    5  A    between atoms: C_28  and  N_35
REMARK    6  A    between atoms: C_29  and  C_30
REMARK    7  A    between atoms: C_30  and  O_32
REMARK    8  A    between atoms: O_32  and  C_33
REMARK    9  A    between atoms: C_33  and  C_34
REMARK                            x       y       z     vdW  Elec       q    Type
REMARK                         _______ _______ _______ _____ _____    ______ ____
ROOT
ATOM      1  N   UNL     1      -2.602   5.873   1.150  0.00  0.00    -0.270 N 
ATOM      2  C   UNL     1      -2.907   5.900  -0.199  0.00  0.00    +0.041 A 
ATOM      3  C   UNL     1      -3.218   6.988  -1.016  0.00  0.00    +0.024 A 
ATOM      4  C   UNL     1      -3.486   6.723  -2.350  0.00  0.00    +0.002 A 
ATOM      5  C   UNL     1      -3.451   5.442  -2.862  0.00  0.00    +0.000 A 
ATOM      6  C   UNL     1      -3.142   4.350  -2.059  0.00  0.00    +0.007 A 
ATOM      7  C   UNL     1      -2.873   4.605  -0.731  0.00  0.00    -0.002 A 
ATOM      8  C   UNL     1      -2.508   3.696   0.400  0.00  0.00    +0.141 C 
ATOM      9  C   UNL     1      -2.355   4.622   1.589  0.00  0.00    +0.240 C 
ATOM     10  O   UNL     1      -2.065   4.299   2.721  0.00  0.00    -0.274 OA
ATOM     11  C   UNL     1      -3.608   2.702   0.667  0.00  0.00    +0.057 C 
ATOM     12  C   UNL     1      -3.466   1.414   0.300  0.00  0.00    +0.116 C 
ATOM     13  C   UNL     1      -4.563   0.411   0.571  0.00  0.00    +0.086 C 
ATOM     14  C   UNL     1      -5.316   0.803   1.844  0.00  0.00    +0.070 C 
ATOM     15  C   UNL     1      -5.896   2.208   1.651  0.00  0.00    +0.091 C 
ATOM     16  C   UNL     1      -4.775   3.154   1.313  0.00  0.00    +0.165 C 
ATOM     17  O   UNL     1      -4.879   4.329   1.603  0.00  0.00    -0.292 OA
ATOM     18  O   UNL     1      -2.352   0.980  -0.318  0.00  0.00    -0.446 OA
ATOM     19  C   UNL     1      -1.210   1.674  -0.212  0.00  0.00    +0.195 C 
ATOM     20  C   UNL     1      -1.211   2.989   0.133  0.00  0.00    +0.117 C 
ENDROOT
BRANCH  14  21
ATOM     21  C   UNL     1      -6.434  -0.177   2.093  0.00  0.00    +0.109 A 
ATOM     22  C   UNL     1      -6.573  -0.951   3.184  0.00  0.00    +0.045 A 
ATOM     23  C   UNL     1      -7.752  -1.709   3.001  0.00  0.00    +0.041 A 
ATOM     24  C   UNL     1      -8.263  -1.353   1.809  0.00  0.00    +0.195 A 
ATOM     25  O   UNL     1      -7.463  -0.420   1.266  0.00  0.00    -0.468 OA
ENDBRANCH  14  21
BRANCH  19  26
ATOM     26  N   UNL     1      -0.018   1.044  -0.450  0.00  0.00    -0.329 N 
ATOM     27  H   UNL     1       0.926   1.602  -0.366  0.00  0.00    +0.145 HD
ATOM     28  H   UNL     1      -0.004  -0.021  -0.725  0.00  0.00    +0.145 HD
ENDBRANCH  19  26
BRANCH  20  29
ATOM     29  C   UNL     1       0.002   3.688   0.235  0.00  0.00    +0.342 C 
ATOM     30  O   UNL     1       1.059   3.092   0.128  0.00  0.00    -0.245 OA
BRANCH  29  31
ATOM     31  O   UNL     1      -0.003   5.021   0.451  0.00  0.00    -0.462 OA
BRANCH  31  32
ATOM     32  C   UNL     1       1.268   5.668   0.544  0.00  0.00    +0.229 C 
ATOM     33  C   UNL     1       1.061   7.164   0.789  0.00  0.00    +0.048 C 
ENDBRANCH  31  32
ENDBRANCH  29  31
ENDBRANCH  20  29
BRANCH   1  34
ATOM     34  C   UNL     1      -2.553   7.064   2.002  0.00  0.00    +0.113 C 
BRANCH  34  36
ATOM     35  C   UNL     1      -3.884   8.556   3.501  0.00  0.00    +0.005 C 
ATOM     36  C   UNL     1      -3.934   7.312   2.612  0.00  0.00    +0.016 C 
ENDBRANCH  34  36
ENDBRANCH   1  34
TORSDOF 7
