REMARK  Name = ZINC00706651
REMARK  4 active torsions:
REMARK  status: ('A' for Active; 'I' for Inactive)
REMARK    1  A    between atoms: C_3  and  N_25
REMARK    2  A    between atoms: C_6  and  C_7
REMARK    3  A    between atoms: C_10  and  C_20
REMARK    4  A    between atoms: C_10  and  O_24
REMARK                            x       y       z     vdW  Elec       q    Type
REMARK                         _______ _______ _______ _____ _____    ______ ____
ROOT
ATOM      1  C   UNL     1       1.887   0.900   5.646  0.00  0.00    +0.269 C 
ATOM      2  O   UNL     1       2.849   1.398   6.198  0.00  0.00    -0.268 OA
ATOM      3  N   UNL     1       1.875   0.767   4.304  0.00  0.00    -0.148 N 
ATOM      4  C   UNL     1       2.907   1.264   3.382  0.00  0.00    +0.259 C 
ATOM      5  C   UNL     1       2.285   0.989   1.989  0.00  0.00    +0.096 C 
ATOM      6  C   UNL     1       1.936   2.354   1.394  0.00  0.00    +0.014 C 
ATOM      7  C   UNL     1       1.331   2.235   0.024  0.00  0.00    +0.001 C 
ATOM      8  C   UNL     1      -0.038   1.614   0.032  0.00  0.00    +0.000 C 
ATOM      9  C   UNL     1      -0.045   0.121  -0.001  0.00  0.00    +0.006 C 
ATOM     10  C   UNL     1       0.146  -0.544   1.337  0.00  0.00    +0.053 C 
ATOM     11  C   UNL     1       1.060   0.173   2.287  0.00  0.00    +0.045 C 
ATOM     12  N   UNL     1       0.885   0.139   3.560  0.00  0.00    -0.183 NA
ENDROOT
BRANCH   1  18
ATOM     13  C   UNL     1       0.687   0.687   7.818  0.00  0.00    +0.015 A 
ATOM     14  C   UNL     1      -0.397   0.259   8.557  0.00  0.00    +0.033 A 
ATOM     15  C   UNL     1      -1.432  -0.422   7.942  0.00  0.00    +0.126 A 
ATOM     16  C   UNL     1      -1.391  -0.674   6.582  0.00  0.00    +0.033 A 
ATOM     17  C   UNL     1      -0.316  -0.247   5.830  0.00  0.00    +0.015 A 
ATOM     18  C   UNL     1       0.732   0.440   6.445  0.00  0.00    +0.039 A 
BRANCH  15  19
ATOM     19  N   UNL     1      -2.589  -0.883   8.742  0.00  0.00    +0.056 N 
ATOM     20  O   UNL     1      -3.502  -1.483   8.203  0.00  0.00    -0.126 OA
ATOM     21  O   UNL     1      -2.628  -0.662   9.939  0.00  0.00    -0.126 OA
ENDBRANCH  15  19
ENDBRANCH   1  18
BRANCH   4  22
ATOM     22  C   UNL     1       4.212   0.486   3.559  0.00  0.00    +0.438 C 
ATOM     23  F   UNL     1       3.979  -0.874   3.330  0.00  0.00    -0.166 F 
ATOM     24  F   UNL     1       5.163   0.957   2.648  0.00  0.00    -0.166 F 
ATOM     25  F   UNL     1       4.687   0.664   4.863  0.00  0.00    -0.166 F 
ENDBRANCH   4  22
BRANCH   4  26
ATOM     26  O   UNL     1       3.124   2.663   3.572  0.00  0.00    -0.363 OA
ATOM     27  H   UNL     1       3.438   2.896   4.456  0.00  0.00    +0.212 HD
ENDBRANCH   4  26
TORSDOF 4
