REMARK  Name = ZINC04222534
REMARK  12 active torsions:
REMARK  status: ('A' for Active; 'I' for Inactive)
REMARK    1  A    between atoms: C_1  and  C_2
REMARK    2  A    between atoms: N_4  and  C_5
REMARK    3  A    between atoms: C_5  and  C_6
REMARK    4  A    between atoms: C_6  and  N_7
REMARK    5  A    between atoms: C_8  and  C_10
REMARK    6  A    between atoms: C_10  and  C_11
REMARK    7  A    between atoms: C_16  and  C_18
REMARK    8  A    between atoms: C_27  and  C_37
REMARK    9  A    between atoms: C_30  and  O_36
REMARK   10  A    between atoms: C_32  and  C_33
REMARK   11  A    between atoms: C_32  and  C_34
REMARK   12  A    between atoms: C_34  and  O_35
REMARK                            x       y       z     vdW  Elec       q    Type
REMARK                         _______ _______ _______ _____ _____    ______ ____
ROOT
ATOM      1  C   UNL     1      -0.431   0.339   2.332  0.00  0.00    +0.053 C 
ATOM      2  C   UNL     1      -0.976  -1.054   2.049  0.00  0.00    +0.056 A 
ATOM      3  C   UNL     1      -2.078  -1.202   1.260  0.00  0.00    +0.014 A 
ATOM      4  S   UNL     1      -2.311  -2.960   1.239  0.00  0.00    -0.072 S 
ATOM      5  C   UNL     1      -0.917  -3.364   2.287  0.00  0.00    +0.109 A 
ATOM      6  N   UNL     1      -0.430  -2.160   2.538  0.00  0.00    -0.243 NA
ATOM      7  C   UNL     1      -2.869  -0.135   0.590  0.00  0.00    +0.049 C 
ATOM      8  C   UNL     1      -2.487   1.223   1.188  0.00  0.00    +0.011 C 
ATOM      9  C   UNL     1      -0.963   1.324   1.283  0.00  0.00    -0.020 C 
ATOM     10  C   UNL     1      -0.546   2.732   1.722  0.00  0.00    +0.010 C 
ATOM     11  C   UNL     1      -1.093   3.773   0.736  0.00  0.00    +0.032 C 
ATOM     12  C   UNL     1      -2.623   3.687   0.720  0.00  0.00    +0.123 C 
ATOM     13  C   UNL     1      -3.031   2.296   0.240  0.00  0.00    +0.021 C 
ATOM     14  C   UNL     1      -4.558   2.204   0.194  0.00  0.00    +0.016 C 
ATOM     15  C   UNL     1      -0.342   1.007  -0.079  0.00  0.00    +0.012 C 
ENDROOT
BRANCH   5  16
ATOM     16  C   UNL     1      -0.439  -4.685   2.747  0.00  0.00    +0.007 A 
ATOM     17  C   UNL     1       0.687  -4.776   3.566  0.00  0.00    +0.010 A 
ATOM     18  C   UNL     1       1.125  -6.012   3.996  0.00  0.00    +0.001 A 
ATOM     19  C   UNL     1       0.457  -7.160   3.607  0.00  0.00    +0.000 A 
ATOM     20  C   UNL     1      -0.657  -7.076   2.791  0.00  0.00    +0.001 A 
ATOM     21  C   UNL     1      -1.108  -5.846   2.358  0.00  0.00    +0.010 A 
ENDBRANCH   5  16
BRANCH  12  22
ATOM     22  O   UNL     1      -3.152   4.675  -0.167  0.00  0.00    -0.391 OA
ATOM     23  H   UNL     1      -2.930   5.583   0.079  0.00  0.00    +0.210 HD
ENDBRANCH  12  22
BRANCH   1  24
ATOM     24  C   UNL     1       1.098   0.309   2.273  0.00  0.00    +0.106 C 
BRANCH  24  26
ATOM     25  N   UNL     1       2.958  -0.662   3.583  0.00  0.00    -0.314 N 
ATOM     26  C   UNL     1       1.629  -0.498   3.430  0.00  0.00    +0.214 C 
ATOM     27  O   UNL     1       0.861  -1.000   4.222  0.00  0.00    -0.276 OA
ATOM     28  H   UNL     1       3.573  -0.261   2.949  0.00  0.00    +0.149 HD
BRANCH  25  29
ATOM     29  C   UNL     1       3.475  -1.448   4.707  0.00  0.00    +0.123 C 
BRANCH  29  30
ATOM     30  C   UNL     1       5.003  -1.477   4.648  0.00  0.00    +0.123 C 
BRANCH  30  34
ATOM     31  C   UNL     1       7.380  -3.234   7.081  0.00  0.00    +0.109 C 
ATOM     32  C   UNL     1       6.848  -2.427   5.925  0.00  0.00    +0.210 C 
ATOM     33  O   UNL     1       7.617  -1.925   5.132  0.00  0.00    -0.276 OA
ATOM     34  N   UNL     1       5.520  -2.263   5.772  0.00  0.00    -0.314 N 
ATOM     35  H   UNL     1       4.905  -2.664   6.406  0.00  0.00    +0.149 HD
ENDBRANCH  30  34
ENDBRANCH  29  30
ENDBRANCH  25  29
ENDBRANCH  24  26
ENDBRANCH   1  24
BRANCH  13  36
ATOM     36  C   UNL     1      -2.468   2.063  -1.164  0.00  0.00    +0.165 C 
BRANCH  36  37
ATOM     37  O   UNL     1      -3.094   2.961  -2.083  0.00  0.00    -0.394 OA
ATOM     38  H   UNL     1      -2.785   2.869  -2.995  0.00  0.00    +0.209 HD
ENDBRANCH  36  37
ENDBRANCH  13  36
TORSDOF 9
