REMARK  Name = ZINC15007961
REMARK  8 active torsions:
REMARK  status: ('A' for Active; 'I' for Inactive)
REMARK    1  A    between atoms: C_3  and  C_7
REMARK    2  A    between atoms: C_7  and  C_22
REMARK    3  A    between atoms: N_10  and  C_14
REMARK    4  A    between atoms: C_14  and  C_15
REMARK    5  A    between atoms: C_27  and  C_28
REMARK    6  A    between atoms: C_27  and  N_62
REMARK    7  A    between atoms: C_31  and  C_33
REMARK    8  A    between atoms: C_33  and  O_34
REMARK                            x       y       z     vdW  Elec       q    Type
REMARK                         _______ _______ _______ _____ _____    ______ ____
ROOT
ATOM      1  C   UNL     1      -0.727   3.357   0.027  0.00  0.00    +0.142 C 
ATOM      2  C   UNL     1       0.787   3.284   0.012  0.00  0.00    +0.252 C 
ATOM      3  O   UNL     1       1.565   4.213   0.009  0.00  0.00    -0.272 OA
ATOM      4  N   UNL     1       1.087   1.970   0.002  0.00  0.00    -0.220 N 
ATOM      5  C   UNL     1      -0.014   1.211   0.009  0.00  0.00    +0.310 C 
ATOM      6  O   UNL     1       0.002  -0.004   0.002  0.00  0.00    -0.252 OA
ATOM      7  N   UNL     1      -1.143   1.944   0.018  0.00  0.00    -0.281 N 
ATOM      8  H   UNL     1      -2.052   1.607   0.019  0.00  0.00    +0.152 HD
ENDROOT
BRANCH   1   9
ATOM      9  C   UNL     1      -1.244   4.073  -1.222  0.00  0.00    +0.023 C 
ATOM     10  C   UNL     1      -2.774   4.111  -1.195  0.00  0.00    -0.012 C 
ATOM     11  C   UNL     1      -3.287   4.774  -2.475  0.00  0.00    -0.078 C 
ATOM     12  C   UNL     1      -1.353   4.004  -3.716  0.00  0.00    -0.078 C 
ATOM     13  C   UNL     1      -0.782   3.318  -2.472  0.00  0.00    -0.012 C 
ATOM     14  N   UNL     1      -2.829   3.986  -3.640  0.00  0.00    +0.384 N 
ATOM     15  H   UNL     1      -3.145   3.015  -3.530  0.00  0.00    -0.081 HD
BRANCH  14  16
ATOM     16  C   UNL     1      -3.405   4.540  -4.882  0.00  0.00    -0.003 C 
BRANCH  16  17
ATOM     17  C   UNL     1      -4.894   4.310  -4.871  0.00  0.00    +0.089 A 
ATOM     18  C   UNL     1      -5.818   5.159  -4.385  0.00  0.00    +0.043 A 
ATOM     19  C   UNL     1      -7.078   4.547  -4.577  0.00  0.00    +0.047 A 
ATOM     20  C   UNL     1      -6.849   3.361  -5.169  0.00  0.00    +0.130 A 
ATOM     21  O   UNL     1      -5.525   3.225  -5.350  0.00  0.00    -0.464 OA
BRANCH  20  22
ATOM     22  C   UNL     1      -7.900   2.357  -5.568  0.00  0.00    +0.230 C 
BRANCH  22  23
ATOM     23  O   UNL     1      -8.331   2.625  -6.904  0.00  0.00    -0.387 OA
ATOM     24  H   UNL     1      -9.009   2.016  -7.228  0.00  0.00    +0.210 HD
ENDBRANCH  22  23
ENDBRANCH  20  22
ENDBRANCH  16  17
ENDBRANCH  14  16
ENDBRANCH   1   9
BRANCH   1  27
ATOM     25  C   UNL     1      -1.914   4.009   3.549  0.00  0.00    +0.020 A 
ATOM     26  C   UNL     1      -1.470   3.327   2.426  0.00  0.00    +0.009 A 
ATOM     27  C   UNL     1      -1.212   4.052   1.273  0.00  0.00    +0.003 A 
ATOM     28  C   UNL     1      -1.401   5.422   1.282  0.00  0.00    +0.117 A 
ATOM     29  N   UNL     1      -1.829   6.036   2.367  0.00  0.00    -0.263 NA
ATOM     30  C   UNL     1      -2.084   5.379   3.482  0.00  0.00    +0.111 A 
ENDBRANCH   1  27
BRANCH   4  31
ATOM     31  C   UNL     1       2.453   1.438  -0.013  0.00  0.00    +0.153 C 
BRANCH  31  32
ATOM     32  C   UNL     1       2.908   1.264  -1.439  0.00  0.00    -0.029 A 
ATOM     33  C   UNL     1       2.687   0.066  -2.092  0.00  0.00    +0.008 A 
ATOM     34  C   UNL     1       3.099  -0.094  -3.402  0.00  0.00    +0.038 A 
ATOM     35  C   UNL     1       3.744   0.943  -4.055  0.00  0.00    +0.123 A 
ATOM     36  C   UNL     1       3.969   2.140  -3.398  0.00  0.00    +0.038 A 
ATOM     37  C   UNL     1       3.551   2.300  -2.090  0.00  0.00    +0.008 A 
ATOM     38  F   UNL     1       4.153   0.786  -5.333  0.00  0.00    -0.205 F 
ENDBRANCH  31  32
ENDBRANCH   4  31
TORSDOF 8
