REMARK  Name = ZINC56660971
REMARK  10 active torsions:
REMARK  status: ('A' for Active; 'I' for Inactive)
REMARK    1  A    between atoms: C_1  and  C_2
REMARK    2  A    between atoms: C_2  and  N_3
REMARK    3  A    between atoms: C_4  and  C_6
REMARK    4  A    between atoms: C_9  and  N_12
REMARK    5  A    between atoms: N_15  and  C_16
REMARK    6  A    between atoms: C_16  and  C_18
REMARK    7  A    between atoms: C_16  and  C_19
REMARK    8  A    between atoms: C_19  and  N_20
REMARK    9  A    between atoms: C_22  and  C_29
REMARK   10  A    between atoms: C_25  and  C_28
REMARK                            x       y       z     vdW  Elec       q    Type
REMARK                         _______ _______ _______ _____ _____    ______ ____
ROOT
ATOM      1  N   UNL     1       3.288  -3.756  -6.067  0.00  0.00    -0.269 N 
ATOM      2  C   UNL     1       3.610  -5.057  -6.209  0.00  0.00    +0.304 C 
ATOM      3  O   UNL     1       3.255  -5.867  -5.374  0.00  0.00    -0.253 OA
ATOM      4  N   UNL     1       4.326  -5.461  -7.276  0.00  0.00    -0.298 N 
ATOM      5  H   UNL     1       3.509  -3.123  -6.767  0.00  0.00    +0.156 HD
ATOM      6  H   UNL     1       4.610  -4.816  -7.943  0.00  0.00    +0.150 HD
ENDROOT
BRANCH   1  10
ATOM      7  C   UNL     1       1.341  -2.458  -2.621  0.00  0.00    +0.037 A 
ATOM      8  C   UNL     1       1.054  -3.717  -3.155  0.00  0.00    +0.015 A 
ATOM      9  C   UNL     1       1.699  -4.143  -4.294  0.00  0.00    +0.024 A 
ATOM     10  C   UNL     1       2.636  -3.322  -4.913  0.00  0.00    +0.035 A 
ATOM     11  C   UNL     1       2.925  -2.068  -4.384  0.00  0.00    +0.024 A 
ATOM     12  C   UNL     1       2.279  -1.633  -3.248  0.00  0.00    +0.015 A 
BRANCH   7  14
ATOM     13  N   UNL     1      -0.253  -2.793  -0.796  0.00  0.00    -0.312 N 
ATOM     14  C   UNL     1       0.651  -1.997  -1.400  0.00  0.00    +0.244 C 
ATOM     15  O   UNL     1       0.899  -0.899  -0.939  0.00  0.00    -0.270 OA
ATOM     16  H   UNL     1      -0.450  -3.669  -1.163  0.00  0.00    +0.149 HD
BRANCH  13  18
ATOM     17  C   UNL     1      -1.904  -3.421   0.896  0.00  0.00    +0.024 C 
ATOM     18  C   UNL     1      -0.937  -2.337   0.416  0.00  0.00    +0.101 C 
ENDBRANCH  13  18
ENDBRANCH   7  14
ENDBRANCH   1  10
BRANCH   4  19
ATOM     19  C   UNL     1       4.677  -6.875  -7.431  0.00  0.00    +0.055 C 
ATOM     20  C   UNL     1       3.568  -7.595  -8.201  0.00  0.00    +0.026 C 
BRANCH  19  21
ATOM     21  C   UNL     1       5.993  -6.993  -8.203  0.00  0.00    -0.057 C 
BRANCH  21  22
ATOM     22  N   UNL     1       7.034  -6.216  -7.517  0.00  0.00    +0.381 N 
ATOM     23  C   UNL     1       8.253  -6.206  -8.334  0.00  0.00    -0.076 C 
ATOM     24  C   UNL     1       9.314  -5.331  -7.664  0.00  0.00    -0.031 C 
ATOM     25  C   UNL     1       9.632  -5.897  -6.277  0.00  0.00    +0.003 C 
ATOM     26  C   UNL     1       8.340  -5.972  -5.458  0.00  0.00    -0.031 C 
ATOM     27  C   UNL     1       7.315  -6.824  -6.211  0.00  0.00    -0.076 C 
ATOM     28  C   UNL     1       8.634  -6.608  -4.098  0.00  0.00    +0.005 C 
ATOM     29  C   UNL     1       8.784  -3.902  -7.524  0.00  0.00    +0.005 C 
ATOM     30  H   UNL     1       6.712  -5.269  -7.384  0.00  0.00    -0.082 HD
ENDBRANCH  21  22
ENDBRANCH  19  21
ENDBRANCH   4  19
TORSDOF 6
