REMARK  Name = ZINC20977099
REMARK  7 active torsions:
REMARK  status: ('A' for Active; 'I' for Inactive)
REMARK    1  A    between atoms: C_6  and  C_7
REMARK    2  A    between atoms: C_7  and  C_9
REMARK    3  A    between atoms: C_7  and  N_26
REMARK    4  A    between atoms: C_9  and  C_10
REMARK    5  A    between atoms: C_10  and  O_12
REMARK    6  A    between atoms: O_12  and  C_13
REMARK    7  A    between atoms: C_13  and  C_14
REMARK                            x       y       z     vdW  Elec       q    Type
REMARK                         _______ _______ _______ _____ _____    ______ ____
ROOT
ATOM      1  C   UNL     1      -3.946  -0.972   2.632  0.00  0.00    +0.147 C 
ENDROOT
BRANCH   1   2
ATOM      2  C   UNL     1      -3.218  -1.220   1.336  0.00  0.00    +0.310 C 
ATOM      3  O   UNL     1      -3.700  -1.950   0.502  0.00  0.00    -0.251 OA
BRANCH   2   4
ATOM      4  O   UNL     1      -2.034  -0.631   1.107  0.00  0.00    -0.458 OA
BRANCH   4   5
ATOM      5  C   UNL     1      -1.390  -0.915  -0.163  0.00  0.00    +0.287 C 
BRANCH   5   6
ATOM      6  C   UNL     1      -0.082  -0.171  -0.240  0.00  0.00    +0.086 A 
ATOM      7  C   UNL     1       1.108  -0.871  -0.289  0.00  0.00    +0.097 A 
ATOM      8  C   UNL     1       2.310  -0.158  -0.361  0.00  0.00    +0.259 A 
ATOM      9  O   UNL     1       3.379  -0.747  -0.406  0.00  0.00    -0.267 OA
ATOM     10  N   UNL     1       2.270   1.192  -0.381  0.00  0.00    -0.267 N 
ATOM     11  C   UNL     1       3.431   1.900  -0.452  0.00  0.00    +0.111 A 
ATOM     12  C   UNL     1       3.416   3.252  -0.473  0.00  0.00    +0.035 A 
ATOM     13  C   UNL     1       2.196   3.944  -0.423  0.00  0.00    +0.020 A 
ATOM     14  C   UNL     1       1.030   3.244  -0.353  0.00  0.00    +0.048 A 
ATOM     15  C   UNL     1       1.066   1.837  -0.331  0.00  0.00    +0.141 A 
ATOM     16  N   UNL     1      -0.074   1.152  -0.263  0.00  0.00    -0.231 NA
ATOM     17 BR   UNL     1       5.042   4.213  -0.570  0.00  0.00    -0.049 Br
ENDBRANCH   5   6
ENDBRANCH   4   5
ENDBRANCH   2   4
ENDBRANCH   1   2
BRANCH   1  18
ATOM     18  C   UNL     1      -5.259  -1.757   2.638  0.00  0.00    +0.115 C 
BRANCH  18  24
ATOM     19  C   UNL     1      -5.657  -1.924   5.103  0.00  0.00    +0.007 A 
ATOM     20  C   UNL     1      -6.373  -1.606   6.242  0.00  0.00    +0.020 A 
ATOM     21  C   UNL     1      -7.484  -0.786   6.153  0.00  0.00    +0.041 A 
ATOM     22  C   UNL     1      -7.874  -0.281   4.926  0.00  0.00    +0.020 A 
ATOM     23  C   UNL     1      -7.153  -0.595   3.789  0.00  0.00    +0.007 A 
ATOM     24  C   UNL     1      -6.043  -1.414   3.878  0.00  0.00    -0.027 A 
ATOM     25 CL   UNL     1      -8.389  -0.393   7.581  0.00  0.00    -0.084 Cl
ENDBRANCH  18  24
BRANCH  18  26
ATOM     26  N   UNL     1      -4.970  -3.193   2.624  0.00  0.00    -0.292 N 
ATOM     27  C   UNL     1      -5.896  -4.063   2.175  0.00  0.00    +0.298 C 
ATOM     28  O   UNL     1      -6.932  -3.652   1.691  0.00  0.00    -0.253 OA
ATOM     29  N   UNL     1      -5.673  -5.390   2.264  0.00  0.00    -0.313 N 
ATOM     30  H   UNL     1      -3.996  -3.562   2.981  0.00  0.00    +0.151 HD
ATOM     31  H   UNL     1      -6.429  -6.100   1.897  0.00  0.00    +0.146 HD
ATOM     32  H   UNL     1      -4.736  -5.762   2.702  0.00  0.00    +0.146 HD
ENDBRANCH  18  26
ENDBRANCH   1  18
TORSDOF 7
