REMARK  Name = ZINC63271177
REMARK  6 active torsions:
REMARK  status: ('A' for Active; 'I' for Inactive)
REMARK    1  A    between atoms: C_1  and  C_2
REMARK    2  A    between atoms: N_19  and  N_22
REMARK    3  A    between atoms: C_23  and  C_24
REMARK    4  A    between atoms: N_26  and  C_27
REMARK    5  A    between atoms: C_27  and  C_28
REMARK    6  A    between atoms: C_28  and  C_29
REMARK                            x       y       z     vdW  Elec       q    Type
REMARK                         _______ _______ _______ _____ _____    ______ ____
ROOT
ATOM      1  C   UNL     1      -0.006   1.523   0.030  0.00  0.00    +0.044 C 
ATOM      2  C   UNL     1       0.004  -0.006   0.004  0.00  0.00    +0.136 C 
ATOM      3  C   UNL     1       0.495  -0.376  -1.360  0.00  0.00    +0.139 C 
ATOM      4  C   UNL     1       1.573  -1.440  -1.241  0.00  0.00    -0.034 C 
ATOM      5  C   UNL     1       1.239  -2.413  -2.076  0.00  0.00    -0.001 A 
ATOM      6  C   UNL     1       1.923  -3.658  -2.460  0.00  0.00    +0.010 A 
ATOM      7  C   UNL     1       1.275  -4.447  -3.357  0.00  0.00    +0.001 A 
ATOM      8  C   UNL     1       0.028  -4.126  -3.903  0.00  0.00    +0.002 A 
ATOM      9  C   UNL     1      -0.671  -3.001  -3.610  0.00  0.00    +0.026 A 
ATOM     10  C   UNL     1      -0.088  -2.089  -2.684  0.00  0.00    +0.043 A 
ATOM     11  N   UNL     1      -0.519  -0.961  -2.236  0.00  0.00    -0.375 N 
ATOM     12  C   UNL     1       2.696  -1.299  -0.243  0.00  0.00    +0.052 C 
ATOM     13  C   UNL     1       2.032  -1.199   1.133  0.00  0.00    +0.113 C 
ATOM     14  N   UNL     1       0.822  -0.399   1.137  0.00  0.00    -0.284 N 
ATOM     15  C   UNL     1       0.347   0.006   2.361  0.00  0.00    +0.236 C 
ATOM     16  O   UNL     1       0.985  -0.162   3.379  0.00  0.00    -0.274 OA
ATOM     17  C   UNL     1      -1.012   0.675   2.379  0.00  0.00    +0.230 C 
ATOM     18  N   UNL     1      -1.918  -0.074   1.488  0.00  0.00    -0.182 N 
ATOM     19  C   UNL     1      -1.427  -0.408   0.257  0.00  0.00    +0.261 C 
ATOM     20  O   UNL     1      -2.095  -0.986  -0.574  0.00  0.00    -0.271 OA
ATOM     21  H   UNL     1      -1.378  -0.567  -2.454  0.00  0.00    +0.160 HD
ENDROOT
BRANCH  18  22
ATOM     22  N   UNL     1      -3.215  -0.426   1.884  0.00  0.00    -0.180 NA
ATOM     23  C   UNL     1      -3.687   0.000   3.018  0.00  0.00    +0.197 C 
BRANCH  23  24
ATOM     24  C   UNL     1      -4.998  -0.461   3.487  0.00  0.00    +0.257 C 
ATOM     25  O   UNL     1      -5.644  -1.243   2.815  0.00  0.00    -0.269 OA
ATOM     26  N   UNL     1      -5.487  -0.019   4.663  0.00  0.00    -0.310 N 
ATOM     27  H   UNL     1      -4.972   0.604   5.199  0.00  0.00    +0.149 HD
BRANCH  26  28
ATOM     28  C   UNL     1      -6.797  -0.480   5.131  0.00  0.00    +0.109 C 
BRANCH  28  29
ATOM     29  C   UNL     1      -7.113   0.167   6.481  0.00  0.00    +0.052 C 
BRANCH  29  30
ATOM     30  C   UNL     1      -8.460  -0.307   6.963  0.00  0.00    -0.040 C 
ATOM     31  C   UNL     1      -8.706  -1.331   7.810  0.00  0.00    -0.001 A 
ATOM     32  C   UNL     1      -7.827  -2.276   8.510  0.00  0.00    +0.010 A 
ATOM     33  C   UNL     1      -8.379  -3.216   9.311  0.00  0.00    +0.001 A 
ATOM     34  C   UNL     1      -9.766  -3.311   9.488  0.00  0.00    +0.002 A 
ATOM     35  C   UNL     1     -10.638  -2.479   8.879  0.00  0.00    +0.026 A 
ATOM     36  C   UNL     1     -10.167  -1.452   8.015  0.00  0.00    +0.043 A 
ATOM     37  N   UNL     1     -10.800  -0.538   7.320  0.00  0.00    -0.380 N 
ATOM     38  C   UNL     1      -9.810   0.272   6.601  0.00  0.00    +0.144 C 
ATOM     39  H   UNL     1     -11.761  -0.414   7.290  0.00  0.00    +0.160 HD
ENDBRANCH  29  30
ENDBRANCH  28  29
ENDBRANCH  26  28
ENDBRANCH  23  24
ENDBRANCH  18  22
TORSDOF 5
