REMARK  Name = ZINC64735101
REMARK  10 active torsions:
REMARK  status: ('A' for Active; 'I' for Inactive)
REMARK    1  A    between atoms: C_1  and  C_2
REMARK    2  A    between atoms: C_4  and  S_9
REMARK    3  A    between atoms: C_5  and  C_8
REMARK    4  A    between atoms: S_9  and  N_12
REMARK    5  A    between atoms: N_12  and  C_13
REMARK    6  A    between atoms: C_13  and  C_14
REMARK    7  A    between atoms: C_14  and  C_15
REMARK    8  A    between atoms: N_17  and  C_18
REMARK    9  A    between atoms: C_18  and  C_19
REMARK   10  A    between atoms: C_19  and  C_20
REMARK                            x       y       z     vdW  Elec       q    Type
REMARK                         _______ _______ _______ _____ _____    ______ ____
ROOT
ATOM      1  C   UNL     1       3.686   3.522  -3.953  0.00  0.00    +0.214 C 
ATOM      2  O   UNL     1       4.523   2.812  -3.436  0.00  0.00    -0.276 OA
ATOM      3  N   UNL     1       4.050   4.687  -4.524  0.00  0.00    -0.315 N 
ATOM      4  H   UNL     1       3.380   5.254  -4.937  0.00  0.00    +0.149 HD
ENDROOT
BRANCH   1   5
ATOM      5  C   UNL     1       2.239   3.101  -3.955  0.00  0.00    +0.112 C 
BRANCH   5   6
ATOM      6  C   UNL     1       2.099   1.751  -3.249  0.00  0.00    +0.115 C 
BRANCH   6   7
ATOM      7  N   UNL     1       0.692   1.342  -3.251  0.00  0.00    -0.190 NA
ATOM      8  H   UNL     1      -0.001   1.988  -3.461  0.00  0.00    +0.148 HD
BRANCH   7   9
ATOM      9  S   UNL     1       0.284  -0.224  -2.897  0.00  0.00    +0.059 S 
ATOM     10  O   UNL     1       1.123  -1.052  -3.691  0.00  0.00    -0.153 OA
ATOM     11  O   UNL     1      -1.134  -0.297  -2.954  0.00  0.00    -0.153 OA
BRANCH   9  14
ATOM     12  C   UNL     1      -0.019   1.526   0.010  0.00  0.00    +0.047 C 
ATOM     13  C   UNL     1       0.002  -0.004   0.002  0.00  0.00    +0.196 C 
ATOM     14  C   UNL     1       0.735  -0.512  -1.218  0.00  0.00    +0.134 C 
ATOM     15  C   UNL     1       1.772  -1.208  -0.801  0.00  0.00    +0.061 C 
ATOM     16  N   UNL     1       1.832  -1.235   0.581  0.00  0.00    -0.268 N 
ATOM     17  O   UNL     1       0.748  -0.498   1.124  0.00  0.00    -0.265 OA
ATOM     18  C   UNL     1       2.763  -1.888  -1.710  0.00  0.00    +0.067 C 
ATOM     19  H   UNL     1       2.513  -1.690   1.100  0.00  0.00    +0.194 HD
ENDBRANCH   9  14
ENDBRANCH   7   9
ENDBRANCH   6   7
ENDBRANCH   5   6
ENDBRANCH   1   5
BRANCH   3  20
ATOM     20  C   UNL     1       5.457   5.096  -4.521  0.00  0.00    +0.108 C 
BRANCH  20  21
ATOM     21  C   UNL     1       5.596   6.445  -5.228  0.00  0.00    +0.052 C 
BRANCH  21  22
ATOM     22  C   UNL     1       7.043   6.866  -5.226  0.00  0.00    -0.040 C 
ATOM     23  C   UNL     1       7.949   6.670  -6.211  0.00  0.00    -0.001 A 
ATOM     24  C   UNL     1       7.862   6.030  -7.529  0.00  0.00    +0.010 A 
ATOM     25  C   UNL     1       8.964   5.985  -8.311  0.00  0.00    +0.001 A 
ATOM     26  C   UNL     1      10.186   6.533  -7.895  0.00  0.00    +0.002 A 
ATOM     27  C   UNL     1      10.344   7.137  -6.698  0.00  0.00    +0.026 A 
ATOM     28  C   UNL     1       9.250   7.241  -5.795  0.00  0.00    +0.043 A 
ATOM     29  N   UNL     1       9.152   7.770  -4.600  0.00  0.00    -0.380 N 
ATOM     30  C   UNL     1       7.775   7.599  -4.123  0.00  0.00    +0.144 C 
ATOM     31  H   UNL     1       9.870   8.205  -4.113  0.00  0.00    +0.160 HD
ENDBRANCH  21  22
ENDBRANCH  20  21
ENDBRANCH   3  20
TORSDOF 8
