REMARK  Name = ZINC08297068
REMARK  8 active torsions:
REMARK  status: ('A' for Active; 'I' for Inactive)
REMARK    1  A    between atoms: C_1  and  C_2
REMARK    2  A    between atoms: C_2  and  C_3
REMARK    3  A    between atoms: C_2  and  C_4
REMARK    4  A    between atoms: C_2  and  C_32
REMARK    5  A    between atoms: C_4  and  C_5
REMARK    6  A    between atoms: N_7  and  C_8
REMARK    7  A    between atoms: C_19  and  C_26
REMARK    8  A    between atoms: C_32  and  C_33
REMARK                            x       y       z     vdW  Elec       q    Type
REMARK                         _______ _______ _______ _____ _____    ______ ____
ROOT
ATOM      1  C   UNL     1       2.998   3.883  -0.006  0.00  0.00    +0.092 C 
ATOM      2  C   UNL     1       3.059   5.310  -0.611  0.00  0.00    +0.055 C 
ATOM      3  C   UNL     1       4.317   5.910   0.050  0.00  0.00    +0.164 C 
ATOM      4  C   UNL     1       4.051   7.347   0.418  0.00  0.00    +0.238 C 
ATOM      5  O   UNL     1       2.982   7.843   0.133  0.00  0.00    -0.273 OA
ATOM      6  N   UNL     1       4.961   8.083   1.048  0.00  0.00    -0.283 N 
ATOM      7  C   UNL     1       6.240   7.697   1.397  0.00  0.00    +0.046 A 
ATOM      8  C   UNL     1       7.261   8.633   1.194  0.00  0.00    +0.024 A 
ATOM      9  C   UNL     1       8.562   8.342   1.524  0.00  0.00    +0.010 A 
ATOM     10  C   UNL     1       8.885   7.099   2.072  0.00  0.00    -0.017 A 
ATOM     11  C   UNL     1       7.887   6.158   2.274  0.00  0.00    +0.023 A 
ATOM     12  C   UNL     1       6.558   6.448   1.931  0.00  0.00    +0.059 A 
ATOM     13  C   UNL     1       5.557   5.393   2.152  0.00  0.00    +0.249 C 
ATOM     14  O   UNL     1       5.644   4.705   3.152  0.00  0.00    -0.270 OA
ATOM     15  N   UNL     1       4.554   5.160   1.295  0.00  0.00    -0.284 N 
ATOM     16  C   UNL     1       3.508   4.133   1.435  0.00  0.00    +0.131 C 
ATOM     17  H   UNL     1       4.699   8.986   1.288  0.00  0.00    +0.155 HD
ENDROOT
BRANCH  10  18
ATOM     18  C   UNL     1      10.289   6.786   2.436  0.00  0.00    -0.018 A 
ATOM     19  C   UNL     1      10.609   5.547   2.987  0.00  0.00    +0.008 A 
ATOM     20  C   UNL     1      11.917   5.259   3.319  0.00  0.00    +0.001 A 
ATOM     21  C   UNL     1      12.909   6.202   3.115  0.00  0.00    +0.000 A 
ATOM     22  C   UNL     1      12.596   7.436   2.573  0.00  0.00    +0.001 A 
ATOM     23  C   UNL     1      11.291   7.732   2.232  0.00  0.00    +0.008 A 
ENDBRANCH  10  18
BRANCH   1  26
ATOM     24  C   UNL     1       1.395   2.047  -0.000  0.00  0.00    +0.214 C 
ATOM     25  O   UNL     1       2.328   1.272  -0.013  0.00  0.00    -0.276 OA
ATOM     26  N   UNL     1       1.623   3.376   0.005  0.00  0.00    -0.311 N 
ATOM     27  H   UNL     1       0.878   3.996   0.015  0.00  0.00    +0.149 HD
BRANCH  24  28
ATOM     28  C   UNL     1      -0.019   1.526   0.010  0.00  0.00    +0.102 C 
BRANCH  28  30
ATOM     29  C   UNL     1       0.718  -0.497  -1.257  0.00  0.00    +0.012 C 
ATOM     30  C   UNL     1       0.002  -0.004   0.002  0.00  0.00    -0.016 C 
ATOM     31  C   UNL     1       0.742  -0.511   1.242  0.00  0.00    +0.012 C 
BRANCH  30  32
ATOM     32  C   UNL     1      -1.433  -0.534   0.013  0.00  0.00    +0.132 C 
BRANCH  32  33
ATOM     33  C   UNL     1      -1.413  -2.041   0.005  0.00  0.00    +0.357 C 
ATOM     34  O   UNL     1      -0.358  -2.630  -0.009  0.00  0.00    -0.246 OA
ATOM     35  O   UNL     1      -2.566  -2.727   0.012  0.00  0.00    -0.246 OA
ENDBRANCH  32  33
ENDBRANCH  30  32
ENDBRANCH  28  30
ENDBRANCH  24  28
ENDBRANCH   1  26
TORSDOF 6
