REMARK  Name = ZINC12669941
REMARK  11 active torsions:
REMARK  status: ('A' for Active; 'I' for Inactive)
REMARK    1  A    between atoms: C_1  and  C_2
REMARK    2  A    between atoms: C_2  and  C_4
REMARK    3  A    between atoms: C_2  and  N_7
REMARK    4  A    between atoms: C_4  and  C_5
REMARK    5  A    between atoms: C_4  and  C_6
REMARK    6  A    between atoms: N_7  and  C_8
REMARK    7  A    between atoms: C_8  and  C_10
REMARK    8  A    between atoms: C_8  and  C_11
REMARK    9  A    between atoms: N_13  and  C_14
REMARK   10  A    between atoms: C_14  and  C_15
REMARK   11  A    between atoms: N_17  and  C_18
REMARK                            x       y       z     vdW  Elec       q    Type
REMARK                         _______ _______ _______ _____ _____    ______ ____
ROOT
ATOM      1  C   UNL     1       0.452  -0.997   3.580  0.00  0.00    +0.199 C 
ATOM      2  O   UNL     1       1.513  -1.579   3.501  0.00  0.00    -0.278 OA
ATOM      3  N   UNL     1      -0.128  -0.814   4.783  0.00  0.00    -0.308 N 
ATOM      4  H   UNL     1      -0.977  -0.349   4.846  0.00  0.00    +0.149 HD
ENDROOT
BRANCH   1   5
ATOM      5  C   UNL     1      -0.218  -0.479   2.334  0.00  0.00    +0.013 C 
ATOM      6  C   UNL     1      -0.383   1.038   2.437  0.00  0.00    -0.004 C 
BRANCH   5   7
ATOM      7  N   UNL     1       0.608  -0.803   1.163  0.00  0.00    +0.388 N 
ATOM      8  H   UNL     1       0.807  -1.792   1.155  0.00  0.00    -0.084 HD
ATOM      9  H   UNL     1       1.474  -0.286   1.209  0.00  0.00    -0.084 HD
BRANCH   7  11
ATOM     10  C   UNL     1       0.799  -0.638  -1.273  0.00  0.00    -0.013 C 
ATOM     11  C   UNL     1      -0.115  -0.438  -0.062  0.00  0.00    -0.071 C 
BRANCH  11  12
ATOM     12  C   UNL     1      -1.353  -1.325  -0.207  0.00  0.00    -0.032 C 
ATOM     13  C   UNL     1      -2.107  -0.946  -1.483  0.00  0.00    +0.005 C 
ATOM     14  C   UNL     1      -0.924  -2.792  -0.285  0.00  0.00    +0.005 C 
ENDBRANCH  11  12
ENDBRANCH   7  11
ENDBRANCH   5   7
ENDBRANCH   1   5
BRANCH   3  15
ATOM     15  C   UNL     1       0.523  -1.318   5.995  0.00  0.00    +0.200 C 
BRANCH  15  16
ATOM     16  C   UNL     1      -0.324  -0.986   7.196  0.00  0.00    +0.234 C 
ATOM     17  O   UNL     1      -1.369  -0.387   7.053  0.00  0.00    -0.274 OA
ATOM     18  N   UNL     1       0.080  -1.354   8.428  0.00  0.00    -0.282 N 
ATOM     19  H   UNL     1       0.950  -1.765   8.551  0.00  0.00    +0.155 HD
BRANCH  18  20
ATOM     20  C   UNL     1      -0.758  -1.144   9.531  0.00  0.00    +0.072 A 
ATOM     21  C   UNL     1      -2.136  -1.224   9.383  0.00  0.00    +0.029 A 
ATOM     22  C   UNL     1      -2.962  -1.016  10.471  0.00  0.00    +0.043 A 
ATOM     23  C   UNL     1      -2.417  -0.730  11.711  0.00  0.00    +0.161 A 
ATOM     24  C   UNL     1      -1.042  -0.650  11.864  0.00  0.00    +0.195 A 
ATOM     25  C   UNL     1      -0.210  -0.863  10.777  0.00  0.00    +0.182 A 
ATOM     26  F   UNL     1       1.130  -0.791  10.926  0.00  0.00    -0.200 F 
ATOM     27  F   UNL     1      -0.512  -0.369  13.075  0.00  0.00    -0.199 F 
ATOM     28  F   UNL     1      -3.227  -0.527  12.773  0.00  0.00    -0.202 F 
ENDBRANCH  18  20
ENDBRANCH  15  16
ENDBRANCH   3  15
TORSDOF 7
