REMARK  Name = ZINC64076097
REMARK  9 active torsions:
REMARK  status: ('A' for Active; 'I' for Inactive)
REMARK    1  A    between atoms: C_1  and  C_2
REMARK    2  A    between atoms: C_4  and  C_32
REMARK    3  A    between atoms: C_8  and  C_12
REMARK    4  A    between atoms: C_12  and  S_13
REMARK    5  A    between atoms: S_13  and  C_14
REMARK    6  A    between atoms: C_14  and  C_16
REMARK    7  A    between atoms: C_14  and  C_17
REMARK    8  A    between atoms: N_19  and  C_20
REMARK    9  A    between atoms: C_25  and  N_26
REMARK                            x       y       z     vdW  Elec       q    Type
REMARK                         _______ _______ _______ _____ _____    ______ ____
ROOT
ATOM      1  C   UNL     1       7.548  -5.079  -0.574  0.00  0.00    +0.130 C 
ATOM      2  C   UNL     1       7.037  -6.306   0.184  0.00  0.00    +0.029 C 
ENDROOT
BRANCH   1   3
ATOM      3  C   UNL     1       8.436  -5.523  -1.708  0.00  0.00    +0.230 C 
ATOM      4  O   UNL     1       7.998  -5.572  -2.838  0.00  0.00    -0.274 OA
ATOM      5  N   UNL     1       9.717  -5.865  -1.466  0.00  0.00    -0.282 N 
ATOM      6  H   UNL     1      10.090  -5.750  -0.579  0.00  0.00    +0.155 HD
BRANCH   5   7
ATOM      7  C   UNL     1      10.508  -6.387  -2.497  0.00  0.00    +0.078 A 
ATOM      8  C   UNL     1       9.921  -7.029  -3.582  0.00  0.00    +0.028 A 
ATOM      9  C   UNL     1      10.746  -7.529  -4.578  0.00  0.00    +0.022 A 
ATOM     10  C   UNL     1      12.115  -7.376  -4.464  0.00  0.00    +0.113 A 
ATOM     11  N   UNL     1      12.646  -6.763  -3.424  0.00  0.00    -0.235 NA
ATOM     12  C   UNL     1      11.897  -6.266  -2.453  0.00  0.00    +0.175 A 
BRANCH  12  13
ATOM     13  N   UNL     1      12.504  -5.618  -1.372  0.00  0.00    -0.220 N 
ATOM     14  C   UNL     1      13.775  -5.811  -0.934  0.00  0.00    +0.116 A 
ATOM     15  C   UNL     1      13.970  -4.997   0.128  0.00  0.00    +0.041 A 
ATOM     16  C   UNL     1      12.786  -4.284   0.349  0.00  0.00    +0.135 A 
ATOM     17  N   UNL     1      11.911  -4.650  -0.551  0.00  0.00    -0.173 NA
ENDBRANCH  12  13
ENDBRANCH   5   7
ENDBRANCH   1   3
BRANCH   1  18
ATOM     18  S   UNL     1       6.139  -4.148  -1.238  0.00  0.00    -0.141 S 
BRANCH  18  19
ATOM     19  C   UNL     1       5.264  -3.563   0.239  0.00  0.00    +0.143 C 
BRANCH  19  26
ATOM     20  C   UNL     1      -0.055   1.470   0.049  0.00  0.00    +0.024 C 
ATOM     21  C   UNL     1      -0.027  -0.059   0.031  0.00  0.00    +0.076 C 
ATOM     22  C   UNL     1       0.744  -0.573  -1.164  0.00  0.00    -0.045 C 
ATOM     23  C   UNL     1       1.846  -1.301  -0.930  0.00  0.00    +0.071 C 
ATOM     24  C   UNL     1       2.221  -1.546   0.479  0.00  0.00    +0.111 C 
ATOM     25  N   UNL     1       3.287  -2.251   0.772  0.00  0.00    -0.227 NA
ATOM     26  C   UNL     1       4.056  -2.764  -0.176  0.00  0.00    +0.133 C 
ATOM     27  N   UNL     1       3.821  -2.613  -1.457  0.00  0.00    -0.161 NA
ATOM     28  C   UNL     1       2.777  -1.921  -1.926  0.00  0.00    +0.271 C 
ATOM     29  O   UNL     1       2.589  -1.801  -3.124  0.00  0.00    -0.268 OA
ATOM     30  S   UNL     1       0.971  -0.716   1.429  0.00  0.00    -0.098 S 
ATOM     31  C   UNL     1       0.289  -0.277  -2.570  0.00  0.00    +0.041 C 
ENDBRANCH  19  26
ENDBRANCH  18  19
ENDBRANCH   1  18
TORSDOF 6
