REMARK  Name = ZINC46973787
REMARK  6 active torsions:
REMARK  status: ('A' for Active; 'I' for Inactive)
REMARK    1  A    between atoms: C_1  and  C_2
REMARK    2  A    between atoms: C_2  and  C_4
REMARK    3  A    between atoms: C_2  and  N_10
REMARK    4  A    between atoms: N_13  and  N_14
REMARK    5  A    between atoms: C_15  and  C_17
REMARK    6  A    between atoms: C_17  and  C_18
REMARK                            x       y       z     vdW  Elec       q    Type
REMARK                         _______ _______ _______ _____ _____    ______ ____
ROOT
ATOM      1  N   UNL     1       1.987  -1.396   3.416  0.00  0.00    -0.233 N 
ATOM      2  C   UNL     1       2.639  -1.842   4.508  0.00  0.00    +0.230 C 
ATOM      3  O   UNL     1       3.848  -1.941   4.495  0.00  0.00    -0.274 OA
ATOM      4  H   UNL     1       1.020  -1.316   3.427  0.00  0.00    +0.173 HD
ENDROOT
BRANCH   1   8
ATOM      5  N   UNL     1       0.711  -0.489   1.189  0.00  0.00    -0.293 N 
ATOM      6  C   UNL     1       2.054  -0.600   1.174  0.00  0.00    +0.316 C 
ATOM      7  O   UNL     1       2.677  -0.297   0.175  0.00  0.00    -0.251 OA
ATOM      8  N   UNL     1       2.706  -1.046   2.266  0.00  0.00    -0.218 N 
ATOM      9  H   UNL     1       0.213  -0.731   1.986  0.00  0.00    +0.151 HD
ATOM     10  H   UNL     1       3.672  -1.126   2.255  0.00  0.00    +0.174 HD
BRANCH   5  12
ATOM     11  C   UNL     1      -0.019   1.526   0.010  0.00  0.00    +0.030 C 
ATOM     12  C   UNL     1       0.002  -0.004   0.002  0.00  0.00    +0.100 C 
BRANCH  12  13
ATOM     13  C   UNL     1      -1.433  -0.534   0.013  0.00  0.00    +0.138 C 
ATOM     14  C   UNL     1      -2.151  -0.128  -1.292  0.00  0.00    +0.035 C 
ATOM     15  C   UNL     1      -3.577   0.225  -0.788  0.00  0.00    +0.031 C 
ATOM     16  C   UNL     1      -3.257   0.825   0.604  0.00  0.00    +0.160 C 
ATOM     17  O   UNL     1      -2.157   0.046   1.105  0.00  0.00    -0.375 OA
ENDBRANCH  12  13
ENDBRANCH   5  12
ENDBRANCH   1   8
BRANCH   2  18
ATOM     18  C   UNL     1       1.866  -2.218   5.746  0.00  0.00    +0.104 C 
BRANCH  18  19
ATOM     19  C   UNL     1       2.837  -2.689   6.830  0.00  0.00    -0.020 C 
ATOM     20  C   UNL     1       3.816  -1.562   7.163  0.00  0.00    +0.011 C 
ATOM     21  C   UNL     1       4.787  -2.033   8.247  0.00  0.00    -0.010 C 
ATOM     22  C   UNL     1       4.003  -2.414   9.504  0.00  0.00    +0.007 C 
ATOM     23  C   UNL     1       3.023  -3.542   9.171  0.00  0.00    -0.010 C 
ATOM     24  C   UNL     1       2.052  -3.071   8.087  0.00  0.00    +0.011 C 
ATOM     25  C   UNL     1       3.800  -4.759   8.666  0.00  0.00    +0.007 C 
ATOM     26  C   UNL     1       4.585  -4.378   7.409  0.00  0.00    -0.010 C 
ATOM     27  C   UNL     1       5.564  -3.250   7.742  0.00  0.00    +0.007 C 
ATOM     28  C   UNL     1       3.614  -3.906   6.325  0.00  0.00    +0.011 C 
ENDBRANCH  18  19
ENDBRANCH   2  18
TORSDOF 5
