REMARK  Name = ZINC21648059
REMARK  10 active torsions:
REMARK  status: ('A' for Active; 'I' for Inactive)
REMARK    1  A    between atoms: C_1  and  C_2
REMARK    2  A    between atoms: C_2  and  N_3
REMARK    3  A    between atoms: C_7  and  C_9
REMARK    4  A    between atoms: C_9  and  N_10
REMARK    5  A    between atoms: C_11  and  C_13
REMARK    6  A    between atoms: N_16  and  S_19
REMARK    7  A    between atoms: S_19  and  C_22
REMARK    8  A    between atoms: C_23  and  C_36
REMARK    9  A    between atoms: C_26  and  C_27
REMARK   10  A    between atoms: C_28  and  C_29
REMARK                            x       y       z     vdW  Elec       q    Type
REMARK                         _______ _______ _______ _____ _____    ______ ____
ROOT
ATOM      1  C   UNL     1       0.155   0.630  -0.207  0.00  0.00    +0.077 C 
ATOM      2  C   UNL     1      -0.662   0.888   1.061  0.00  0.00    +0.030 C 
ATOM      3  C   UNL     1      -1.984   0.119   0.978  0.00  0.00    +0.110 C 
ATOM      4  N   UNL     1      -2.669   0.490  -0.268  0.00  0.00    -0.176 NA
ATOM      5  C   UNL     1      -1.942   0.366  -1.538  0.00  0.00    +0.110 C 
ATOM      6  C   UNL     1      -0.620   1.133  -1.427  0.00  0.00    +0.030 C 
ENDROOT
BRANCH   1   8
ATOM      7  N   UNL     1       2.327   1.078   0.889  0.00  0.00    -0.317 N 
ATOM      8  C   UNL     1       1.471   1.358  -0.113  0.00  0.00    +0.216 C 
ATOM      9  O   UNL     1       1.760   2.197  -0.940  0.00  0.00    -0.276 OA
ATOM     10  H   UNL     1       2.065   0.317   1.639  0.00  0.00    +0.149 HD
BRANCH   7  11
ATOM     11  C   UNL     1       3.606   1.786   0.980  0.00  0.00    +0.089 C 
BRANCH  11  16
ATOM     12  N   UNL     1       3.493   1.785   3.448  0.00  0.00    +0.382 N 
ATOM     13  C   UNL     1       4.393   2.248   4.520  0.00  0.00    -0.078 C 
ATOM     14  C   UNL     1       5.835   2.163   3.976  0.00  0.00    -0.020 C 
ATOM     15  C   UNL     1       5.632   2.194   2.437  0.00  0.00    -0.016 C 
ATOM     16  C   UNL     1       4.313   1.397   2.280  0.00  0.00    -0.051 C 
ATOM     17  H   UNL     1       2.805   2.596   3.168  0.00  0.00    -0.081 HD
BRANCH  12  19
ATOM     18  C   UNL     1       1.928   1.061   5.187  0.00  0.00    -0.017 C 
ATOM     19  C   UNL     1       2.664   0.662   3.906  0.00  0.00    -0.082 C 
ENDBRANCH  12  19
ENDBRANCH  11  16
ENDBRANCH   7  11
ENDBRANCH   1   8
BRANCH   4  20
ATOM     20  S   UNL     1      -4.232   1.038  -0.240  0.00  0.00    +0.066 S 
ATOM     21  O   UNL     1      -4.453   1.567   1.060  0.00  0.00    -0.153 OA
ATOM     22  O   UNL     1      -4.412   1.811  -1.419  0.00  0.00    -0.153 OA
BRANCH  20  23
ATOM     23  C   UNL     1      -5.280  -0.370  -0.396  0.00  0.00    +0.174 A 
ATOM     24  C   UNL     1      -5.783  -0.951  -1.576  0.00  0.00    +0.107 A 
ATOM     25  N   UNL     1      -6.509  -1.971  -1.210  0.00  0.00    -0.081 NA
ATOM     26  O   UNL     1      -6.537  -2.100  -0.009  0.00  0.00    -0.353 OA
ATOM     27  C   UNL     1      -5.803  -1.152   0.605  0.00  0.00    +0.187 A 
ATOM     28  C   UNL     1      -5.530  -0.487  -2.987  0.00  0.00    +0.071 C 
BRANCH  27  29
ATOM     29  C   UNL     1      -5.602  -0.989   2.047  0.00  0.00    +0.052 C 
ATOM     30  C   UNL     1      -6.185  -1.844   2.910  0.00  0.00    +0.014 C 
BRANCH  30  31
ATOM     31  C   UNL     1      -5.984  -1.679   4.359  0.00  0.00    +0.010 A 
ATOM     32  C   UNL     1      -5.187  -0.638   4.844  0.00  0.00    +0.011 A 
ATOM     33  C   UNL     1      -5.003  -0.490   6.202  0.00  0.00    +0.001 A 
ATOM     34  C   UNL     1      -5.604  -1.370   7.087  0.00  0.00    +0.003 A 
ATOM     35  C   UNL     1      -6.393  -2.404   6.617  0.00  0.00    +0.039 A 
ATOM     36  C   UNL     1      -6.593  -2.562   5.258  0.00  0.00    +0.131 A 
ATOM     37  F   UNL     1      -7.369  -3.569   4.801  0.00  0.00    -0.205 F 
ENDBRANCH  30  31
ENDBRANCH  27  29
ENDBRANCH  20  23
ENDBRANCH   4  20
TORSDOF 8
