REMARK  Name = ZINC41802940
REMARK  5 active torsions:
REMARK  status: ('A' for Active; 'I' for Inactive)
REMARK    1  A    between atoms: C_1  and  C_2
REMARK    2  A    between atoms: C_2  and  C_4
REMARK    3  A    between atoms: C_2  and  N_9
REMARK    4  A    between atoms: N_9  and  C_10
REMARK    5  A    between atoms: C_10  and  C_20
REMARK                            x       y       z     vdW  Elec       q    Type
REMARK                         _______ _______ _______ _____ _____    ______ ____
ROOT
ATOM      1  C   UNL     1       2.254  -0.197   1.109  0.00  0.00    +0.069 C 
ATOM      2  C   UNL     1       3.453   0.166   1.988  0.00  0.00    +0.044 C 
ATOM      3  C   UNL     1       2.935   0.914   3.224  0.00  0.00    +0.228 C 
ATOM      4  O   UNL     1       2.357   2.147   2.794  0.00  0.00    -0.492 OA
ATOM      5  C   UNL     1       1.468   2.108   1.768  0.00  0.00    +0.123 A 
ATOM      6  C   UNL     1       1.374   1.014   0.925  0.00  0.00    -0.006 A 
ATOM      7  C   UNL     1       0.455   1.019  -0.111  0.00  0.00    +0.006 A 
ATOM      8  C   UNL     1      -0.370   2.110  -0.306  0.00  0.00    +0.000 A 
ATOM      9  C   UNL     1      -0.281   3.203   0.536  0.00  0.00    +0.004 A 
ATOM     10  C   UNL     1       0.634   3.204   1.569  0.00  0.00    +0.046 A 
ENDROOT
BRANCH   1  11
ATOM     11  N   UNL     1       1.483  -1.269   1.751  0.00  0.00    +0.399 N 
ATOM     12  H   UNL     1       0.751  -1.577   1.129  0.00  0.00    -0.083 HD
ATOM     13  H   UNL     1       1.074  -0.923   2.606  0.00  0.00    -0.083 HD
BRANCH  11  15
ATOM     14  C   UNL     1       2.845  -3.041   0.751  0.00  0.00    -0.006 C 
ATOM     15  C   UNL     1       2.373  -2.397   2.056  0.00  0.00    -0.005 C 
BRANCH  15  16
ATOM     16  C   UNL     1       1.628  -3.417   2.878  0.00  0.00    +0.091 A 
ATOM     17  C   UNL     1       2.128  -4.105   3.921  0.00  0.00    +0.043 A 
ATOM     18  C   UNL     1       1.093  -4.944   4.392  0.00  0.00    +0.041 A 
ATOM     19  C   UNL     1       0.022  -4.720   3.609  0.00  0.00    +0.195 A 
ATOM     20  O   UNL     1       0.350  -3.790   2.697  0.00  0.00    -0.469 OA
ENDBRANCH  15  16
ENDBRANCH  11  15
ENDBRANCH   1  11
BRANCH   1  21
ATOM     21  C   UNL     1       2.744  -0.668  -0.236  0.00  0.00    +0.350 C 
ATOM     22  O   UNL     1       1.998  -1.288  -0.975  0.00  0.00    -0.248 OA
ATOM     23  O   UNL     1       3.888  -0.431  -0.585  0.00  0.00    -0.248 OA
ENDBRANCH   1  21
TORSDOF 4
