REMARK  Name = ZINC12321364
REMARK  7 active torsions:
REMARK  status: ('A' for Active; 'I' for Inactive)
REMARK    1  A    between atoms: C_1  and  C_2
REMARK    2  A    between atoms: C_15  and  O_32
REMARK    3  A    between atoms: C_16  and  C_17
REMARK    4  A    between atoms: C_20  and  C_23
REMARK    5  A    between atoms: C_26  and  O_31
REMARK    6  A    between atoms: C_27  and  O_29
REMARK    7  A    between atoms: O_29  and  C_30
REMARK                            x       y       z     vdW  Elec       q    Type
REMARK                         _______ _______ _______ _____ _____    ______ ____
ROOT
ATOM      1  C   UNL     1       3.744  -0.664  -0.026  0.00  0.00    +0.044 C 
ATOM      2  C   UNL     1       2.423   0.061  -0.015  0.00  0.00    -0.035 A 
ATOM      3  C   UNL     1       2.401   1.438  -0.010  0.00  0.00    +0.051 A 
ATOM      4  C   UNL     1       1.190   2.118   0.002  0.00  0.00    +0.143 A 
ATOM      5  C   UNL     1      -0.017   1.397   0.010  0.00  0.00    +0.063 A 
ATOM      6  C   UNL     1      -1.291   2.128   0.032  0.00  0.00    -0.023 A 
ATOM      7  C   UNL     1      -1.254   3.478   0.037  0.00  0.00    +0.041 A 
ATOM      8  C   UNL     1      -0.001   4.139   0.021  0.00  0.00    +0.341 A 
ATOM      9  O   UNL     1       0.023   5.357   0.021  0.00  0.00    -0.245 OA
ATOM     10  O   UNL     1       1.158   3.469   0.005  0.00  0.00    -0.422 OA
ATOM     11  C   UNL     1      -2.499   4.324   0.076  0.00  0.00    +0.042 C 
ATOM     12  C   UNL     1      -3.721   3.508  -0.329  0.00  0.00    +0.005 C 
ATOM     13  C   UNL     1      -3.740   2.212   0.490  0.00  0.00    +0.005 C 
ATOM     14  C   UNL     1      -2.571   1.340   0.034  0.00  0.00    +0.036 C 
ATOM     15  C   UNL     1       0.002  -0.004   0.002  0.00  0.00    +0.137 A 
ATOM     16  C   UNL     1       1.231  -0.671  -0.010  0.00  0.00    +0.043 A 
ENDROOT
BRANCH  16  17
ATOM     17  C   UNL     1       1.270  -2.145  -0.017  0.00  0.00    +0.072 C 
ATOM     18  N   UNL     1       1.276  -2.884  -1.072  0.00  0.00    -0.190 NA
ATOM     19  N   UNL     1       1.320  -4.251  -0.809  0.00  0.00    -0.261 N 
ATOM     20  C   UNL     1       1.336  -4.456   0.648  0.00  0.00    +0.125 C 
ATOM     21  C   UNL     1       1.302  -3.023   1.214  0.00  0.00    +0.086 C 
ATOM     22  H   UNL     1       1.334  -4.954  -1.478  0.00  0.00    +0.169 HD
BRANCH  20  23
ATOM     23  C   UNL     1       2.596  -5.165   1.073  0.00  0.00    -0.022 A 
ATOM     24  C   UNL     1       3.781  -4.928   0.401  0.00  0.00    +0.009 A 
ATOM     25  C   UNL     1       4.941  -5.572   0.791  0.00  0.00    +0.049 A 
ATOM     26  C   UNL     1       4.915  -6.465   1.850  0.00  0.00    +0.158 A 
ATOM     27  C   UNL     1       3.721  -6.707   2.523  0.00  0.00    +0.162 A 
ATOM     28  C   UNL     1       2.564  -6.054   2.131  0.00  0.00    +0.055 A 
BRANCH  27  29
ATOM     29  O   UNL     1       3.691  -7.583   3.563  0.00  0.00    -0.491 OA
ATOM     30  C   UNL     1       2.430  -7.782   4.207  0.00  0.00    +0.277 C 
ENDBRANCH  27  29
BRANCH  26  31
ATOM     31  O   UNL     1       6.054  -7.103   2.232  0.00  0.00    -0.503 OA
ATOM     32  H   UNL     1       6.201  -7.947   1.783  0.00  0.00    +0.292 HD
ENDBRANCH  26  31
ENDBRANCH  20  23
ENDBRANCH  16  17
BRANCH  15  33
ATOM     33  O   UNL     1      -1.159  -0.706   0.006  0.00  0.00    -0.505 OA
ATOM     34  H   UNL     1      -1.501  -0.904  -0.877  0.00  0.00    +0.292 HD
ENDBRANCH  15  33
TORSDOF 5
