REMARK  Name = ZINC67268717
REMARK  7 active torsions:
REMARK  status: ('A' for Active; 'I' for Inactive)
REMARK    1  A    between atoms: C_1  and  N_2
REMARK    2  A    between atoms: N_2  and  C_3
REMARK    3  A    between atoms: N_2  and  C_4
REMARK    4  A    between atoms: C_4  and  C_6
REMARK    5  A    between atoms: C_4  and  C_22
REMARK    6  A    between atoms: C_6  and  N_7
REMARK    7  A    between atoms: C_8  and  C_10
REMARK                            x       y       z     vdW  Elec       q    Type
REMARK                         _______ _______ _______ _____ _____    ______ ____
ROOT
ATOM      1  N   UNL     1      -1.766   1.531  -1.169  0.00  0.00    -0.316 N 
ATOM      2  C   UNL     1      -2.260   2.263  -2.188  0.00  0.00    +0.216 C 
ATOM      3  O   UNL     1      -2.935   1.732  -3.045  0.00  0.00    -0.276 OA
ATOM      4  H   UNL     1      -1.227   1.956  -0.484  0.00  0.00    +0.149 HD
ENDROOT
BRANCH   2   5
ATOM      5  C   UNL     1      -1.974   3.741  -2.262  0.00  0.00    +0.075 C 
ATOM      6  C   UNL     1      -2.523   4.430  -1.010  0.00  0.00    +0.015 C 
ATOM      7  C   UNL     1      -2.221   5.929  -1.081  0.00  0.00    +0.036 C 
ATOM      8  C   UNL     1      -2.863   6.521  -2.330  0.00  0.00    +0.112 C 
ATOM      9  C   UNL     1      -2.344   5.827  -3.585  0.00  0.00    +0.036 C 
ATOM     10  C   UNL     1      -2.646   4.329  -3.505  0.00  0.00    +0.015 C 
ATOM     11  C   UNL     1      -4.368   6.415  -2.252  0.00  0.00    +0.244 C 
ATOM     12  O   UNL     1      -5.029   5.401  -2.178  0.00  0.00    -0.273 OA
ATOM     13  N   UNL     1      -4.822   7.685  -2.281  0.00  0.00    -0.238 N 
ATOM     14  C   UNL     1      -3.817   8.565  -2.366  0.00  0.00    +0.307 C 
ATOM     15  O   UNL     1      -3.975   9.770  -2.407  0.00  0.00    -0.252 OA
ATOM     16  N   UNL     1      -2.611   7.966  -2.401  0.00  0.00    -0.285 N 
ATOM     17  H   UNL     1      -5.759   7.930  -2.245  0.00  0.00    +0.159 HD
ATOM     18  H   UNL     1      -1.747   8.403  -2.461  0.00  0.00    +0.151 HD
ENDBRANCH   2   5
BRANCH   1  19
ATOM     19  C   UNL     1      -2.044   0.095  -1.098  0.00  0.00    +0.093 C 
BRANCH  19  20
ATOM     20  C   UNL     1      -1.281  -0.514   0.081  0.00  0.00    -0.021 C 
BRANCH  20  21
ATOM     21  C   UNL     1      -1.799   0.070   1.370  0.00  0.00    -0.059 A 
ATOM     22  C   UNL     1      -2.967  -0.414   1.928  0.00  0.00    +0.005 A 
ATOM     23  C   UNL     1      -3.442   0.120   3.110  0.00  0.00    +0.038 A 
ATOM     24  C   UNL     1      -2.748   1.141   3.736  0.00  0.00    +0.123 A 
ATOM     25  C   UNL     1      -1.577   1.625   3.177  0.00  0.00    +0.038 A 
ATOM     26  C   UNL     1      -1.101   1.086   1.997  0.00  0.00    +0.005 A 
ATOM     27  F   UNL     1      -3.212   1.665   4.892  0.00  0.00    -0.205 F 
ENDBRANCH  20  21
BRANCH  20  29
ATOM     28  C   UNL     1      -0.970  -2.540  -1.166  0.00  0.00    -0.096 C 
ATOM     29  N   UNL     1      -1.476  -1.970   0.090  0.00  0.00    +0.382 N 
ATOM     30  C   UNL     1      -0.744  -2.555   1.222  0.00  0.00    -0.096 C 
ATOM     31  H   UNL     1      -2.459  -2.178   0.181  0.00  0.00    -0.082 HD
ENDBRANCH  20  29
ENDBRANCH  19  20
ENDBRANCH   1  19
TORSDOF 5
