REMARK  Name = ZINC21016296
REMARK  6 active torsions:
REMARK  status: ('A' for Active; 'I' for Inactive)
REMARK    1  A    between atoms: C_4  and  C_9
REMARK    2  A    between atoms: C_5  and  C_7
REMARK    3  A    between atoms: C_7  and  N_8
REMARK    4  A    between atoms: C_9  and  S_10
REMARK    5  A    between atoms: S_10  and  N_13
REMARK    6  A    between atoms: C_17  and  C_19
REMARK                            x       y       z     vdW  Elec       q    Type
REMARK                         _______ _______ _______ _____ _____    ______ ____
ROOT
ATOM      1  S   UNL     1      -0.020   1.652   0.011  0.00  0.00    +0.037 S 
ATOM      2  O   UNL     1      -0.640   2.013  -1.216  0.00  0.00    -0.158 OA
ATOM      3  O   UNL     1      -0.616   2.000   1.253  0.00  0.00    -0.158 OA
ENDROOT
BRANCH   1   4
ATOM      4  N   UNL     1       0.002  -0.004   0.002  0.00  0.00    -0.169 NA
ATOM      5  C   UNL     1       0.025  -0.870   1.195  0.00  0.00    +0.110 C 
ATOM      6  C   UNL     1       0.650  -2.201   0.708  0.00  0.00    +0.019 C 
ATOM      7  C   UNL     1       0.053  -2.321  -0.719  0.00  0.00    +0.031 C 
ATOM      8  C   UNL     1      -0.004  -0.855  -1.197  0.00  0.00    +0.165 C 
BRANCH   8   9
ATOM      9  C   UNL     1      -1.265  -0.618  -1.987  0.00  0.00    +0.229 C 
ATOM     10  O   UNL     1      -2.086   0.182  -1.593  0.00  0.00    -0.274 OA
ATOM     11  N   UNL     1      -1.481  -1.297  -3.131  0.00  0.00    -0.328 N 
ATOM     12  H   UNL     1      -2.401  -1.124  -3.708  0.00  0.00    +0.145 HD
ATOM     13  H   UNL     1      -0.736  -2.023  -3.489  0.00  0.00    +0.145 HD
ENDBRANCH   8   9
ENDBRANCH   1   4
BRANCH   1  14
ATOM     14  C   UNL     1       1.726   2.142  -0.003  0.00  0.00    +0.220 C 
BRANCH  14  18
ATOM     15  C   UNL     1       2.010   6.404   0.017  0.00  0.00    +0.000 A 
ATOM     16  C   UNL     1       1.954   5.721  -1.183  0.00  0.00    +0.000 A 
ATOM     17  C   UNL     1       1.866   4.341  -1.190  0.00  0.00    +0.005 A 
ATOM     18  C   UNL     1       1.826   3.645   0.004  0.00  0.00    -0.024 A 
ATOM     19  C   UNL     1       1.883   4.329   1.204  0.00  0.00    -0.060 A 
ATOM     20  C   UNL     1       1.975   5.708   1.211  0.00  0.00    +0.002 A 
BRANCH  19  21
ATOM     21  C   UNL     1       1.845   3.570   2.506  0.00  0.00    -0.050 C 
BRANCH  21  22
ATOM     22  N   UNL     1       3.179   3.025   2.794  0.00  0.00    +0.381 N 
ATOM     23  H   UNL     1       3.151   2.471   3.744  0.00  0.00    -0.090 HD
ATOM     24  H   UNL     1       3.903   3.850   2.872  0.00  0.00    -0.090 HD
ATOM     25  H   UNL     1       3.481   2.347   1.983  0.00  0.00    -0.090 HD
ENDBRANCH  21  22
ENDBRANCH  19  21
ENDBRANCH  14  18
ENDBRANCH   1  14
TORSDOF 6
