REMARK  Name = ZINC62115247
REMARK  5 active torsions:
REMARK  status: ('A' for Active; 'I' for Inactive)
REMARK    1  A    between atoms: C_6  and  C_7
REMARK    2  A    between atoms: C_7  and  N_8
REMARK    3  A    between atoms: N_8  and  C_9
REMARK    4  A    between atoms: C_9  and  C_10
REMARK    5  A    between atoms: C_13  and  C_15
REMARK                            x       y       z     vdW  Elec       q    Type
REMARK                         _______ _______ _______ _____ _____    ______ ____
ROOT
ATOM      1  N   UNL     1      -1.726  -1.017  -1.368  0.00  0.00    -0.288 N 
ATOM      2  C   UNL     1      -2.522  -0.126  -1.991  0.00  0.00    +0.217 C 
ATOM      3  O   UNL     1      -2.880   0.877  -1.411  0.00  0.00    -0.275 OA
ENDROOT
BRANCH   2   4
ATOM      4  C   UNL     1      -2.967  -0.375  -3.409  0.00  0.00    +0.056 C 
ATOM      5  C   UNL     1      -3.852  -1.647  -3.491  0.00  0.00    -0.008 C 
ATOM      6  C   UNL     1      -4.709  -1.352  -4.747  0.00  0.00    -0.082 C 
ATOM      7  N   UNL     1      -4.977   0.101  -4.689  0.00  0.00    +0.380 N 
ATOM      8  C   UNL     1      -3.915   0.744  -3.888  0.00  0.00    -0.070 C 
ATOM      9  H   UNL     1      -4.975   0.484  -5.622  0.00  0.00    -0.086 HD
ATOM     10  H   UNL     1      -5.875   0.263  -4.258  0.00  0.00    -0.086 HD
ENDBRANCH   2   4
BRANCH   1  11
ATOM     11  C   UNL     1      -1.293  -0.775   0.010  0.00  0.00    +0.143 C 
BRANCH  11  17
ATOM     12  C   UNL     1      -0.017   1.378   0.010  0.00  0.00    +0.006 A 
ATOM     13  C   UNL     1       1.171   2.086   0.002  0.00  0.00    +0.015 A 
ATOM     14  C   UNL     1       2.378   1.411  -0.013  0.00  0.00    +0.018 A 
ATOM     15  C   UNL     1       2.396   0.027  -0.021  0.00  0.00    +0.015 A 
ATOM     16  C   UNL     1       1.208  -0.679  -0.013  0.00  0.00    +0.006 A 
ATOM     17  C   UNL     1       0.002  -0.004   0.002  0.00  0.00    -0.030 A 
ATOM     18 BR   UNL     1       4.003   2.378  -0.024  0.00  0.00    -0.050 Br
ENDBRANCH  11  17
ENDBRANCH   1  11
BRANCH   1  19
ATOM     19  C   UNL     1      -1.293  -2.229  -2.070  0.00  0.00    +0.203 C 
BRANCH  19  20
ATOM     20  C   UNL     1      -2.291  -3.332  -1.829  0.00  0.00    +0.228 C 
ATOM     21  O   UNL     1      -3.268  -3.127  -1.140  0.00  0.00    -0.274 OA
ATOM     22  N   UNL     1      -2.099  -4.547  -2.380  0.00  0.00    -0.328 N 
ATOM     23  H   UNL     1      -1.317  -4.711  -2.931  0.00  0.00    +0.145 HD
ATOM     24  H   UNL     1      -2.741  -5.257  -2.225  0.00  0.00    +0.145 HD
ENDBRANCH  19  20
ENDBRANCH   1  19
TORSDOF 5
