REMARK  Name = ZINC11388713
REMARK  11 active torsions:
REMARK  status: ('A' for Active; 'I' for Inactive)
REMARK    1  A    between atoms: C_1  and  C_2
REMARK    2  A    between atoms: C_2  and  C_3
REMARK    3  A    between atoms: C_2  and  C_4
REMARK    4  A    between atoms: C_8  and  N_10
REMARK    5  A    between atoms: C_11  and  C_13
REMARK    6  A    between atoms: C_13  and  S_14
REMARK    7  A    between atoms: S_14  and  C_15
REMARK    8  A    between atoms: C_18  and  C_21
REMARK    9  A    between atoms: N_19  and  N_20
REMARK   10  A    between atoms: C_24  and  O_27
REMARK   11  A    between atoms: O_27  and  C_28
REMARK                            x       y       z     vdW  Elec       q    Type
REMARK                         _______ _______ _______ _____ _____    ______ ____
ROOT
ATOM      1  C   UNL     1      -5.235   1.264   0.301  0.00  0.00    +0.209 A 
ATOM      2  N   UNL     1      -5.220  -0.049   0.249  0.00  0.00    -0.121 NA
ATOM      3  N   UNL     1      -6.420  -0.506   0.281  0.00  0.00    -0.127 NA
ATOM      4  C   UNL     1      -7.277   0.487   0.347  0.00  0.00    +0.182 A 
ATOM      5  N   UNL     1      -6.544   1.651   0.362  0.00  0.00    -0.224 N 
ENDROOT
BRANCH   4   6
ATOM      6  C   UNL     1      -8.750   0.375   0.396  0.00  0.00    +0.021 A 
ATOM      7  C   UNL     1      -9.349  -0.842   0.727  0.00  0.00    +0.015 A 
ATOM      8  C   UNL     1     -10.723  -0.941   0.776  0.00  0.00    +0.046 A 
ATOM      9  C   UNL     1     -11.511   0.165   0.486  0.00  0.00    +0.127 A 
ATOM     10  C   UNL     1     -10.919   1.376   0.151  0.00  0.00    +0.046 A 
ATOM     11  C   UNL     1      -9.546   1.484   0.105  0.00  0.00    +0.015 A 
BRANCH   9  12
ATOM     12  O   UNL     1     -12.865   0.062   0.530  0.00  0.00    -0.434 OA
BRANCH  12  13
ATOM     13  C   UNL     1     -13.408  -1.212   0.882  0.00  0.00    +0.541 C 
ATOM     14  F   UNL     1     -12.988  -2.171  -0.047  0.00  0.00    -0.166 F 
ATOM     15  F   UNL     1     -12.962  -1.573   2.158  0.00  0.00    -0.166 F 
ENDBRANCH  12  13
ENDBRANCH   9  12
ENDBRANCH   4   6
BRANCH   5  16
ATOM     16  N   UNL     1      -7.025   2.928   0.424  0.00  0.00    -0.295 N 
ATOM     17  H   UNL     1      -7.275   3.266  -0.493  0.00  0.00    +0.163 HD
ATOM     18  H   UNL     1      -7.808   2.989   1.057  0.00  0.00    +0.163 HD
ENDBRANCH   5  16
BRANCH   1  19
ATOM     19  S   UNL     1      -3.830   2.327   0.287  0.00  0.00    -0.075 S 
BRANCH  19  20
ATOM     20  C   UNL     1      -2.506   1.097   0.197  0.00  0.00    +0.173 C 
BRANCH  20  22
ATOM     21  N   UNL     1      -0.034   1.075   0.106  0.00  0.00    -0.285 N 
ATOM     22  C   UNL     1      -1.171   1.796   0.172  0.00  0.00    +0.227 C 
ATOM     23  O   UNL     1      -1.120   3.007   0.212  0.00  0.00    -0.275 OA
ATOM     24  H   UNL     1      -0.076   0.112  -0.002  0.00  0.00    +0.155 HD
BRANCH  21  29
ATOM     25  C   UNL     1       2.549   3.554   0.947  0.00  0.00    -0.043 A 
ATOM     26  C   UNL     1       3.660   2.986   0.351  0.00  0.00    +0.004 A 
ATOM     27  C   UNL     1       3.548   1.786  -0.326  0.00  0.00    +0.002 A 
ATOM     28  C   UNL     1       2.325   1.147  -0.405  0.00  0.00    +0.023 A 
ATOM     29  C   UNL     1       1.207   1.717   0.188  0.00  0.00    +0.034 A 
ATOM     30  C   UNL     1       1.323   2.923   0.868  0.00  0.00    +0.027 A 
BRANCH  25  32
ATOM     31  C   UNL     1       3.673   4.705   2.834  0.00  0.00    +0.012 C 
ATOM     32  C   UNL     1       2.676   4.862   1.685  0.00  0.00    +0.013 C 
ATOM     33  C   UNL     1       3.172   5.943   0.723  0.00  0.00    +0.012 C 
ENDBRANCH  25  32
ENDBRANCH  21  29
ENDBRANCH  20  22
ENDBRANCH  19  20
ENDBRANCH   1  19
TORSDOF 9
