REMARK  Name = ZINC42840245
REMARK  4 active torsions:
REMARK  status: ('A' for Active; 'I' for Inactive)
REMARK    1  A    between atoms: C_1  and  C_2
REMARK    2  A    between atoms: C_2  and  C_3
REMARK    3  A    between atoms: C_2  and  N_4
REMARK    4  A    between atoms: N_7  and  N_8
REMARK                            x       y       z     vdW  Elec       q    Type
REMARK                         _______ _______ _______ _____ _____    ______ ____
ROOT
ATOM      1  N   UNL     1      -3.940  -1.414   0.052  0.00  0.00    -0.246 N 
ATOM      2  C   UNL     1      -5.246  -1.896   0.061  0.00  0.00    +0.155 A 
ATOM      3  C   UNL     1      -6.268  -1.107   0.581  0.00  0.00    +0.083 A 
ATOM      4  C   UNL     1      -7.562  -1.597   0.585  0.00  0.00    +0.046 A 
ATOM      5  C   UNL     1      -7.792  -2.866   0.066  0.00  0.00    +0.079 A 
ATOM      6  C   UNL     1      -6.729  -3.595  -0.434  0.00  0.00    +0.150 A 
ATOM      7  N   UNL     1      -5.505  -3.098  -0.429  0.00  0.00    -0.216 NA
ATOM      8 CL   UNL     1      -7.007  -5.181  -1.083  0.00  0.00    -0.060 Cl
ATOM      9 CL   UNL     1      -9.396  -3.528   0.047  0.00  0.00    -0.080 Cl
ATOM     10 CL   UNL     1      -5.924   0.471   1.217  0.00  0.00    -0.080 Cl
ATOM     11  H   UNL     1      -3.745  -0.534   0.409  0.00  0.00    +0.172 HD
ENDROOT
BRANCH   1  15
ATOM     12  N   UNL     1      -1.372  -0.511   0.012  0.00  0.00    -0.296 N 
ATOM     13  C   UNL     1      -1.643  -1.734  -0.485  0.00  0.00    +0.316 C 
ATOM     14  O   UNL     1      -0.747  -2.417  -0.942  0.00  0.00    -0.251 OA
ATOM     15  N   UNL     1      -2.908  -2.201  -0.475  0.00  0.00    -0.219 N 
ATOM     16  H   UNL     1      -2.087   0.033   0.377  0.00  0.00    +0.151 HD
ATOM     17  H   UNL     1      -3.103  -3.081  -0.833  0.00  0.00    +0.174 HD
BRANCH  12  19
ATOM     18  C   UNL     1      -0.019   1.526   0.010  0.00  0.00    +0.027 C 
ATOM     19  C   UNL     1       0.002  -0.004   0.002  0.00  0.00    +0.068 C 
ATOM     20  C   UNL     1       0.742  -0.511   1.242  0.00  0.00    +0.027 C 
ENDBRANCH  12  19
ENDBRANCH   1  15
TORSDOF 2
