REMARK  Name = ZINC39674719
REMARK  11 active torsions:
REMARK  status: ('A' for Active; 'I' for Inactive)
REMARK    1  A    between atoms: C_1  and  C_2
REMARK    2  A    between atoms: C_2  and  C_3
REMARK    3  A    between atoms: C_3  and  C_4
REMARK    4  A    between atoms: C_3  and  C_6
REMARK    5  A    between atoms: C_4  and  C_5
REMARK    6  A    between atoms: C_10  and  C_19
REMARK    7  A    between atoms: N_21  and  C_22
REMARK    8  A    between atoms: C_22  and  C_23
REMARK    9  A    between atoms: C_23  and  C_24
REMARK   10  A    between atoms: C_27  and  C_35
REMARK   11  A    between atoms: C_32  and  C_34
REMARK                            x       y       z     vdW  Elec       q    Type
REMARK                         _______ _______ _______ _____ _____    ______ ____
ROOT
ATOM      1  C   UNL     1      -1.372  -2.184   0.238  0.00  0.00    +0.219 C 
ATOM      2  O   UNL     1      -0.317  -2.735   0.471  0.00  0.00    -0.275 OA
ATOM      3  N   UNL     1      -2.502  -2.911   0.134  0.00  0.00    -0.300 N 
ATOM      4  C   UNL     1      -3.886  -2.416  -0.053  0.00  0.00    +0.121 C 
ATOM      5  C   UNL     1      -4.528  -3.415  -1.042  0.00  0.00    +0.100 C 
ATOM      6  C   UNL     1      -3.708  -4.707  -0.882  0.00  0.00    -0.004 C 
ATOM      7  C   UNL     1      -2.641  -4.387   0.175  0.00  0.00    +0.115 C 
ATOM      8  C   UNL     1      -4.603  -5.845  -0.403  0.00  0.00    -0.010 C 
ATOM      9  C   UNL     1      -3.778  -7.132  -0.308  0.00  0.00    -0.082 C 
ATOM     10  N   UNL     1      -3.210  -7.450  -1.623  0.00  0.00    +0.379 N 
ATOM     11  C   UNL     1      -2.279  -6.393  -2.035  0.00  0.00    -0.082 C 
ATOM     12  C   UNL     1      -3.040  -5.075  -2.204  0.00  0.00    -0.010 C 
ATOM     13  H   UNL     1      -2.718  -8.329  -1.572  0.00  0.00    -0.086 HD
ATOM     14  H   UNL     1      -3.954  -7.523  -2.301  0.00  0.00    -0.086 HD
ENDROOT
BRANCH   5  15
ATOM     15  C   UNL     1      -4.425  -2.896  -2.453  0.00  0.00    +0.218 C 
ATOM     16  O   UNL     1      -3.460  -2.244  -2.790  0.00  0.00    -0.275 OA
ATOM     17  N   UNL     1      -5.405  -3.158  -3.340  0.00  0.00    -0.315 N 
ATOM     18  H   UNL     1      -6.177  -3.680  -3.071  0.00  0.00    +0.149 HD
BRANCH  17  19
ATOM     19  C   UNL     1      -5.304  -2.653  -4.712  0.00  0.00    +0.108 C 
BRANCH  19  20
ATOM     20  C   UNL     1      -6.538  -3.087  -5.507  0.00  0.00    +0.052 C 
BRANCH  20  21
ATOM     21  C   UNL     1      -6.435  -2.568  -6.918  0.00  0.00    -0.037 C 
ATOM     22  C   UNL     1      -5.422  -1.834  -7.445  0.00  0.00    +0.000 A 
ATOM     23  C   UNL     1      -4.213  -1.346  -6.883  0.00  0.00    +0.028 A 
ATOM     24  C   UNL     1      -3.342  -0.610  -7.653  0.00  0.00    +0.052 A 
ATOM     25  C   UNL     1      -3.632  -0.313  -9.051  0.00  0.00    +0.021 A 
ATOM     26  C   UNL     1      -4.765  -0.750  -9.639  0.00  0.00    +0.027 A 
ATOM     27  C   UNL     1      -5.728  -1.540  -8.863  0.00  0.00    +0.043 A 
ATOM     28  N   UNL     1      -6.880  -2.069  -9.199  0.00  0.00    -0.378 N 
ATOM     29  C   UNL     1      -7.434  -2.766  -8.034  0.00  0.00    +0.103 C 
ATOM     30  C   UNL     1      -7.599  -4.256  -8.337  0.00  0.00    +0.035 C 
ATOM     31  H   UNL     1      -7.293  -2.012 -10.075  0.00  0.00    +0.160 HD
BRANCH  24  32
ATOM     32  C   UNL     1      -2.128  -0.125  -7.069  0.00  0.00    +0.099 C 
ATOM     33  N   UNL     1      -1.164   0.259  -6.606  0.00  0.00    -0.191 NA
ENDBRANCH  24  32
ENDBRANCH  20  21
ENDBRANCH  19  20
ENDBRANCH  17  19
ENDBRANCH   5  15
BRANCH   1  34
ATOM     34  C   UNL     1      -1.420  -0.688   0.066  0.00  0.00    +0.075 C 
BRANCH  34  36
ATOM     35  C   UNL     1      -1.722   1.488   1.255  0.00  0.00    +0.004 C 
ATOM     36  C   UNL     1      -1.549  -0.021   1.437  0.00  0.00    +0.009 C 
ENDBRANCH  34  36
BRANCH  34  37
ATOM     37  C   UNL     1      -0.135  -0.212  -0.614  0.00  0.00    +0.009 C 
ATOM     38  C   UNL     1      -0.075  -0.769  -2.038  0.00  0.00    +0.004 C 
ENDBRANCH  34  37
ENDBRANCH   1  34
TORSDOF 8
