REMARK  Name = ZINC06932872
REMARK  5 active torsions:
REMARK  status: ('A' for Active; 'I' for Inactive)
REMARK    1  A    between atoms: C_1  and  S_2
REMARK    2  A    between atoms: S_2  and  C_3
REMARK    3  A    between atoms: C_6  and  C_9
REMARK    4  A    between atoms: C_9  and  C_10
REMARK    5  A    between atoms: C_10  and  N_11
REMARK                            x       y       z     vdW  Elec       q    Type
REMARK                         _______ _______ _______ _____ _____    ______ ____
ROOT
ATOM      1  N   UNL     1      -1.272  -2.068   0.011  0.00  0.00    -0.327 N 
ATOM      2  C   UNL     1      -1.228  -0.685   0.017  0.00  0.00    +0.150 A 
ATOM      3  C   UNL     1       0.002  -0.004   0.002  0.00  0.00    +0.148 A 
ATOM      4  C   UNL     1      -0.017   1.401   0.010  0.00  0.00    +0.166 A 
ATOM      5  N   UNL     1      -1.187   2.030   0.029  0.00  0.00    -0.216 NA
ATOM      6  C   UNL     1      -2.315   1.351   0.040  0.00  0.00    +0.225 A 
ATOM      7  N   UNL     1      -2.347   0.031   0.036  0.00  0.00    -0.219 NA
ATOM      8  N   UNL     1       1.296   1.796  -0.001  0.00  0.00    -0.312 N 
ATOM      9  C   UNL     1       2.066   0.670  -0.024  0.00  0.00    +0.112 A 
ATOM     10  N   UNL     1       1.301  -0.385  -0.018  0.00  0.00    -0.227 NA
ATOM     11  C   UNL     1       3.576   0.653  -0.056  0.00  0.00    +0.074 C 
ATOM     12  C   UNL     1       4.116   1.627   0.993  0.00  0.00    +0.008 C 
ATOM     13  C   UNL     1       4.253   3.016   0.377  0.00  0.00    +0.002 C 
ATOM     14  C   UNL     1       3.153   3.252  -0.656  0.00  0.00    +0.022 C 
ATOM     15  C   UNL     1       1.784   3.178   0.024  0.00  0.00    +0.125 C 
ATOM     16  H   UNL     1      -0.337  -2.648  -0.004  0.00  0.00    +0.148 HD
ENDROOT
BRANCH   1  17
ATOM     17  C   UNL     1      -2.563  -2.760   0.027  0.00  0.00    +0.107 C 
BRANCH  17  18
ATOM     18  C   UNL     1      -2.331  -4.272   0.017  0.00  0.00    +0.054 C 
BRANCH  18  22
ATOM     19  C   UNL     1      -6.098  -6.291   0.062  0.00  0.00    +0.008 A 
ATOM     20  C   UNL     1      -5.501  -5.957  -1.148  0.00  0.00    +0.015 A 
ATOM     21  C   UNL     1      -4.284  -5.305  -1.158  0.00  0.00    +0.005 A 
ATOM     22  C   UNL     1      -3.659  -4.984   0.033  0.00  0.00    -0.046 A 
ATOM     23  C   UNL     1      -4.248  -5.320   1.239  0.00  0.00    +0.005 A 
ATOM     24  C   UNL     1      -5.467  -5.968   1.257  0.00  0.00    +0.015 A 
BRANCH  19  26
ATOM     25  C   UNL     1      -8.013  -7.338   1.845  0.00  0.00    +0.090 C 
ATOM     26  S   UNL     1      -7.651  -7.123   0.081  0.00  0.00    -0.129 S 
ENDBRANCH  19  26
ENDBRANCH  18  22
ENDBRANCH  17  18
ENDBRANCH   1  17
TORSDOF 4
