REMARK  Name = ZINC46421939
REMARK  9 active torsions:
REMARK  status: ('A' for Active; 'I' for Inactive)
REMARK    1  A    between atoms: C_1  and  C_2
REMARK    2  A    between atoms: C_5  and  C_27
REMARK    3  A    between atoms: N_8  and  C_10
REMARK    4  A    between atoms: C_10  and  C_11
REMARK    5  A    between atoms: C_11  and  N_12
REMARK    6  A    between atoms: N_15  and  C_16
REMARK    7  A    between atoms: C_19  and  N_22
REMARK    8  A    between atoms: C_23  and  O_25
REMARK    9  A    between atoms: O_25  and  C_26
REMARK                            x       y       z     vdW  Elec       q    Type
REMARK                         _______ _______ _______ _____ _____    ______ ____
ROOT
ATOM      1  N   UNL     1       3.773  -2.502   3.345  0.00  0.00    -0.301 N 
ATOM      2  C   UNL     1       5.093  -2.245   3.431  0.00  0.00    +0.304 C 
ATOM      3  O   UNL     1       5.649  -1.619   2.549  0.00  0.00    -0.253 OA
ATOM      4  N   UNL     1       5.796  -2.681   4.494  0.00  0.00    -0.269 N 
ATOM      5  H   UNL     1       3.329  -3.001   4.048  0.00  0.00    +0.150 HD
ATOM      6  H   UNL     1       5.342  -3.121   5.229  0.00  0.00    +0.156 HD
ENDROOT
BRANCH   4   7
ATOM      7  C   UNL     1       7.185  -2.498   4.538  0.00  0.00    +0.035 A 
ATOM      8  C   UNL     1       7.994  -3.463   5.123  0.00  0.00    +0.025 A 
ATOM      9  C   UNL     1       9.362  -3.283   5.167  0.00  0.00    +0.025 A 
ATOM     10  C   UNL     1       9.929  -2.137   4.625  0.00  0.00    +0.037 A 
ATOM     11  C   UNL     1       9.120  -1.172   4.040  0.00  0.00    +0.025 A 
ATOM     12  C   UNL     1       7.753  -1.355   3.992  0.00  0.00    +0.025 A 
BRANCH  10  13
ATOM     13  N   UNL     1      11.318  -1.954   4.670  0.00  0.00    -0.251 N 
ATOM     14  C   UNL     1      11.830  -0.718   4.836  0.00  0.00    +0.404 C 
ATOM     15  O   UNL     1      11.092   0.246   4.864  0.00  0.00    -0.226 OA
ATOM     16  H   UNL     1      11.911  -2.717   4.581  0.00  0.00    +0.158 HD
BRANCH  14  17
ATOM     17  O   UNL     1      13.159  -0.553   4.972  0.00  0.00    -0.453 OA
ATOM     18  C   UNL     1      13.632   0.784   5.145  0.00  0.00    +0.282 C 
ENDBRANCH  14  17
ENDBRANCH  10  13
ENDBRANCH   4   7
BRANCH   1  19
ATOM     19  C   UNL     1       3.008  -2.028   2.189  0.00  0.00    +0.087 C 
BRANCH  19  20
ATOM     20  C   UNL     1       1.545  -2.451   2.337  0.00  0.00    -0.060 C 
BRANCH  20  26
ATOM     21  C   UNL     1       0.028   1.523  -0.086  0.00  0.00    +0.005 C 
ATOM     22  C   UNL     1       0.039  -0.007  -0.080  0.00  0.00    -0.031 C 
ATOM     23  C   UNL     1      -1.401  -0.529  -0.069  0.00  0.00    +0.003 C 
ATOM     24  C   UNL     1      -1.378  -2.058   0.016  0.00  0.00    -0.031 C 
ATOM     25  C   UNL     1      -0.597  -2.482   1.262  0.00  0.00    -0.076 C 
ATOM     26  N   UNL     1       0.778  -1.975   1.178  0.00  0.00    +0.381 N 
ATOM     27  C   UNL     1       0.768  -0.507   1.168  0.00  0.00    -0.076 C 
ATOM     28  C   UNL     1      -0.702  -2.629  -1.232  0.00  0.00    +0.005 C 
ATOM     29  H   UNL     1       1.209  -2.313   0.331  0.00  0.00    -0.082 HD
ENDBRANCH  20  26
ENDBRANCH  19  20
ENDBRANCH   1  19
TORSDOF 6
