REMARK  Name = ZINC19939182
REMARK  7 active torsions:
REMARK  status: ('A' for Active; 'I' for Inactive)
REMARK    1  A    between atoms: C_1  and  C_2
REMARK    2  A    between atoms: C_7  and  N_8
REMARK    3  A    between atoms: C_9  and  C_13
REMARK    4  A    between atoms: C_13  and  C_15
REMARK    5  A    between atoms: C_13  and  N_21
REMARK    6  A    between atoms: N_21  and  C_22
REMARK    7  A    between atoms: C_23  and  C_25
REMARK                            x       y       z     vdW  Elec       q    Type
REMARK                         _______ _______ _______ _____ _____    ______ ____
ROOT
ATOM      1  C   UNL     1      -2.293  -3.312  -0.276  0.00  0.00    +0.176 C 
ENDROOT
BRANCH   1   2
ATOM      2  C   UNL     1      -1.958  -4.369  -1.298  0.00  0.00    -0.020 A 
ATOM      3  C   UNL     1      -0.644  -4.759  -1.483  0.00  0.00    +0.006 A 
ATOM      4  C   UNL     1      -0.337  -5.731  -2.417  0.00  0.00    +0.000 A 
ATOM      5  C   UNL     1      -1.342  -6.306  -3.172  0.00  0.00    +0.000 A 
ATOM      6  C   UNL     1      -2.655  -5.912  -2.990  0.00  0.00    +0.000 A 
ATOM      7  C   UNL     1      -2.962  -4.943  -2.054  0.00  0.00    +0.006 A 
ENDBRANCH   1   2
BRANCH   1   9
ATOM      8  N   UNL     1      -3.562  -3.902   1.857  0.00  0.00    -0.195 N 
ATOM      9  C   UNL     1      -2.462  -3.957   1.076  0.00  0.00    +0.181 A 
ATOM     10  N   UNL     1      -1.568  -4.668   1.712  0.00  0.00    -0.111 NA
ATOM     11  N   UNL     1      -2.030  -5.070   2.841  0.00  0.00    -0.023 NA
ATOM     12  N   UNL     1      -3.238  -4.650   3.003  0.00  0.00    -0.039 NA
BRANCH   8  19
ATOM     13  C   UNL     1      -5.988  -5.365   2.135  0.00  0.00    +0.046 C 
ATOM     14  C   UNL     1      -5.975  -3.921   1.706  0.00  0.00    -0.025 A 
ATOM     15  C   UNL     1      -7.163  -3.267   1.441  0.00  0.00    +0.005 A 
ATOM     16  C   UNL     1      -7.151  -1.944   1.042  0.00  0.00    +0.000 A 
ATOM     17  C   UNL     1      -5.952  -1.268   0.912  0.00  0.00    +0.002 A 
ATOM     18  C   UNL     1      -4.761  -1.914   1.182  0.00  0.00    +0.028 A 
ATOM     19  C   UNL     1      -4.769  -3.243   1.583  0.00  0.00    +0.072 A 
ENDBRANCH   8  19
ENDBRANCH   1   9
BRANCH   1  20
ATOM     20  N   UNL     1      -1.209  -2.329  -0.217  0.00  0.00    -0.285 N 
ATOM     21  C   UNL     1      -0.424  -2.178   1.011  0.00  0.00    +0.133 C 
ATOM     22  C   UNL     1      -0.933  -1.564  -1.291  0.00  0.00    +0.265 C 
ATOM     23  O   UNL     1       0.022  -0.809  -1.272  0.00  0.00    -0.268 OA
BRANCH  22  24
ATOM     24  C   UNL     1      -1.784  -1.640  -2.483  0.00  0.00    +0.122 A 
ATOM     25  C   UNL     1      -1.618  -0.948  -3.632  0.00  0.00    +0.118 A 
ATOM     26  N   UNL     1      -2.624  -1.308  -4.490  0.00  0.00    -0.312 N 
ATOM     27  H   UNL     1      -2.679  -0.860  -5.492  0.00  0.00    +0.170 HD
ATOM     28  C   UNL     1      -3.408  -2.216  -3.878  0.00  0.00    +0.325 A 
ATOM     29  O   UNL     1      -4.393  -2.745  -4.360  0.00  0.00    -0.247 OA
ATOM     30  N   UNL     1      -2.918  -2.442  -2.643  0.00  0.00    -0.303 N 
ATOM     31  H   UNL     1      -3.247  -3.099  -1.824  0.00  0.00    +0.171 HD
ENDBRANCH  22  24
ENDBRANCH   1  20
TORSDOF 5
