REMARK  Name = ZINC15922191
REMARK  3 active torsions:
REMARK  status: ('A' for Active; 'I' for Inactive)
REMARK    1  A    between atoms: C_4  and  C_7
REMARK    2  A    between atoms: C_10  and  C_12
REMARK    3  A    between atoms: C_17  and  N_18
REMARK                            x       y       z     vdW  Elec       q    Type
REMARK                         _______ _______ _______ _____ _____    ______ ____
ROOT
ATOM      1  C   UNL     1       3.606   2.194  -0.161  0.00  0.00    +0.249 A 
ATOM      2  N   UNL     1       4.801   1.665  -0.034  0.00  0.00    -0.107 NA
ATOM      3  N   UNL     1       5.681   2.602   0.021  0.00  0.00    -0.107 NA
ATOM      4  C   UNL     1       5.082   3.769  -0.070  0.00  0.00    +0.251 A 
ATOM      5  O   UNL     1       3.759   3.534  -0.192  0.00  0.00    -0.416 OA
ENDROOT
BRANCH   4   6
ATOM      6  C   UNL     1       5.736   5.091  -0.047  0.00  0.00    +0.062 A 
ATOM      7  C   UNL     1       6.869   5.327  -0.828  0.00  0.00    +0.053 A 
ATOM      8  C   UNL     1       7.473   6.568  -0.807  0.00  0.00    +0.124 A 
ATOM      9  C   UNL     1       6.966   7.579  -0.004  0.00  0.00    +0.040 A 
ATOM     10  C   UNL     1       5.850   7.356   0.777  0.00  0.00    +0.026 A 
ATOM     11  C   UNL     1       5.227   6.116   0.764  0.00  0.00    +0.037 A 
ATOM     12  F   UNL     1       8.566   6.797  -1.568  0.00  0.00    -0.205 F 
BRANCH  11  13
ATOM     13  N   UNL     1       4.100   5.890   1.553  0.00  0.00    -0.357 N 
ATOM     14  H   UNL     1       3.720   4.999   1.612  0.00  0.00    +0.142 HD
ATOM     15  H   UNL     1       3.695   6.623   2.042  0.00  0.00    +0.142 HD
ENDBRANCH  11  13
ENDBRANCH   4   6
BRANCH   1  19
ATOM     16  C   UNL     1      -0.064   0.076  -0.444  0.00  0.00    +0.000 A 
ATOM     17  C   UNL     1      -0.062   1.459  -0.484  0.00  0.00    +0.001 A 
ATOM     18  C   UNL     1       1.127   2.154  -0.393  0.00  0.00    +0.013 A 
ATOM     19  C   UNL     1       2.330   1.458  -0.260  0.00  0.00    +0.038 A 
ATOM     20  C   UNL     1       2.321   0.062  -0.220  0.00  0.00    +0.013 A 
ATOM     21  C   UNL     1       1.125  -0.620  -0.312  0.00  0.00    +0.001 A 
ENDBRANCH   1  19
TORSDOF 3
