REMARK  Name = ZINC00622817
REMARK  10 active torsions:
REMARK  status: ('A' for Active; 'I' for Inactive)
REMARK    1  A    between atoms: C_1  and  C_2
REMARK    2  A    between atoms: C_5  and  C_8
REMARK    3  A    between atoms: C_15  and  N_38
REMARK    4  A    between atoms: C_16  and  C_36
REMARK    5  A    between atoms: C_17  and  C_19
REMARK    6  A    between atoms: C_22  and  O_34
REMARK    7  A    between atoms: C_23  and  C_25
REMARK    8  A    between atoms: C_25  and  O_26
REMARK    9  A    between atoms: O_26  and  C_27
REMARK   10  A    between atoms: O_34  and  C_35
REMARK                            x       y       z     vdW  Elec       q    Type
REMARK                         _______ _______ _______ _____ _____    ______ ____
ROOT
ATOM      1  C   UNL     1      -0.079  -4.642   0.057  0.00  0.00    +0.100 A 
ATOM      2  C   UNL     1       0.800  -5.283   0.935  0.00  0.00    +0.054 A 
ATOM      3  C   UNL     1       0.698  -6.628   0.729  0.00  0.00    +0.223 A 
ATOM      4  N   UNL     1      -0.215  -6.825  -0.245  0.00  0.00    -0.246 N 
ATOM      5  H   UNL     1      -0.494  -7.684  -0.600  0.00  0.00    +0.192 HD
ATOM      6  N   UNL     1      -0.694  -5.570  -0.651  0.00  0.00    -0.171 NA
ATOM      7  O   UNL     1       1.428  -7.534   1.426  0.00  0.00    -0.423 OA
ATOM      8  C   UNL     1       2.469  -7.073   2.150  0.00  0.00    +0.200 C 
ATOM      9  C   UNL     1       2.669  -5.766   2.431  0.00  0.00    +0.098 C 
ATOM     10  C   UNL     1       1.730  -4.685   1.959  0.00  0.00    +0.102 C 
ENDROOT
BRANCH   1  15
ATOM     11  C   UNL     1      -0.888   1.044  -0.380  0.00  0.00    +0.044 C 
ATOM     12  C   UNL     1      -0.676  -0.444  -0.266  0.00  0.00    -0.050 A 
ATOM     13  C   UNL     1       0.604  -0.949  -0.123  0.00  0.00    +0.004 A 
ATOM     14  C   UNL     1       0.803  -2.311  -0.018  0.00  0.00    +0.010 A 
ATOM     15  C   UNL     1      -0.287  -3.177  -0.055  0.00  0.00    +0.003 A 
ATOM     16  C   UNL     1      -1.574  -2.663  -0.199  0.00  0.00    +0.010 A 
ATOM     17  C   UNL     1      -1.763  -1.299  -0.298  0.00  0.00    +0.004 A 
ENDBRANCH   1  15
BRANCH  10  18
ATOM     18  C   UNL     1       0.932  -4.160   3.125  0.00  0.00    -0.034 A 
ATOM     19  C   UNL     1       0.074  -5.001   3.809  0.00  0.00    +0.008 A 
ATOM     20  C   UNL     1      -0.659  -4.522   4.878  0.00  0.00    +0.046 A 
ATOM     21  C   UNL     1      -0.533  -3.195   5.265  0.00  0.00    +0.126 A 
ATOM     22  C   UNL     1       0.329  -2.353   4.577  0.00  0.00    +0.032 A 
ATOM     23  C   UNL     1       1.063  -2.839   3.512  0.00  0.00    +0.015 A 
BRANCH  21  24
ATOM     24  O   UNL     1      -1.253  -2.722   6.315  0.00  0.00    -0.495 OA
ATOM     25  C   UNL     1      -2.120  -3.645   6.976  0.00  0.00    +0.277 C 
ENDBRANCH  21  24
BRANCH  22  26
ATOM     26  C   UNL     1       0.468  -0.912   4.994  0.00  0.00    +0.268 C 
BRANCH  26  27
ATOM     27  O   UNL     1       1.406  -0.257   4.139  0.00  0.00    -0.486 OA
BRANCH  27  28
ATOM     28  C   UNL     1       1.649   1.058   4.381  0.00  0.00    +0.139 A 
ATOM     29  C   UNL     1       1.001   1.703   5.425  0.00  0.00    +0.047 A 
ATOM     30  C   UNL     1       1.249   3.040   5.670  0.00  0.00    +0.004 A 
ATOM     31  C   UNL     1       2.143   3.736   4.876  0.00  0.00    +0.002 A 
ATOM     32  C   UNL     1       2.789   3.096   3.835  0.00  0.00    +0.023 A 
ATOM     33  C   UNL     1       2.549   1.757   3.589  0.00  0.00    +0.083 A 
ATOM     34 CL   UNL     1       3.367   0.953   2.286  0.00  0.00    -0.080 Cl
ENDBRANCH  27  28
ENDBRANCH  26  27
ENDBRANCH  22  26
ENDBRANCH  10  18
BRANCH   8  35
ATOM     35  N   UNL     1       3.377  -7.984   2.627  0.00  0.00    -0.328 N 
ATOM     36  H   UNL     1       3.260  -8.929   2.442  0.00  0.00    +0.145 HD
ATOM     37  H   UNL     1       4.136  -7.683   3.151  0.00  0.00    +0.145 HD
ENDBRANCH   8  35
BRANCH   9  38
ATOM     38  C   UNL     1       3.815  -5.395   3.206  0.00  0.00    +0.101 C 
ATOM     39  N   UNL     1       4.724  -5.101   3.820  0.00  0.00    -0.191 NA
ENDBRANCH   9  38
TORSDOF 8
