REMARK  Name = ZINC37760964
REMARK  5 active torsions:
REMARK  status: ('A' for Active; 'I' for Inactive)
REMARK    1  A    between atoms: C_1  and  C_2
REMARK    2  A    between atoms: C_3  and  N_17
REMARK    3  A    between atoms: N_6  and  C_9
REMARK    4  A    between atoms: N_7  and  C_8
REMARK    5  A    between atoms: C_9  and  C_16
REMARK                            x       y       z     vdW  Elec       q    Type
REMARK                         _______ _______ _______ _____ _____    ______ ____
ROOT
ATOM      1  C   UNL     1       0.022   1.869  -0.551  0.00  0.00    +0.067 C 
ATOM      2  C   UNL     1       0.102   0.378  -0.346  0.00  0.00    +0.058 A 
ATOM      3  C   UNL     1       0.173  -0.549  -1.325  0.00  0.00    +0.112 A 
ATOM      4  C   UNL     1       0.235  -1.861  -0.678  0.00  0.00    +0.289 A 
ATOM      5  O   UNL     1       0.307  -2.941  -1.236  0.00  0.00    -0.264 OA
ATOM      6  N   UNL     1       0.197  -1.645   0.653  0.00  0.00    -0.241 N 
ATOM      7  N   UNL     1       0.120  -0.264   0.867  0.00  0.00    -0.286 N 
ATOM      8  C   UNL     1       0.064   0.391   2.176  0.00  0.00    +0.170 C 
ENDROOT
BRANCH   6   9
ATOM      9  C   UNL     1       0.234  -2.676   1.693  0.00  0.00    +0.083 C 
ATOM     10  C   UNL     1      -1.099  -3.424   1.690  0.00  0.00    +0.054 C 
ATOM     11  C   UNL     1      -1.030  -4.644   0.730  0.00  0.00    +0.168 C 
ATOM     12  S   UNL     1       0.684  -5.226   1.094  0.00  0.00    -0.029 S 
ATOM     13  O   UNL     1       1.255  -5.768  -0.089  0.00  0.00    -0.174 OA
ATOM     14  O   UNL     1       0.671  -5.999   2.286  0.00  0.00    -0.174 OA
ATOM     15  C   UNL     1       1.450  -3.588   1.441  0.00  0.00    +0.195 C 
ATOM     16  C   UNL     1       0.407  -1.994   3.052  0.00  0.00    +0.038 C 
ENDBRANCH   6   9
BRANCH   3  17
ATOM     17  N   UNL     1       0.186  -0.300  -2.714  0.00  0.00    -0.352 N 
ATOM     18  H   UNL     1       0.140   0.611  -3.043  0.00  0.00    +0.143 HD
ATOM     19  H   UNL     1       0.240  -1.040  -3.339  0.00  0.00    +0.143 HD
ENDBRANCH   3  17
TORSDOF 2
