REMARK  Name = ZINC04159347
REMARK  3 active torsions:
REMARK  status: ('A' for Active; 'I' for Inactive)
REMARK    1  A    between atoms: C_1  and  C_2
REMARK    2  A    between atoms: C_5  and  C_8
REMARK    3  A    between atoms: C_8  and  C_15
REMARK                            x       y       z     vdW  Elec       q    Type
REMARK                         _______ _______ _______ _____ _____    ______ ____
ROOT
ATOM      1  C   UNL     1      -0.727   3.357   0.027  0.00  0.00    +0.135 C 
ATOM      2  C   UNL     1       0.787   3.284   0.012  0.00  0.00    +0.248 C 
ATOM      3  O   UNL     1       1.565   4.213   0.010  0.00  0.00    -0.273 OA
ATOM      4  N   UNL     1       1.087   1.970   0.002  0.00  0.00    -0.238 N 
ATOM      5  C   UNL     1      -0.014   1.211   0.009  0.00  0.00    +0.307 C 
ATOM      6  O   UNL     1       0.002  -0.004   0.002  0.00  0.00    -0.252 OA
ATOM      7  N   UNL     1      -1.143   1.944   0.018  0.00  0.00    -0.282 N 
ATOM      8  C   UNL     1      -1.220   4.059   1.294  0.00  0.00    +0.047 C 
ATOM      9  H   UNL     1       1.991   1.618  -0.008  0.00  0.00    +0.159 HD
ATOM     10  H   UNL     1      -2.052   1.607   0.019  0.00  0.00    +0.152 HD
ENDROOT
BRANCH   1  15
ATOM     11  C   UNL     1      -2.678   6.075  -4.685  0.00  0.00    +0.044 C 
ATOM     12  C   UNL     1      -2.169   5.366  -3.456  0.00  0.00    -0.050 A 
ATOM     13  C   UNL     1      -2.938   4.388  -2.854  0.00  0.00    +0.004 A 
ATOM     14  C   UNL     1      -2.472   3.738  -1.727  0.00  0.00    +0.006 A 
ATOM     15  C   UNL     1      -1.236   4.066  -1.202  0.00  0.00    -0.016 A 
ATOM     16  C   UNL     1      -0.469   5.047  -1.801  0.00  0.00    +0.006 A 
ATOM     17  C   UNL     1      -0.933   5.694  -2.931  0.00  0.00    +0.004 A 
ENDBRANCH   1  15
TORSDOF 1
