REMARK  Name = ZINC06546193
REMARK  17 active torsions:
REMARK  status: ('A' for Active; 'I' for Inactive)
REMARK    1  A    between atoms: C_1  and  C_2
REMARK    2  A    between atoms: C_2  and  O_3
REMARK    3  A    between atoms: O_3  and  C_4
REMARK    4  A    between atoms: C_4  and  C_6
REMARK    5  A    between atoms: C_6  and  N_7
REMARK    6  A    between atoms: N_7  and  C_8
REMARK    7  A    between atoms: C_8  and  C_10
REMARK    8  A    between atoms: C_8  and  C_17
REMARK    9  A    between atoms: C_13  and  C_16
REMARK   10  A    between atoms: N_19  and  C_20
REMARK   11  A    between atoms: C_20  and  C_21
REMARK   12  A    between atoms: C_21  and  C_22
REMARK   13  A    between atoms: C_22  and  C_23
REMARK   14  A    between atoms: C_22  and  C_24
REMARK   15  A    between atoms: C_25  and  C_27
REMARK   16  A    between atoms: C_28  and  N_35
REMARK   17  A    between atoms: C_29  and  C_32
REMARK                            x       y       z     vdW  Elec       q    Type
REMARK                         _______ _______ _______ _____ _____    ______ ____
ROOT
ATOM      1  N   UNL     1      -1.156  -0.985  -0.105  0.00  0.00    -0.271 N 
ATOM      2  C   UNL     1       0.183  -1.115  -0.029  0.00  0.00    +0.258 C 
ATOM      3  O   UNL     1       0.674  -2.178   0.304  0.00  0.00    -0.269 OA
ENDROOT
BRANCH   2   4
ATOM      4  C   UNL     1       1.049   0.023  -0.347  0.00  0.00    +0.115 A 
ATOM      5  C   UNL     1       2.436   0.135  -0.244  0.00  0.00    +0.076 A 
ATOM      6  C   UNL     1       2.902   1.388  -0.644  0.00  0.00    +0.155 A 
ATOM      7  N   UNL     1       2.042   2.292  -1.057  0.00  0.00    -0.203 NA
ATOM      8  S   UNL     1       0.613   1.631  -0.976  0.00  0.00    +0.019 S 
BRANCH   6   9
ATOM      9  C   UNL     1       4.344   1.694  -0.605  0.00  0.00    +0.262 C 
ATOM     10  O   UNL     1       5.134   0.853  -0.222  0.00  0.00    -0.269 OA
ATOM     11  N   UNL     1       4.786   2.907  -0.993  0.00  0.00    -0.324 N 
ATOM     12  H   UNL     1       4.155   3.578  -1.299  0.00  0.00    +0.145 HD
ATOM     13  H   UNL     1       5.734   3.108  -0.967  0.00  0.00    +0.145 HD
ENDBRANCH   6   9
BRANCH   5  14
ATOM     14  N   UNL     1       3.261  -0.886   0.207  0.00  0.00    -0.355 N 
ATOM     15  H   UNL     1       2.879  -1.737   0.472  0.00  0.00    +0.142 HD
ATOM     16  H   UNL     1       4.221  -0.749   0.256  0.00  0.00    +0.142 HD
ENDBRANCH   5  14
ENDBRANCH   2   4
BRANCH   1  17
ATOM     17  C   UNL     1      -1.743   0.227  -0.683  0.00  0.00    +0.229 C 
BRANCH  17  18
ATOM     18  C   UNL     1      -1.646   0.165  -2.185  0.00  0.00    +0.325 C 
ATOM     19  O   UNL     1      -1.113  -0.780  -2.718  0.00  0.00    -0.249 OA
BRANCH  18  20
ATOM     20  O   UNL     1      -2.152   1.159  -2.932  0.00  0.00    -0.464 OA
BRANCH  20  22
ATOM     21  C   UNL     1      -2.654   2.250  -5.050  0.00  0.00    +0.048 C 
ATOM     22  C   UNL     1      -2.023   1.032  -4.373  0.00  0.00    +0.229 C 
ENDBRANCH  20  22
ENDBRANCH  18  20
ENDBRANCH  17  18
ENDBRANCH   1  17
BRANCH   1  23
ATOM     23  C   UNL     1      -2.025  -2.055   0.390  0.00  0.00    +0.193 C 
BRANCH  23  24
ATOM     24  C   UNL     1      -2.408  -1.771   1.819  0.00  0.00    -0.018 A 
ATOM     25  C   UNL     1      -2.857  -0.513   2.177  0.00  0.00    +0.006 A 
ATOM     26  C   UNL     1      -3.213  -0.254   3.487  0.00  0.00    +0.004 A 
ATOM     27  C   UNL     1      -3.111  -1.248   4.441  0.00  0.00    -0.050 A 
ATOM     28  C   UNL     1      -2.657  -2.504   4.085  0.00  0.00    +0.004 A 
ATOM     29  C   UNL     1      -2.306  -2.766   2.773  0.00  0.00    +0.006 A 
ATOM     30  C   UNL     1      -3.495  -0.964   5.871  0.00  0.00    +0.044 C 
ENDBRANCH  23  24
BRANCH  23  31
ATOM     31  C   UNL     1      -3.268  -2.126  -0.459  0.00  0.00    +0.238 C 
ATOM     32  O   UNL     1      -3.466  -1.290  -1.315  0.00  0.00    -0.273 OA
ATOM     33  N   UNL     1      -4.159  -3.119  -0.268  0.00  0.00    -0.313 N 
ATOM     34  H   UNL     1      -4.000  -3.788   0.416  0.00  0.00    +0.149 HD
BRANCH  33  35
ATOM     35  C   UNL     1      -5.367  -3.188  -1.093  0.00  0.00    +0.104 C 
BRANCH  35  36
ATOM     36  C   UNL     1      -6.202  -4.400  -0.675  0.00  0.00    +0.022 C 
BRANCH  36  37
ATOM     37  C   UNL     1      -7.464  -4.472  -1.537  0.00  0.00    -0.016 C 
ATOM     38  C   UNL     1      -7.073  -4.733  -2.993  0.00  0.00    +0.007 C 
ATOM     39  C   UNL     1      -8.359  -5.608  -1.038  0.00  0.00    +0.007 C 
ENDBRANCH  36  37
ENDBRANCH  35  36
ENDBRANCH  33  35
ENDBRANCH  23  31
ENDBRANCH   1  23
TORSDOF 13
