REMARK  Name = ZINC20504135
REMARK  7 active torsions:
REMARK  status: ('A' for Active; 'I' for Inactive)
REMARK    1  A    between atoms: C_6  and  N_7
REMARK    2  A    between atoms: C_12  and  O_34
REMARK    3  A    between atoms: C_14  and  O_33
REMARK    4  A    between atoms: C_17  and  C_22
REMARK    5  A    between atoms: N_24  and  C_25
REMARK    6  A    between atoms: C_25  and  C_26
REMARK    7  A    between atoms: C_26  and  N_27
REMARK                            x       y       z     vdW  Elec       q    Type
REMARK                         _______ _______ _______ _____ _____    ______ ____
ROOT
ATOM      1  N   UNL     1      -5.603  -7.334  -1.992  0.00  0.00    -0.226 NA
ATOM      2  C   UNL     1      -5.128  -6.593  -0.932  0.00  0.00    +0.155 C 
ATOM      3  N   UNL     1      -4.603  -7.048   0.168  0.00  0.00    -0.317 N 
ATOM      4  C   UNL     1      -4.179  -6.149   1.208  0.00  0.00    +0.117 C 
ATOM      5  C   UNL     1      -2.989  -6.592   2.002  0.00  0.00    +0.164 C 
ATOM      6  C   UNL     1      -1.707  -5.873   1.595  0.00  0.00    +0.146 C 
ATOM      7  C   UNL     1      -1.947  -4.364   1.715  0.00  0.00    +0.048 C 
ATOM      8  C   UNL     1      -2.982  -3.953   0.677  0.00  0.00    +0.093 C 
ATOM      9  C   UNL     1      -4.302  -4.677   0.861  0.00  0.00    +0.089 C 
ATOM     10  S   UNL     1      -5.107  -4.817  -0.789  0.00  0.00    -0.085 S 
ATOM     11  H   UNL     1      -4.485  -8.134   0.298  0.00  0.00    +0.148 HD
ENDROOT
BRANCH   1  17
ATOM     12  C   UNL     1      -5.831  -9.341  -0.667  0.00  0.00    +0.031 A 
ATOM     13  C   UNL     1      -5.884 -10.719  -0.577  0.00  0.00    +0.051 A 
ATOM     14  C   UNL     1      -5.761 -11.495  -1.718  0.00  0.00    +0.166 A 
ATOM     15  C   UNL     1      -5.585 -10.886  -2.958  0.00  0.00    +0.168 A 
ATOM     16  C   UNL     1      -5.538  -9.505  -3.048  0.00  0.00    +0.077 A 
ATOM     17  C   UNL     1      -5.656  -8.731  -1.902  0.00  0.00    +0.070 A 
ATOM     18  O   UNL     1      -5.492 -11.858  -3.913  0.00  0.00    -0.453 OA
ATOM     19  C   UNL     1      -6.022 -13.049  -3.301  0.00  0.00    +0.466 C 
ATOM     20  O   UNL     1      -5.779 -12.850  -1.896  0.00  0.00    -0.453 OA
ENDBRANCH   1  17
BRANCH   8  21
ATOM     21  C   UNL     1      -3.221  -2.469   0.786  0.00  0.00    +0.217 C 
ATOM     22  O   UNL     1      -4.335  -2.049   1.016  0.00  0.00    -0.275 OA
ATOM     23  N   UNL     1      -2.196  -1.608   0.628  0.00  0.00    -0.314 N 
ATOM     24  H   UNL     1      -1.185  -1.989   0.420  0.00  0.00    +0.149 HD
BRANCH  23  25
ATOM     25  C   UNL     1      -2.427  -0.166   0.735  0.00  0.00    +0.119 C 
BRANCH  25  26
ATOM     26  C   UNL     1      -1.109   0.580   0.517  0.00  0.00    +0.103 C 
BRANCH  26  27
ATOM     27  N   UNL     1      -1.342   2.027   0.623  0.00  0.00    -0.297 NA
ATOM     28  C   UNL     1      -2.193   2.506  -0.475  0.00  0.00    +0.112 C 
ATOM     29  C   UNL     1      -2.459   4.003  -0.293  0.00  0.00    +0.175 C 
ATOM     30  O   UNL     1      -1.211   4.699  -0.232  0.00  0.00    -0.377 OA
ATOM     31  C   UNL     1      -0.357   4.258   0.828  0.00  0.00    +0.175 C 
ATOM     32  C   UNL     1      -0.070   2.764   0.656  0.00  0.00    +0.112 C 
ENDBRANCH  26  27
ENDBRANCH  25  26
ENDBRANCH  23  25
ENDBRANCH   8  21
BRANCH   6  33
ATOM     33  O   UNL     1      -0.640  -6.263   2.461  0.00  0.00    -0.389 OA
ATOM     34  H   UNL     1       0.367  -5.843   2.318  0.00  0.00    +0.210 HD
ENDBRANCH   6  33
BRANCH   5  35
ATOM     35  O   UNL     1      -2.809  -7.997   1.817  0.00  0.00    -0.387 OA
ATOM     36  H   UNL     1      -1.980  -8.516   2.321  0.00  0.00    +0.210 HD
ENDBRANCH   5  35
TORSDOF 7
