REMARK  Name = ZINC15951913
REMARK  4 active torsions:
REMARK  status: ('A' for Active; 'I' for Inactive)
REMARK    1  A    between atoms: C_1  and  C_2
REMARK    2  A    between atoms: C_11  and  C_37
REMARK    3  A    between atoms: N_13  and  C_17
REMARK    4  A    between atoms: C_21  and  C_23
REMARK                            x       y       z     vdW  Elec       q    Type
REMARK                         _______ _______ _______ _____ _____    ______ ____
ROOT
ATOM      1  C   UNL     1       2.569  -5.702   0.617  0.00  0.00    +0.042 A 
ATOM      2  C   UNL     1       2.026  -6.718  -0.160  0.00  0.00    +0.024 A 
ATOM      3  C   UNL     1       2.825  -7.754  -0.607  0.00  0.00    +0.003 A 
ATOM      4  C   UNL     1       4.167  -7.785  -0.285  0.00  0.00    +0.013 A 
ATOM      5  C   UNL     1       4.721  -6.769   0.494  0.00  0.00    +0.039 A 
ATOM      6  C   UNL     1       3.916  -5.721   0.940  0.00  0.00    +0.036 A 
ENDROOT
BRANCH   1  18
ATOM      7  C   UNL     1       2.049  -0.559   6.393  0.00  0.00    +0.044 C 
ATOM      8  C   UNL     1       2.299  -1.131   5.021  0.00  0.00    -0.050 A 
ATOM      9  C   UNL     1       3.591  -1.238   4.540  0.00  0.00    +0.007 A 
ATOM     10  C   UNL     1       3.820  -1.758   3.283  0.00  0.00    +0.046 A 
ATOM     11  C   UNL     1       2.753  -2.180   2.495  0.00  0.00    +0.128 A 
ATOM     12  C   UNL     1       1.463  -2.077   2.984  0.00  0.00    +0.015 A 
ATOM     13  C   UNL     1       1.237  -1.556   4.245  0.00  0.00    +0.012 A 
ATOM     14  C   UNL     1       0.282  -2.544   2.162  0.00  0.00    +0.114 C 
ATOM     15  C   UNL     1       0.680  -2.495   0.678  0.00  0.00    +0.096 C 
ATOM     16  C   UNL     1       1.972  -3.312   0.536  0.00  0.00    +0.185 C 
ATOM     17  O   UNL     1       3.016  -2.678   1.260  0.00  0.00    -0.468 OA
ATOM     18  N   UNL     1       1.756  -4.655   1.067  0.00  0.00    -0.216 N 
ATOM     19  C   UNL     1       0.801  -4.917   1.973  0.00  0.00    +0.310 C 
ATOM     20  O   UNL     1       0.623  -6.068   2.320  0.00  0.00    -0.252 OA
ATOM     21  N   UNL     1       0.022  -3.947   2.524  0.00  0.00    -0.292 N 
ATOM     22  C   UNL     1       2.350  -3.412  -0.943  0.00  0.00    +0.079 C 
ATOM     23  H   UNL     1      -0.696  -4.167   3.138  0.00  0.00    +0.151 HD
ENDBRANCH   1  18
BRANCH   5  24
ATOM     24  C   UNL     1       6.159  -6.800   0.841  0.00  0.00    +0.247 C 
ATOM     25  O   UNL     1       6.513  -6.581   1.982  0.00  0.00    -0.270 OA
ATOM     26  N   UNL     1       7.075  -7.071  -0.110  0.00  0.00    -0.295 N 
ATOM     27  C   UNL     1       6.657  -7.421  -1.474  0.00  0.00    +0.127 C 
ATOM     28  C   UNL     1       7.337  -6.460  -2.458  0.00  0.00    +0.125 C 
ATOM     29  N   UNL     1       8.772  -6.409  -2.148  0.00  0.00    -0.314 N 
ATOM     30  C   UNL     1       9.191  -6.059  -0.783  0.00  0.00    +0.125 C 
ATOM     31  C   UNL     1       8.511  -7.014   0.198  0.00  0.00    +0.127 C 
ATOM     32  C   UNL     1       9.718  -6.689  -3.128  0.00  0.00    +0.099 A 
ATOM     33  C   UNL     1       9.311  -6.875  -4.445  0.00  0.00    +0.042 A 
ATOM     34  C   UNL     1      10.262  -7.152  -5.410  0.00  0.00    +0.005 A 
ATOM     35  C   UNL     1      11.594  -7.234  -5.024  0.00  0.00    +0.018 A 
ATOM     36  C   UNL     1      11.926  -7.038  -3.699  0.00  0.00    +0.084 A 
ATOM     37  N   UNL     1      10.998  -6.770  -2.800  0.00  0.00    -0.350 N 
ATOM     38  H   UNL     1      11.259  -6.632  -1.876  0.00  0.00    +0.166 HD
ENDBRANCH   5  24
TORSDOF 2
