REMARK  Name = ZINC36257122
REMARK  7 active torsions:
REMARK  status: ('A' for Active; 'I' for Inactive)
REMARK    1  A    between atoms: C_1  and  O_2
REMARK    2  A    between atoms: O_2  and  C_3
REMARK    3  A    between atoms: C_3  and  C_5
REMARK    4  A    between atoms: C_6  and  N_19
REMARK    5  A    between atoms: C_9  and  C_10
REMARK    6  A    between atoms: C_14  and  O_16
REMARK    7  A    between atoms: N_19  and  C_20
REMARK                            x       y       z     vdW  Elec       q    Type
REMARK                         _______ _______ _______ _____ _____    ______ ____
ROOT
ATOM      1  C   UNL     1      -1.033  -1.905  -0.112  0.00  0.00    +0.134 C 
ATOM      2  C   UNL     1      -2.363  -2.339  -0.147  0.00  0.00    +0.088 C 
ATOM      3  S   UNL     1      -2.251  -4.072  -0.545  0.00  0.00    -0.069 S 
ATOM      4  C   UNL     1      -0.481  -4.241  -0.666  0.00  0.00    +0.062 C 
ATOM      5  C   UNL     1       0.246  -5.350  -0.952  0.00  0.00    +0.027 C 
ATOM      6  C   UNL     1      -0.003  -2.875  -0.385  0.00  0.00    +0.209 C 
ATOM      7  O   UNL     1       1.182  -2.586  -0.381  0.00  0.00    -0.286 OA
ENDROOT
BRANCH   5   8
ATOM      8  C   UNL     1       1.710  -5.322  -0.825  0.00  0.00    -0.020 A 
ATOM      9  C   UNL     1       2.311  -4.631   0.234  0.00  0.00    +0.008 A 
ATOM     10  C   UNL     1       3.685  -4.608   0.348  0.00  0.00    +0.004 A 
ATOM     11  C   UNL     1       4.473  -5.264  -0.581  0.00  0.00    +0.045 A 
ATOM     12  C   UNL     1       3.887  -5.952  -1.636  0.00  0.00    +0.117 A 
ATOM     13  C   UNL     1       2.509  -5.989  -1.759  0.00  0.00    +0.053 A 
BRANCH  12  14
ATOM     14  O   UNL     1       4.667  -6.593  -2.545  0.00  0.00    -0.507 OA
ATOM     15  H   UNL     1       4.865  -7.512  -2.315  0.00  0.00    +0.292 HD
ENDBRANCH  12  14
ENDBRANCH   5   8
BRANCH   1  16
ATOM     16  C   UNL     1      -0.701  -0.514   0.187  0.00  0.00    +0.345 C 
ATOM     17  O   UNL     1      -1.587   0.287   0.415  0.00  0.00    -0.245 OA
BRANCH  16  19
ATOM     18  C   UNL     1       0.841   1.255   0.510  0.00  0.00    +0.280 C 
ATOM     19  O   UNL     1       0.589  -0.119   0.211  0.00  0.00    -0.464 OA
ENDBRANCH  16  19
ENDBRANCH   1  16
BRANCH   2  20
ATOM     20  N   UNL     1      -3.492  -1.601   0.073  0.00  0.00    -0.308 N 
ATOM     21  H   UNL     1      -3.427  -0.641   0.200  0.00  0.00    +0.153 HD
BRANCH  20  22
ATOM     22  C   UNL     1      -4.741  -2.229   0.117  0.00  0.00    +0.032 A 
ATOM     23  C   UNL     1      -5.862  -1.585  -0.392  0.00  0.00    +0.026 A 
ATOM     24  C   UNL     1      -7.094  -2.207  -0.348  0.00  0.00    +0.040 A 
ATOM     25  C   UNL     1      -7.213  -3.472   0.203  0.00  0.00    +0.124 A 
ATOM     26  C   UNL     1      -6.097  -4.116   0.712  0.00  0.00    +0.040 A 
ATOM     27  C   UNL     1      -4.862  -3.500   0.664  0.00  0.00    +0.026 A 
ATOM     28  F   UNL     1      -8.419  -4.079   0.245  0.00  0.00    -0.205 F 
ENDBRANCH  20  22
ENDBRANCH   2  20
TORSDOF 6
