REMARK  Name = ZINC09534203
REMARK  4 active torsions:
REMARK  status: ('A' for Active; 'I' for Inactive)
REMARK    1  A    between atoms: C_5  and  C_6
REMARK    2  A    between atoms: N_8  and  C_9
REMARK    3  A    between atoms: C_9  and  C_10
REMARK    4  A    between atoms: C_10  and  N_55
REMARK                            x       y       z     vdW  Elec       q    Type
REMARK                         _______ _______ _______ _____ _____    ______ ____
ROOT
ATOM      1  C   UNL     1      -3.161   7.069  -0.044  0.00  0.00    +0.092 C 
ENDROOT
BRANCH   1   2
ATOM      2  C   UNL     1      -2.345   8.343   0.189  0.00  0.00    -0.049 C 
ATOM      3  C   UNL     1      -1.408   8.137   1.381  0.00  0.00    -0.010 C 
ATOM      4  C   UNL     1      -2.234   7.824   2.631  0.00  0.00    -0.001 C 
ATOM      5  C   UNL     1      -3.181   8.990   2.921  0.00  0.00    -0.000 C 
ATOM      6  C   UNL     1      -4.118   9.196   1.729  0.00  0.00    -0.001 C 
ATOM      7  C   UNL     1      -3.292   9.509   0.480  0.00  0.00    -0.010 C 
BRANCH   2  13
ATOM      8  C   UNL     1      -2.418   8.800  -2.188  0.00  0.00    -0.049 C 
ATOM      9  C   UNL     1      -1.559   9.170  -3.401  0.00  0.00    +0.141 C 
ATOM     10  O   UNL     1      -0.559   8.167  -3.594  0.00  0.00    -0.383 OA
ATOM     11  C   UNL     1       0.303   7.988  -2.466  0.00  0.00    +0.141 C 
ATOM     12  C   UNL     1      -0.537   7.606  -1.245  0.00  0.00    -0.049 C 
ATOM     13  N   UNL     1      -1.539   8.667  -1.008  0.00  0.00    +0.387 N 
ATOM     14  H   UNL     1      -1.052   9.557  -0.852  0.00  0.00    -0.081 HD
ENDBRANCH   2  13
ENDBRANCH   1   2
BRANCH   1  17
ATOM     15  C   UNL     1      -2.739   4.709  -0.476  0.00  0.00    +0.251 C 
ATOM     16  O   UNL     1      -3.925   4.570  -0.712  0.00  0.00    -0.270 OA
ATOM     17  N   UNL     1      -2.257   5.920  -0.133  0.00  0.00    -0.312 N 
ATOM     18  H   UNL     1      -1.312   6.030   0.055  0.00  0.00    +0.149 HD
BRANCH  15  23
ATOM     19  C   UNL     1      -2.120   2.248  -0.901  0.00  0.00    +0.024 A 
ATOM     20  C   UNL     1      -1.080   1.333  -0.911  0.00  0.00    -0.036 A 
ATOM     21  C   UNL     1       0.160   1.809  -0.593  0.00  0.00    -0.006 A 
ATOM     22  S   UNL     1      -0.075   3.485  -0.275  0.00  0.00    -0.088 S 
ATOM     23  C   UNL     1      -1.834   3.559  -0.565  0.00  0.00    +0.074 A 
ATOM     24  C   UNL     1       1.439   1.030  -0.536  0.00  0.00    +0.043 C 
ATOM     25  C   UNL     1       1.094  -0.466  -0.527  0.00  0.00    +0.005 C 
ATOM     26  C   UNL     1       0.075  -0.744  -1.635  0.00  0.00    +0.005 C 
ATOM     27  C   UNL     1      -1.279  -0.139  -1.262  0.00  0.00    +0.036 C 
ENDBRANCH  15  23
ENDBRANCH   1  17
TORSDOF 4
