REMARK  Name = ZINC39676568
REMARK  13 active torsions:
REMARK  status: ('A' for Active; 'I' for Inactive)
REMARK    1  A    between atoms: C_1  and  C_2
REMARK    2  A    between atoms: C_2  and  C_3
REMARK    3  A    between atoms: C_3  and  C_4
REMARK    4  A    between atoms: C_3  and  C_6
REMARK    5  A    between atoms: C_4  and  C_5
REMARK    6  A    between atoms: C_10  and  C_19
REMARK    7  A    between atoms: N_21  and  C_22
REMARK    8  A    between atoms: C_22  and  C_23
REMARK    9  A    between atoms: C_22  and  C_31
REMARK   10  A    between atoms: C_26  and  O_29
REMARK   11  A    between atoms: O_29  and  C_30
REMARK   12  A    between atoms: C_34  and  O_37
REMARK   13  A    between atoms: O_37  and  C_38
REMARK                            x       y       z     vdW  Elec       q    Type
REMARK                         _______ _______ _______ _____ _____    ______ ____
ROOT
ATOM      1  C   UNL     1       3.527  -2.331  -3.048  0.00  0.00    +0.219 C 
ATOM      2  O   UNL     1       2.502  -2.314  -3.697  0.00  0.00    -0.275 OA
ATOM      3  N   UNL     1       4.720  -2.355  -3.674  0.00  0.00    -0.304 N 
ATOM      4  H   UNL     1       5.540  -2.369  -3.155  0.00  0.00    +0.150 HD
ENDROOT
BRANCH   1   9
ATOM      5  C   UNL     1       1.214  -2.024   1.279  0.00  0.00    +0.219 C 
ATOM      6  O   UNL     1       0.950  -2.805   2.168  0.00  0.00    -0.275 OA
ATOM      7  N   UNL     1       1.753  -2.472   0.127  0.00  0.00    -0.300 N 
ATOM      8  C   UNL     1       2.147  -1.679  -1.060  0.00  0.00    +0.121 C 
ATOM      9  C   UNL     1       3.465  -2.325  -1.542  0.00  0.00    +0.100 C 
ATOM     10  C   UNL     1       3.417  -3.764  -1.000  0.00  0.00    -0.004 C 
ATOM     11  C   UNL     1       2.091  -3.870  -0.235  0.00  0.00    +0.115 C 
ATOM     12  C   UNL     1       4.588  -4.011  -0.053  0.00  0.00    -0.010 C 
ATOM     13  C   UNL     1       4.551  -5.464   0.428  0.00  0.00    -0.082 C 
ATOM     14  N   UNL     1       4.632  -6.366  -0.728  0.00  0.00    +0.379 N 
ATOM     15  C   UNL     1       3.455  -6.187  -1.586  0.00  0.00    -0.082 C 
ATOM     16  C   UNL     1       3.445  -4.764  -2.152  0.00  0.00    -0.010 C 
ATOM     17  H   UNL     1       5.466  -6.159  -1.256  0.00  0.00    -0.086 HD
ATOM     18  H   UNL     1       4.669  -7.321  -0.405  0.00  0.00    -0.086 HD
BRANCH   5  19
ATOM     19  C   UNL     1       0.942  -0.553   1.461  0.00  0.00    +0.075 C 
BRANCH  19  21
ATOM     20  C   UNL     1      -0.206   1.438   0.481  0.00  0.00    +0.004 C 
ATOM     21  C   UNL     1      -0.038  -0.080   0.385  0.00  0.00    +0.009 C 
ENDBRANCH  19  21
BRANCH  19  22
ATOM     22  C   UNL     1       0.335  -0.315   2.845  0.00  0.00    +0.009 C 
ATOM     23  C   UNL     1       1.375  -0.634   3.920  0.00  0.00    +0.004 C 
ENDBRANCH  19  22
ENDBRANCH   5  19
ENDBRANCH   1   9
BRANCH   3  24
ATOM     24  C   UNL     1       4.780  -2.361  -5.137  0.00  0.00    +0.134 C 
BRANCH  24  25
ATOM     25  C   UNL     1       4.704  -0.945  -5.649  0.00  0.00    -0.023 A 
ATOM     26  C   UNL     1       5.384   0.063  -4.992  0.00  0.00    +0.009 A 
ATOM     27  C   UNL     1       5.315   1.362  -5.459  0.00  0.00    +0.046 A 
ATOM     28  C   UNL     1       4.563   1.653  -6.587  0.00  0.00    +0.120 A 
ATOM     29  C   UNL     1       3.881   0.639  -7.244  0.00  0.00    +0.046 A 
ATOM     30  C   UNL     1       3.957  -0.659  -6.777  0.00  0.00    +0.009 A 
BRANCH  28  31
ATOM     31  O   UNL     1       4.493   2.930  -7.048  0.00  0.00    -0.495 OA
ATOM     32  C   UNL     1       3.699   3.156  -8.214  0.00  0.00    +0.277 C 
ENDBRANCH  28  31
ENDBRANCH  24  25
BRANCH  24  33
ATOM     33  C   UNL     1       6.076  -2.987  -5.585  0.00  0.00    -0.023 A 
ATOM     34  C   UNL     1       7.246  -2.718  -4.898  0.00  0.00    +0.009 A 
ATOM     35  C   UNL     1       8.435  -3.290  -5.307  0.00  0.00    +0.046 A 
ATOM     36  C   UNL     1       8.455  -4.136  -6.406  0.00  0.00    +0.120 A 
ATOM     37  C   UNL     1       7.280  -4.405  -7.092  0.00  0.00    +0.046 A 
ATOM     38  C   UNL     1       6.092  -3.835  -6.677  0.00  0.00    +0.009 A 
BRANCH  36  39
ATOM     39  O   UNL     1       9.624  -4.700  -6.809  0.00  0.00    -0.495 OA
ATOM     40  C   UNL     1       9.569  -5.561  -7.949  0.00  0.00    +0.277 C 
ENDBRANCH  36  39
ENDBRANCH  24  33
ENDBRANCH   3  24
TORSDOF 9
