REMARK  Name = ZINC02416632
REMARK  6 active torsions:
REMARK  status: ('A' for Active; 'I' for Inactive)
REMARK    1  A    between atoms: C_9  and  C_23
REMARK    2  A    between atoms: C_10  and  N_22
REMARK    3  A    between atoms: N_11  and  C_14
REMARK    4  A    between atoms: C_23  and  O_25
REMARK    5  A    between atoms: O_25  and  C_26
REMARK    6  A    between atoms: C_26  and  C_27
REMARK                            x       y       z     vdW  Elec       q    Type
REMARK                         _______ _______ _______ _____ _____    ______ ____
ROOT
ATOM      1  C   UNL     1      -3.062  -4.440   4.723  0.00  0.00    +0.002 A 
ATOM      2  C   UNL     1      -1.825  -3.909   5.087  0.00  0.00    +0.002 A 
ATOM      3  C   UNL     1      -1.159  -3.056   4.263  0.00  0.00    +0.030 A 
ATOM      4  C   UNL     1      -1.720  -2.702   3.023  0.00  0.00    +0.092 A 
ATOM      5  C   UNL     1      -2.978  -3.242   2.653  0.00  0.00    +0.090 A 
ATOM      6  C   UNL     1      -3.637  -4.120   3.532  0.00  0.00    +0.030 A 
ATOM      7  N   UNL     1      -3.523  -2.913   1.477  0.00  0.00    -0.241 NA
ATOM      8  C   UNL     1      -2.883  -2.087   0.671  0.00  0.00    +0.125 A 
ATOM      9  C   UNL     1      -3.192  -1.532  -0.659  0.00  0.00    +0.126 A 
ATOM     10  C   UNL     1      -2.121  -0.709  -0.998  0.00  0.00    +0.119 A 
ATOM     11  N   UNL     1      -1.202  -0.722   0.009  0.00  0.00    -0.280 N 
ATOM     12  C   UNL     1      -1.621  -1.548   1.036  0.00  0.00    +0.167 A 
ATOM     13  N   UNL     1      -1.081  -1.865   2.196  0.00  0.00    -0.225 NA
ENDROOT
BRANCH  11  14
ATOM     14  C   UNL     1       0.002  -0.004   0.002  0.00  0.00    +0.051 A 
ATOM     15  C   UNL     1       1.215  -0.680  -0.013  0.00  0.00    +0.029 A 
ATOM     16  C   UNL     1       2.400   0.028  -0.021  0.00  0.00    +0.042 A 
ATOM     17  C   UNL     1       2.380   1.413  -0.013  0.00  0.00    +0.142 A 
ATOM     18  C   UNL     1       1.172   2.090   0.002  0.00  0.00    +0.078 A 
ATOM     19  C   UNL     1      -0.017   1.384   0.010  0.00  0.00    +0.049 A 
ATOM     20 CL   UNL     1       1.149   3.826   0.011  0.00  0.00    -0.081 Cl
ATOM     21  F   UNL     1       3.541   2.104  -0.021  0.00  0.00    -0.204 F 
ENDBRANCH  11  14
BRANCH  10  22
ATOM     22  N   UNL     1      -2.008   0.005  -2.162  0.00  0.00    -0.343 N 
ATOM     23  H   UNL     1      -1.226   0.557  -2.319  0.00  0.00    +0.144 HD
ATOM     24  H   UNL     1      -2.710  -0.042  -2.829  0.00  0.00    +0.144 HD
ENDBRANCH  10  22
BRANCH   9  25
ATOM     25  C   UNL     1      -4.347  -1.785  -1.438  0.00  0.00    +0.345 C 
ATOM     26  O   UNL     1      -4.358  -2.712  -2.227  0.00  0.00    -0.245 OA
BRANCH  25  27
ATOM     27  O   UNL     1      -5.435  -0.998  -1.306  0.00  0.00    -0.458 OA
BRANCH  27  28
ATOM     28  C   UNL     1      -6.565  -1.311  -2.124  0.00  0.00    +0.264 C 
BRANCH  28  29
ATOM     29  C   UNL     1      -7.693  -0.318  -1.837  0.00  0.00    +0.156 C 
ATOM     30  C   UNL     1      -8.869  -0.568  -2.800  0.00  0.00    +0.037 C 
ATOM     31  C   UNL     1     -10.068  -0.866  -1.866  0.00  0.00    +0.031 C 
ATOM     32  C   UNL     1      -9.603  -0.233  -0.530  0.00  0.00    +0.160 C 
ATOM     33  O   UNL     1      -8.186  -0.511  -0.501  0.00  0.00    -0.373 OA
ENDBRANCH  28  29
ENDBRANCH  27  28
ENDBRANCH  25  27
ENDBRANCH   9  25
TORSDOF 6
