REMARK  Name = ZINC39454566
REMARK  8 active torsions:
REMARK  status: ('A' for Active; 'I' for Inactive)
REMARK    1  A    between atoms: C_1  and  C_2
REMARK    2  A    between atoms: C_5  and  C_30
REMARK    3  A    between atoms: C_12  and  N_15
REMARK    4  A    between atoms: C_16  and  C_18
REMARK    5  A    between atoms: C_18  and  N_19
REMARK    6  A    between atoms: N_19  and  C_20
REMARK    7  A    between atoms: N_19  and  C_21
REMARK    8  A    between atoms: C_21  and  C_22
REMARK                            x       y       z     vdW  Elec       q    Type
REMARK                         _______ _______ _______ _____ _____    ______ ____
ROOT
ATOM      1  N   UNL     1      -0.438   0.574   2.936  0.00  0.00    -0.288 N 
ATOM      2  C   UNL     1       0.116   0.690   4.160  0.00  0.00    +0.199 C 
ATOM      3  O   UNL     1       0.848  -0.181   4.580  0.00  0.00    -0.278 OA
ATOM      4  H   UNL     1      -1.023   1.270   2.600  0.00  0.00    +0.151 HD
ENDROOT
BRANCH   1  15
ATOM      5  C   UNL     1      -0.003   1.661   0.020  0.00  0.00    +0.043 C 
ATOM      6  C   UNL     1       0.167   0.141  -0.017  0.00  0.00    +0.150 C 
ATOM      7  C   UNL     1      -1.180  -0.534   0.031  0.00  0.00    +0.016 A 
ATOM      8  C   UNL     1      -2.184  -0.765  -0.916  0.00  0.00    +0.065 A 
ATOM      9  N   UNL     1      -3.275  -1.396  -0.571  0.00  0.00    -0.176 NA
ATOM     10  N   UNL     1      -3.480  -1.825   0.622  0.00  0.00    -0.243 N 
ATOM     11  C   UNL     1      -2.572  -1.651   1.604  0.00  0.00    +0.272 A 
ATOM     12  O   UNL     1      -2.788  -2.069   2.731  0.00  0.00    -0.266 OA
ATOM     13  C   UNL     1      -1.372  -0.981   1.309  0.00  0.00    +0.072 A 
ATOM     14  H   UNL     1      -4.309  -2.287   0.822  0.00  0.00    +0.192 HD
ATOM     15  C   UNL     1      -0.155  -0.606   2.114  0.00  0.00    +0.243 C 
ATOM     16  O   UNL     1       0.878  -0.307   1.153  0.00  0.00    -0.347 OA
ATOM     17  C   UNL     1      -2.007  -0.287  -2.334  0.00  0.00    +0.068 C 
ENDBRANCH   1  15
BRANCH   2  18
ATOM     18  C   UNL     1      -0.175   1.903   5.006  0.00  0.00    +0.019 C 
BRANCH  18  19
ATOM     19  N   UNL     1       0.542   1.792   6.283  0.00  0.00    +0.386 N 
ATOM     20  C   UNL     1       1.990   1.827   6.037  0.00  0.00    -0.095 C 
ATOM     21  H   UNL     1       0.298   0.921   6.731  0.00  0.00    -0.081 HD
BRANCH  19  22
ATOM     22  C   UNL     1       0.165   2.913   7.155  0.00  0.00    -0.041 C 
BRANCH  22  23
ATOM     23  C   UNL     1       0.792   2.726   8.512  0.00  0.00    -0.044 A 
ATOM     24  C   UNL     1       1.884   3.489   8.881  0.00  0.00    +0.003 A 
ATOM     25  C   UNL     1       2.459   3.318  10.126  0.00  0.00    +0.002 A 
ATOM     26  C   UNL     1       1.943   2.384  11.004  0.00  0.00    +0.021 A 
ATOM     27  C   UNL     1       0.851   1.619  10.637  0.00  0.00    +0.059 A 
ATOM     28  C   UNL     1       0.271   1.795   9.392  0.00  0.00    +0.061 A 
ATOM     29 CL   UNL     1      -1.106   0.842   8.933  0.00  0.00    -0.082 Cl
ATOM     30 CL   UNL     1       0.202   0.446  11.740  0.00  0.00    -0.082 Cl
ENDBRANCH  22  23
ENDBRANCH  19  22
ENDBRANCH  18  19
ENDBRANCH   2  18
TORSDOF 5
