REMARK  Name = ZINC39603899
REMARK  9 active torsions:
REMARK  status: ('A' for Active; 'I' for Inactive)
REMARK    1  A    between atoms: C_1  and  C_2
REMARK    2  A    between atoms: C_2  and  O_3
REMARK    3  A    between atoms: O_3  and  C_4
REMARK    4  A    between atoms: C_4  and  C_6
REMARK    5  A    between atoms: C_6  and  C_7
REMARK    6  A    between atoms: C_7  and  N_8
REMARK    7  A    between atoms: C_9  and  C_11
REMARK    8  A    between atoms: C_22  and  C_24
REMARK    9  A    between atoms: C_27  and  C_30
REMARK                            x       y       z     vdW  Elec       q    Type
REMARK                         _______ _______ _______ _____ _____    ______ ____
ROOT
ATOM      1  C   UNL     1       2.218  -6.325  -5.013  0.00  0.00    +0.100 C 
ATOM      2  C   UNL     1       1.721  -5.982  -6.435  0.00  0.00    +0.121 C 
ATOM      3  N   UNL     1       1.964  -7.213  -7.223  0.00  0.00    -0.296 N 
ATOM      4  C   UNL     1       1.612  -8.318  -6.300  0.00  0.00    +0.115 C 
ATOM      5  C   UNL     1       2.143  -7.859  -4.928  0.00  0.00    -0.004 C 
ATOM      6  C   UNL     1       1.181  -8.281  -3.821  0.00  0.00    -0.010 C 
ATOM      7  C   UNL     1       1.168  -9.808  -3.717  0.00  0.00    -0.082 C 
ATOM      8  N   UNL     1       2.523 -10.292  -3.425  0.00  0.00    +0.379 N 
ATOM      9  C   UNL     1       3.423  -9.963  -4.537  0.00  0.00    -0.082 C 
ATOM     10  C   UNL     1       3.531  -8.442  -4.676  0.00  0.00    -0.010 C 
ATOM     11  C   UNL     1       2.406  -7.308  -8.493  0.00  0.00    +0.247 C 
ATOM     12  O   UNL     1       2.778  -6.312  -9.083  0.00  0.00    -0.270 OA
ATOM     13  H   UNL     1       2.861  -9.854  -2.581  0.00  0.00    -0.086 HD
ATOM     14  H   UNL     1       2.501 -11.292  -3.296  0.00  0.00    -0.086 HD
ENDROOT
BRANCH  11  15
ATOM     15  C   UNL     1       2.440  -8.623  -9.169  0.00  0.00    +0.037 A 
ATOM     16  C   UNL     1       1.646  -9.671  -8.701  0.00  0.00    +0.013 A 
ATOM     17  C   UNL     1       1.682 -10.895  -9.336  0.00  0.00    +0.013 A 
ATOM     18  C   UNL     1       2.502 -11.085 -10.434  0.00  0.00    +0.055 A 
ATOM     19  C   UNL     1       3.292 -10.050 -10.902  0.00  0.00    +0.013 A 
ATOM     20  C   UNL     1       3.261  -8.819 -10.280  0.00  0.00    +0.013 A 
BRANCH  18  21
ATOM     21  C   UNL     1       2.536 -12.425 -11.123  0.00  0.00    +0.417 C 
ATOM     22  F   UNL     1       1.569 -12.455 -12.133  0.00  0.00    -0.166 F 
ATOM     23  F   UNL     1       3.802 -12.630 -11.683  0.00  0.00    -0.166 F 
ATOM     24  F   UNL     1       2.270 -13.435 -10.191  0.00  0.00    -0.166 F 
ENDBRANCH  18  21
ENDBRANCH  11  15
BRANCH   1  26
ATOM     25  N   UNL     1       1.821  -5.334  -2.782  0.00  0.00    -0.314 N 
ATOM     26  C   UNL     1       1.319  -5.698  -3.978  0.00  0.00    +0.218 C 
ATOM     27  O   UNL     1       0.144  -5.521  -4.223  0.00  0.00    -0.275 OA
ATOM     28  H   UNL     1       2.761  -5.475  -2.586  0.00  0.00    +0.149 HD
BRANCH  25  29
ATOM     29  C   UNL     1       0.948  -4.724  -1.776  0.00  0.00    +0.115 C 
BRANCH  29  30
ATOM     30  C   UNL     1       1.760  -4.408  -0.519  0.00  0.00    +0.139 C 
BRANCH  30  31
ATOM     31  C   UNL     1       0.862  -3.781   0.516  0.00  0.00    +0.309 C 
ATOM     32  O   UNL     1      -0.308  -3.604   0.273  0.00  0.00    -0.251 OA
BRANCH  31  33
ATOM     33  O   UNL     1       1.362  -3.418   1.708  0.00  0.00    -0.465 OA
BRANCH  33  35
ATOM     34  C   UNL     1       1.199  -2.484   3.931  0.00  0.00    +0.048 C 
ATOM     35  C   UNL     1       0.453  -2.829   2.640  0.00  0.00    +0.229 C 
ENDBRANCH  33  35
ENDBRANCH  31  33
ENDBRANCH  30  31
ENDBRANCH  29  30
ENDBRANCH  25  29
ENDBRANCH   1  26
TORSDOF 8
