REMARK  Name = ZINC56574766
REMARK  11 active torsions:
REMARK  status: ('A' for Active; 'I' for Inactive)
REMARK    1  A    between atoms: C_1  and  C_2
REMARK    2  A    between atoms: C_2  and  C_4
REMARK    3  A    between atoms: C_2  and  N_12
REMARK    4  A    between atoms: C_4  and  C_5
REMARK    5  A    between atoms: C_8  and  O_11
REMARK    6  A    between atoms: N_15  and  C_16
REMARK    7  A    between atoms: C_19  and  S_22
REMARK    8  A    between atoms: S_22  and  N_25
REMARK    9  A    between atoms: N_25  and  C_26
REMARK   10  A    between atoms: C_26  and  C_27
REMARK   11  A    between atoms: C_26  and  C_28
REMARK                            x       y       z     vdW  Elec       q    Type
REMARK                         _______ _______ _______ _____ _____    ______ ____
ROOT
ATOM      1  N   UNL     1       0.687  -0.482  -1.202  0.00  0.00    -0.296 N 
ATOM      2  C   UNL     1       2.031  -0.585  -1.216  0.00  0.00    +0.304 C 
ATOM      3  O   UNL     1       2.674  -0.285  -0.229  0.00  0.00    -0.253 OA
ATOM      4  N   UNL     1       2.662  -1.022  -2.324  0.00  0.00    -0.269 N 
ATOM      5  H   UNL     1       0.174  -0.722  -1.989  0.00  0.00    +0.151 HD
ATOM      6  H   UNL     1       2.147  -1.325  -3.088  0.00  0.00    +0.156 HD
ENDROOT
BRANCH   4   7
ATOM      7  C   UNL     1       4.060  -1.037  -2.373  0.00  0.00    +0.035 A 
ATOM      8  C   UNL     1       4.718  -0.758  -3.563  0.00  0.00    +0.025 A 
ATOM      9  C   UNL     1       6.098  -0.774  -3.608  0.00  0.00    +0.030 A 
ATOM     10  C   UNL     1       6.825  -1.067  -2.469  0.00  0.00    +0.105 A 
ATOM     11  C   UNL     1       6.173  -1.346  -1.282  0.00  0.00    +0.030 A 
ATOM     12  C   UNL     1       4.793  -1.326  -1.229  0.00  0.00    +0.025 A 
BRANCH  10  13
ATOM     13  S   UNL     1       8.586  -1.086  -2.530  0.00  0.00    +0.059 S 
ATOM     14  O   UNL     1       9.021  -1.922  -1.466  0.00  0.00    -0.153 OA
ATOM     15  O   UNL     1       8.943  -1.328  -3.884  0.00  0.00    -0.153 OA
BRANCH  13  16
ATOM     16  N   UNL     1       9.105   0.445  -2.171  0.00  0.00    -0.187 NA
ATOM     17  H   UNL     1       9.570   0.969  -2.841  0.00  0.00    +0.148 HD
BRANCH  16  18
ATOM     18  C   UNL     1       8.862   1.007  -0.840  0.00  0.00    +0.070 C 
ATOM     19  C   UNL     1      10.040   1.896  -0.438  0.00  0.00    +0.025 C 
ATOM     20  C   UNL     1       7.580   1.842  -0.866  0.00  0.00    +0.025 C 
ENDBRANCH  16  18
ENDBRANCH  13  16
ENDBRANCH  10  13
ENDBRANCH   4   7
BRANCH   1  22
ATOM     21  C   UNL     1      -0.028   1.522   0.004  0.00  0.00    +0.028 C 
ATOM     22  C   UNL     1       0.002  -0.008   0.003  0.00  0.00    +0.076 C 
BRANCH  22  23
ATOM     23  C   UNL     1      -1.431  -0.545   0.019  0.00  0.00    +0.057 C 
BRANCH  23  24
ATOM     24  C   UNL     1      -1.403  -2.047   0.142  0.00  0.00    -0.045 A 
ATOM     25  C   UNL     1      -1.361  -2.832  -0.996  0.00  0.00    +0.007 A 
ATOM     26  C   UNL     1      -1.336  -4.208  -0.886  0.00  0.00    +0.045 A 
ATOM     27  C   UNL     1      -1.351  -4.804   0.367  0.00  0.00    +0.117 A 
ATOM     28  C   UNL     1      -1.392  -4.014   1.507  0.00  0.00    +0.045 A 
ATOM     29  C   UNL     1      -1.412  -2.638   1.392  0.00  0.00    +0.007 A 
BRANCH  27  30
ATOM     30  O   UNL     1      -1.327  -6.158   0.477  0.00  0.00    -0.507 OA
ATOM     31  H   UNL     1      -0.437  -6.532   0.528  0.00  0.00    +0.292 HD
ENDBRANCH  27  30
ENDBRANCH  23  24
ENDBRANCH  22  23
ENDBRANCH   1  22
TORSDOF 8
