REMARK  Name = ZINC35363835
REMARK  6 active torsions:
REMARK  status: ('A' for Active; 'I' for Inactive)
REMARK    1  A    between atoms: C_1  and  C_2
REMARK    2  A    between atoms: C_2  and  O_4
REMARK    3  A    between atoms: O_4  and  C_5
REMARK    4  A    between atoms: C_8  and  N_11
REMARK    5  A    between atoms: CA_16  and  C_33
REMARK    6  A    between atoms: C_33  and  O_34
REMARK                            x       y       z     vdW  Elec       q    Type
REMARK                         _______ _______ _______ _____ _____    ______ ____
ROOT
ATOM      1  N   UNL     1      -0.567  -6.182  -0.306  0.00  0.00    -0.210 N 
ATOM      2  C   UNL     1       0.620  -6.791  -0.196  0.00  0.00    +0.232 C 
ATOM      3  O   UNL     1       1.680  -6.231  -0.017  0.00  0.00    -0.274 OA
ATOM      4  C   UNL     1       0.432  -8.286  -0.329  0.00  0.00    +0.109 C 
ATOM      5  CA  UNL     1       1.070  -8.760  -1.651  0.00  0.00    +0.093 C 
ATOM      6  N   UNL     1       0.057  -9.662  -2.261  0.00  0.00    -0.293 NA
ATOM      7  C   UNL     1      -1.232  -9.009  -1.966  0.00  0.00    +0.136 C 
ATOM      8  C   UNL     1      -1.101  -8.437  -0.532  0.00  0.00    +0.123 C 
ATOM      9  C   UNL     1      -1.601  -7.010  -0.494  0.00  0.00    +0.233 C 
ATOM     10  O   UNL     1      -2.758  -6.670  -0.616  0.00  0.00    -0.274 OA
ATOM     11  C   UNL     1      -1.551  -7.938  -2.970  0.00  0.00    +0.003 A 
ATOM     12  C   UNL     1      -0.910  -6.784  -3.361  0.00  0.00    +0.008 A 
ATOM     13  C   UNL     1      -1.468  -5.980  -4.340  0.00  0.00    +0.000 A 
ATOM     14  C   UNL     1      -2.669  -6.339  -4.924  0.00  0.00    +0.002 A 
ATOM     15  C   UNL     1      -3.314  -7.494  -4.535  0.00  0.00    +0.023 A 
ATOM     16  C   UNL     1      -2.760  -8.309  -3.550  0.00  0.00    +0.039 A 
ATOM     17  N   UNL     1      -3.214  -9.507  -2.996  0.00  0.00    -0.283 N 
ATOM     18  C   UNL     1      -2.374  -9.984  -2.058  0.00  0.00    +0.243 C 
ATOM     19  O   UNL     1      -2.511 -11.002  -1.413  0.00  0.00    -0.273 OA
ATOM     20  H   UNL     1       0.200  -9.745  -3.257  0.00  0.00    +0.124 HD
ATOM     21  H   UNL     1      -4.040  -9.945  -3.256  0.00  0.00    +0.155 HD
ENDROOT
BRANCH   1  25
ATOM     22  C   UNL     1      -1.006  -2.041  -0.066  0.00  0.00    +0.132 A 
ATOM     23  C   UNL     1      -1.534  -2.853   0.927  0.00  0.00    +0.048 A 
ATOM     24  C   UNL     1      -1.389  -4.224   0.849  0.00  0.00    +0.027 A 
ATOM     25  C   UNL     1      -0.715  -4.789  -0.226  0.00  0.00    +0.044 A 
ATOM     26  C   UNL     1      -0.188  -3.976  -1.220  0.00  0.00    +0.027 A 
ATOM     27  C   UNL     1      -0.338  -2.606  -1.143  0.00  0.00    +0.048 A 
BRANCH  22  28
ATOM     28  O   UNL     1      -1.150  -0.691   0.012  0.00  0.00    -0.426 OA
BRANCH  28  30
ATOM     29  C   UNL     1      -0.398   1.485   0.905  0.00  0.00    +0.136 C 
ATOM     30  C   UNL     1      -0.356  -0.021   0.862  0.00  0.00    +0.309 C 
ATOM     31  O   UNL     1       0.393  -0.625   1.593  0.00  0.00    -0.251 OA
ENDBRANCH  28  30
ENDBRANCH  22  28
ENDBRANCH   1  25
BRANCH   5  32
ATOM     32  C   UNL     1       2.367  -9.524  -1.373  0.00  0.00    +0.175 C 
BRANCH  32  33
ATOM     33  O   UNL     1       3.001  -9.853  -2.610  0.00  0.00    -0.393 OA
ATOM     34  H   UNL     1       3.831 -10.340  -2.510  0.00  0.00    +0.209 HD
ENDBRANCH  32  33
ENDBRANCH   5  32
TORSDOF 5
