REMARK  Name = ZINC36922543
REMARK  5 active torsions:
REMARK  status: ('A' for Active; 'I' for Inactive)
REMARK    1  A    between atoms: C_1  and  C_2
REMARK    2  A    between atoms: C_2  and  C_4
REMARK    3  A    between atoms: C_2  and  N_11
REMARK    4  A    between atoms: C_9  and  O_10
REMARK    5  A    between atoms: N_11  and  C_12
REMARK                            x       y       z     vdW  Elec       q    Type
REMARK                         _______ _______ _______ _____ _____    ______ ____
ROOT
ATOM      1  N   UNL     1      -1.372  -0.511   0.012  0.00  0.00    -0.336 N 
ATOM      2  H   UNL     1      -1.810  -0.743  -0.822  0.00  0.00    +0.147 HD
ENDROOT
BRANCH   1   3
ATOM      3  C   UNL     1      -2.054  -0.661   1.226  0.00  0.00    +0.050 A 
ATOM      4  C   UNL     1      -1.430  -0.324   2.419  0.00  0.00    +0.073 A 
ATOM      5  C   UNL     1      -2.106  -0.471   3.621  0.00  0.00    +0.164 A 
ATOM      6  C   UNL     1      -3.409  -0.955   3.629  0.00  0.00    +0.164 A 
ATOM      7  C   UNL     1      -4.029  -1.293   2.436  0.00  0.00    +0.071 A 
ATOM      8  C   UNL     1      -3.357  -1.142   1.236  0.00  0.00    +0.065 A 
ATOM      9 CL   UNL     1      -4.141  -1.558  -0.256  0.00  0.00    -0.082 Cl
ATOM     10  O   UNL     1      -4.091  -1.100   4.799  0.00  0.00    -0.485 OA
ATOM     11  C   UNL     1      -3.313  -1.105   6.001  0.00  0.00    +0.270 C 
ATOM     12  C   UNL     1      -2.312   0.056   5.931  0.00  0.00    +0.270 C 
ATOM     13  O   UNL     1      -1.479  -0.139   4.783  0.00  0.00    -0.485 OA
ENDBRANCH   1   3
BRANCH   1  15
ATOM     14  C   UNL     1      -0.019   1.526   0.010  0.00  0.00    +0.033 C 
ATOM     15  C   UNL     1       0.002  -0.004   0.002  0.00  0.00    +0.101 C 
BRANCH  15  16
ATOM     16  C   UNL     1       0.707  -0.490  -1.238  0.00  0.00    +0.014 A 
ATOM     17  C   UNL     1      -0.022  -0.817  -2.365  0.00  0.00    +0.009 A 
ATOM     18  C   UNL     1       0.625  -1.264  -3.502  0.00  0.00    +0.001 A 
ATOM     19  C   UNL     1       2.002  -1.383  -3.516  0.00  0.00    +0.004 A 
ATOM     20  C   UNL     1       2.736  -1.057  -2.392  0.00  0.00    +0.046 A 
ATOM     21  C   UNL     1       2.090  -0.604  -1.250  0.00  0.00    +0.122 A 
BRANCH  21  22
ATOM     22  O   UNL     1       2.810  -0.277  -0.145  0.00  0.00    -0.506 OA
ATOM     23  H   UNL     1       2.952  -1.015   0.464  0.00  0.00    +0.292 HD
ENDBRANCH  21  22
ENDBRANCH  15  16
ENDBRANCH   1  15
TORSDOF 4
