REMARK  Name = ZINC40761413
REMARK  4 active torsions:
REMARK  status: ('A' for Active; 'I' for Inactive)
REMARK    1  A    between atoms: C_14  and  N_26
REMARK    2  A    between atoms: C_15  and  N_19
REMARK    3  A    between atoms: N_19  and  C_20
REMARK    4  A    between atoms: C_20  and  C_21
REMARK                            x       y       z     vdW  Elec       q    Type
REMARK                         _______ _______ _______ _____ _____    ______ ____
ROOT
ATOM      1  C   UNL     1       2.379   1.436   0.016  0.00  0.00    +0.005 A 
ATOM      2  C   UNL     1       1.137   2.057   0.002  0.00  0.00    +0.018 A 
ATOM      3  C   UNL     1      -0.006   1.283  -0.019  0.00  0.00    +0.084 A 
ATOM      4  N   UNL     1       0.069  -0.035  -0.027  0.00  0.00    -0.350 N 
ATOM      5  C   UNL     1       1.234  -0.664  -0.014  0.00  0.00    +0.099 A 
ATOM      6  C   UNL     1       2.426   0.054   0.008  0.00  0.00    +0.042 A 
ATOM      7  N   UNL     1       1.267  -2.053  -0.022  0.00  0.00    -0.314 N 
ATOM      8  C   UNL     1       2.544  -2.771  -0.140  0.00  0.00    +0.125 C 
ATOM      9  C   UNL     1       2.674  -3.738   1.044  0.00  0.00    +0.125 C 
ATOM     10  N   UNL     1       1.432  -4.516   1.153  0.00  0.00    -0.311 N 
ATOM     11  C   UNL     1       0.154  -3.798   1.271  0.00  0.00    +0.125 C 
ATOM     12  C   UNL     1       0.025  -2.831   0.093  0.00  0.00    +0.125 C 
ATOM     13  C   UNL     1       1.464  -5.905   1.145  0.00  0.00    +0.147 A 
ATOM     14  C   UNL     1       1.486  -6.621   2.343  0.00  0.00    +0.105 A 
ATOM     15  C   UNL     1       1.518  -8.014   2.278  0.00  0.00    +0.145 A 
ATOM     16  N   UNL     1       1.526  -8.604   1.085  0.00  0.00    -0.219 NA
ATOM     17  C   UNL     1       1.505  -7.891  -0.023  0.00  0.00    +0.225 A 
ATOM     18  N   UNL     1       1.469  -6.574  -0.005  0.00  0.00    -0.219 NA
ATOM     19  H   UNL     1      -0.749  -0.555  -0.042  0.00  0.00    +0.166 HD
ENDROOT
BRANCH  14  20
ATOM     20  N   UNL     1       1.477  -5.956   3.581  0.00  0.00    -0.353 N 
ATOM     21  H   UNL     1       1.381  -4.991   3.613  0.00  0.00    +0.143 HD
ATOM     22  H   UNL     1       1.566  -6.462   4.404  0.00  0.00    +0.143 HD
ENDBRANCH  14  20
BRANCH  15  23
ATOM     23  N   UNL     1       1.542  -8.775   3.441  0.00  0.00    -0.320 N 
ATOM     24  H   UNL     1       1.536  -8.337   4.307  0.00  0.00    +0.148 HD
BRANCH  23  25
ATOM     25  C   UNL     1       1.575 -10.237   3.360  0.00  0.00    +0.177 C 
BRANCH  25  26
ATOM     26  C   UNL     1       1.595 -10.818   4.751  0.00  0.00    +0.122 A 
ATOM     27  C   UNL     1       0.515 -11.151   5.480  0.00  0.00    +0.046 A 
ATOM     28  C   UNL     1       0.992 -11.653   6.712  0.00  0.00    +0.041 A 
ATOM     29  C   UNL     1       2.335 -11.597   6.663  0.00  0.00    +0.195 A 
ATOM     30  O   UNL     1       2.695 -11.095   5.470  0.00  0.00    -0.466 OA
ENDBRANCH  25  26
ENDBRANCH  23  25
ENDBRANCH  15  23
TORSDOF 4
