REMARK  Name = ZINC67352878
REMARK  4 active torsions:
REMARK  status: ('A' for Active; 'I' for Inactive)
REMARK    1  A    between atoms: C_1  and  S_2
REMARK    2  A    between atoms: S_2  and  C_5
REMARK    3  A    between atoms: C_8  and  N_12
REMARK    4  A    between atoms: N_15  and  C_16
REMARK                            x       y       z     vdW  Elec       q    Type
REMARK                         _______ _______ _______ _____ _____    ______ ____
ROOT
ATOM      1  N   UNL     1       2.841  -1.463  -4.997  0.00  0.00    -0.269 N 
ATOM      2  C   UNL     1       4.187  -1.525  -5.014  0.00  0.00    +0.304 C 
ATOM      3  O   UNL     1       4.816  -1.371  -3.985  0.00  0.00    -0.252 OA
ATOM      4  N   UNL     1       4.837  -1.757  -6.172  0.00  0.00    -0.292 N 
ATOM      5  H   UNL     1       2.337  -1.652  -5.804  0.00  0.00    +0.156 HD
ATOM      6  H   UNL     1       4.335  -1.880  -6.993  0.00  0.00    +0.151 HD
ENDROOT
BRANCH   4   7
ATOM      7  C   UNL     1       6.300  -1.825  -6.191  0.00  0.00    +0.106 C 
ATOM      8  C   UNL     1       6.749  -2.685  -7.370  0.00  0.00    +0.027 C 
ATOM      9  C   UNL     1       8.271  -2.556  -7.505  0.00  0.00    +0.008 C 
ATOM     10  C   UNL     1       8.590  -1.139  -7.975  0.00  0.00    +0.054 C 
ATOM     11  C   UNL     1       7.898  -0.120  -7.106  0.00  0.00    +0.024 A 
ATOM     12  C   UNL     1       6.859  -0.431  -6.306  0.00  0.00    -0.008 A 
ATOM     13  C   UNL     1       6.252   0.577  -5.530  0.00  0.00    +0.012 A 
ATOM     14  C   UNL     1       6.718   1.854  -5.590  0.00  0.00    +0.070 A 
ATOM     15  C   UNL     1       7.807   2.142  -6.430  0.00  0.00    +0.249 A 
ATOM     16  O   UNL     1       8.245   3.280  -6.497  0.00  0.00    -0.268 OA
ATOM     17  N   UNL     1       8.365   1.163  -7.156  0.00  0.00    -0.326 N 
ATOM     18  H   UNL     1       9.118   1.370  -7.732  0.00  0.00    +0.169 HD
ENDBRANCH   4   7
BRANCH   1  22
ATOM     19  C   UNL     1       0.844  -0.461  -1.477  0.00  0.00    +0.158 A 
ATOM     20  C   UNL     1       0.343  -0.044  -2.699  0.00  0.00    +0.153 A 
ATOM     21  C   UNL     1       1.004  -0.375  -3.868  0.00  0.00    +0.063 A 
ATOM     22  C   UNL     1       2.171  -1.126  -3.816  0.00  0.00    +0.040 A 
ATOM     23  C   UNL     1       2.672  -1.543  -2.590  0.00  0.00    +0.063 A 
ATOM     24  C   UNL     1       2.011  -1.205  -1.423  0.00  0.00    +0.153 A 
ATOM     25  F   UNL     1       2.500  -1.605  -0.229  0.00  0.00    -0.203 F 
ATOM     26  F   UNL     1      -0.792   0.686  -2.749  0.00  0.00    -0.203 F 
BRANCH  19  28
ATOM     27  C   UNL     1       0.714   1.552   0.515  0.00  0.00    +0.200 C 
ATOM     28  S   UNL     1       0.000  -0.037   0.010  0.00  0.00    -0.000 S 
ATOM     29  O   UNL     1       0.364  -1.053   0.935  0.00  0.00    -0.169 OA
ATOM     30  O   UNL     1      -1.355   0.137  -0.379  0.00  0.00    -0.169 OA
ENDBRANCH  19  28
ENDBRANCH   1  22
TORSDOF 3
