REMARK  Name = ZINC39449725
REMARK  4 active torsions:
REMARK  status: ('A' for Active; 'I' for Inactive)
REMARK    1  A    between atoms: C_1  and  O_2
REMARK    2  A    between atoms: O_2  and  C_3
REMARK    3  A    between atoms: C_13  and  S_16
REMARK    4  A    between atoms: S_16  and  C_17
REMARK                            x       y       z     vdW  Elec       q    Type
REMARK                         _______ _______ _______ _____ _____    ______ ____
ROOT
ATOM      1  C   UNL     1      -1.295  -0.603   0.011  0.00  0.00    +0.210 C 
ATOM      2  C   UNL     1      -1.176  -2.091   0.361  0.00  0.00    +0.132 C 
ATOM      3  C   UNL     1      -2.508  -2.762   0.151  0.00  0.00    +0.186 C 
ATOM      4  O   UNL     1      -2.811  -3.722   0.831  0.00  0.00    -0.290 OA
ATOM      5  C   UNL     1      -3.408  -2.285  -0.826  0.00  0.00    +0.122 A 
ATOM      6  C   UNL     1      -3.092  -1.156  -1.560  0.00  0.00    +0.084 A 
ATOM      7  C   UNL     1      -4.024  -0.665  -2.581  0.00  0.00    +0.099 A 
ATOM      8  C   UNL     1      -5.234  -1.369  -2.774  0.00  0.00    +0.069 A 
ATOM      9  C   UNL     1      -6.137  -0.923  -3.736  0.00  0.00    +0.031 A 
ATOM     10  C   UNL     1      -5.799   0.210  -4.473  0.00  0.00    +0.026 A 
ATOM     11  C   UNL     1      -4.584   0.852  -4.225  0.00  0.00    +0.126 A 
ATOM     12  N   UNL     1      -3.750   0.410  -3.311  0.00  0.00    -0.252 NA
ATOM     13  C   UNL     1      -5.505  -2.555  -1.949  0.00  0.00    +0.271 A 
ATOM     14  O   UNL     1      -6.543  -3.175  -2.098  0.00  0.00    -0.266 OA
ATOM     15  N   UNL     1      -4.607  -2.958  -1.032  0.00  0.00    -0.237 N 
ATOM     16 BR   UNL     1      -4.981  -4.454  -0.010  0.00  0.00    +0.058 Br
ATOM     17  N   UNL     1      -1.903  -0.491  -1.324  0.00  0.00    -0.315 N 
ATOM     18  H   UNL     1      -1.480   0.035  -2.020  0.00  0.00    +0.149 HD
ENDROOT
BRANCH   1  20
ATOM     19  C   UNL     1      -0.017   1.425   0.010  0.00  0.00    +0.196 C 
ATOM     20  O   UNL     1       0.002  -0.004   0.002  0.00  0.00    -0.362 OA
ENDBRANCH   1  20
BRANCH  10  21
ATOM     21  S   UNL     1      -6.895   0.827  -5.707  0.00  0.00    -0.127 S 
ATOM     22  C   UNL     1      -6.034   2.278  -6.372  0.00  0.00    +0.090 C 
ENDBRANCH  10  21
TORSDOF 2
