REMARK  Name = ZINC35928336
REMARK  8 active torsions:
REMARK  status: ('A' for Active; 'I' for Inactive)
REMARK    1  A    between atoms: C_1  and  C_2
REMARK    2  A    between atoms: C_2  and  C_3
REMARK    3  A    between atoms: C_2  and  C_4
REMARK    4  A    between atoms: C_2  and  N_5
REMARK    5  A    between atoms: C_6  and  N_25
REMARK    6  A    between atoms: C_8  and  C_18
REMARK    7  A    between atoms: C_10  and  S_14
REMARK    8  A    between atoms: S_14  and  C_17
REMARK                            x       y       z     vdW  Elec       q    Type
REMARK                         _______ _______ _______ _____ _____    ______ ____
ROOT
ATOM      1  N   UNL     1       1.245  -0.522  -0.985  0.00  0.00    -0.243 N 
ATOM      2  C   UNL     1       1.149  -1.789  -1.421  0.00  0.00    +0.126 A 
ATOM      3  C   UNL     1       1.470  -1.792  -2.773  0.00  0.00    +0.086 A 
ATOM      4  C   UNL     1       1.560  -2.766  -3.792  0.00  0.00    +0.090 A 
ATOM      5  N   UNL     1       1.912  -2.368  -5.010  0.00  0.00    -0.211 NA
ATOM      6  C   UNL     1       2.179  -1.102  -5.288  0.00  0.00    +0.272 A 
ATOM      7  N   UNL     1       2.122  -0.135  -4.407  0.00  0.00    -0.190 NA
ATOM      8  C   UNL     1       1.776  -0.395  -3.131  0.00  0.00    +0.188 A 
ATOM      9  N   UNL     1       1.622   0.319  -2.038  0.00  0.00    -0.149 NA
ENDROOT
BRANCH   4  10
ATOM     10  C   UNL     1       1.269  -4.189  -3.512  0.00  0.00    +0.020 A 
ATOM     11  C   UNL     1       0.033  -4.561  -2.980  0.00  0.00    +0.011 A 
ATOM     12  C   UNL     1      -0.233  -5.889  -2.722  0.00  0.00    +0.001 A 
ATOM     13  C   UNL     1       0.724  -6.854  -2.987  0.00  0.00    +0.001 A 
ATOM     14  C   UNL     1       1.951  -6.494  -3.514  0.00  0.00    +0.020 A 
ATOM     15  C   UNL     1       2.227  -5.168  -3.783  0.00  0.00    +0.050 A 
ATOM     16 CL   UNL     1       3.765  -4.718  -4.451  0.00  0.00    -0.083 Cl
ENDBRANCH   4  10
BRANCH   1  18
ATOM     17  C   UNL     1       1.194   1.429   0.490  0.00  0.00    +0.036 C 
ATOM     18  C   UNL     1       0.987  -0.084   0.389  0.00  0.00    +0.057 C 
ATOM     19  C   UNL     1       1.951  -0.795   1.341  0.00  0.00    +0.036 C 
ATOM     20  C   UNL     1      -0.454  -0.428   0.772  0.00  0.00    +0.036 C 
ENDBRANCH   1  18
BRANCH   6  21
ATOM     21  S   UNL     1       2.637  -0.694  -6.940  0.00  0.00    +0.029 S 
ATOM     22  O   UNL     1       3.421   0.485  -6.818  0.00  0.00    -0.167 OA
ATOM     23  O   UNL     1       3.200  -1.888  -7.465  0.00  0.00    -0.167 OA
ATOM     24  C   UNL     1       1.072  -0.321  -7.779  0.00  0.00    +0.204 C 
ENDBRANCH   6  21
BRANCH   2  25
ATOM     25  N   UNL     1       0.795  -2.890  -0.663  0.00  0.00    -0.343 N 
ATOM     26  H   UNL     1       0.488  -2.772   0.250  0.00  0.00    +0.144 HD
ATOM     27  H   UNL     1       0.854  -3.780  -1.043  0.00  0.00    +0.144 HD
ENDBRANCH   2  25
TORSDOF 4
