REMARK  Name = ZINC42691418
REMARK  8 active torsions:
REMARK  status: ('A' for Active; 'I' for Inactive)
REMARK    1  A    between atoms: C_1  and  C_2
REMARK    2  A    between atoms: C_2  and  C_3
REMARK    3  A    between atoms: C_2  and  C_4
REMARK    4  A    between atoms: C_4  and  N_5
REMARK    5  A    between atoms: N_5  and  C_6
REMARK    6  A    between atoms: N_5  and  C_10
REMARK    7  A    between atoms: C_6  and  C_7
REMARK    8  A    between atoms: C_15  and  N_16
REMARK                            x       y       z     vdW  Elec       q    Type
REMARK                         _______ _______ _______ _____ _____    ______ ____
ROOT
ATOM      1  C   UNL     1      -1.470  -2.870  -1.729  0.00  0.00    +0.053 A 
ATOM      2  C   UNL     1      -2.731  -3.133  -2.242  0.00  0.00    +0.048 A 
ATOM      3  C   UNL     1      -2.893  -4.111  -3.214  0.00  0.00    +0.038 A 
ATOM      4  C   UNL     1      -1.793  -4.823  -3.674  0.00  0.00    -0.024 A 
ATOM      5  C   UNL     1      -0.535  -4.563  -3.163  0.00  0.00    +0.030 A 
ATOM      6  C   UNL     1      -0.367  -3.584  -2.196  0.00  0.00    +0.046 A 
ATOM      7  C   UNL     1      -1.975  -5.882  -4.730  0.00  0.00    +0.046 C 
ATOM      8  C   UNL     1      -3.327  -6.569  -4.539  0.00  0.00    +0.101 C 
ATOM      9  C   UNL     1      -4.409  -5.535  -4.379  0.00  0.00    +0.218 C 
ATOM     10  O   UNL     1      -5.513  -5.746  -4.835  0.00  0.00    -0.275 OA
ATOM     11  N   UNL     1      -4.166  -4.379  -3.735  0.00  0.00    -0.285 N 
ATOM     12  H   UNL     1      -4.876  -3.727  -3.630  0.00  0.00    +0.155 HD
ENDROOT
BRANCH   6  13
ATOM     13  N   UNL     1       0.910  -3.316  -1.684  0.00  0.00    -0.357 N 
ATOM     14  H   UNL     1       1.014  -2.716  -0.928  0.00  0.00    +0.142 HD
ATOM     15  H   UNL     1       1.690  -3.730  -2.085  0.00  0.00    +0.142 HD
ENDBRANCH   6  13
BRANCH   1  16
ATOM     16  N   UNL     1      -1.304  -1.884  -0.749  0.00  0.00    -0.319 N 
BRANCH  16  17
ATOM     17  C   UNL     1      -1.172  -0.478  -1.139  0.00  0.00    +0.108 C 
BRANCH  17  19
ATOM     18  C   UNL     1       0.435   1.284  -1.885  0.00  0.00    +0.009 C 
ATOM     19  C   UNL     1       0.306  -0.147  -1.359  0.00  0.00    +0.000 C 
ATOM     20  C   UNL     1       1.059  -0.272  -0.033  0.00  0.00    +0.009 C 
ENDBRANCH  17  19
ENDBRANCH  16  17
BRANCH  16  21
ATOM     21  C   UNL     1      -1.262  -2.259   0.667  0.00  0.00    +0.200 C 
BRANCH  21  22
ATOM     22  C   UNL     1      -2.666  -2.327   1.210  0.00  0.00    +0.228 C 
ATOM     23  O   UNL     1      -3.602  -1.993   0.515  0.00  0.00    -0.274 OA
ATOM     24  N   UNL     1      -2.882  -2.760   2.468  0.00  0.00    -0.328 N 
ATOM     25  H   UNL     1      -2.133  -3.027   3.024  0.00  0.00    +0.145 HD
ATOM     26  H   UNL     1      -3.785  -2.804   2.818  0.00  0.00    +0.145 HD
ENDBRANCH  21  22
ENDBRANCH  16  21
ENDBRANCH   1  16
TORSDOF 6
