REMARK  Name = ZINC62222426
REMARK  8 active torsions:
REMARK  status: ('A' for Active; 'I' for Inactive)
REMARK    1  A    between atoms: C_1  and  C_2
REMARK    2  A    between atoms: C_4  and  C_22
REMARK    3  A    between atoms: C_7  and  C_14
REMARK    4  A    between atoms: C_14  and  C_15
REMARK    5  A    between atoms: C_15  and  N_16
REMARK    6  A    between atoms: N_16  and  S_17
REMARK    7  A    between atoms: S_17  and  N_20
REMARK    8  A    between atoms: N_20  and  C_21
REMARK                            x       y       z     vdW  Elec       q    Type
REMARK                         _______ _______ _______ _____ _____    ______ ____
ROOT
ATOM      1  C   UNL     1      -0.018   1.503   0.010  0.00  0.00    +0.044 C 
ATOM      2  C   UNL     1       0.002  -0.004   0.002  0.00  0.00    -0.048 A 
ATOM      3  C   UNL     1       0.006  -0.684  -1.208  0.00  0.00    +0.007 A 
ATOM      4  C   UNL     1       0.024  -2.050  -1.238  0.00  0.00    -0.041 A 
ATOM      5  C   UNL     1       0.040  -2.769  -0.039  0.00  0.00    +0.002 A 
ATOM      6  C   UNL     1       0.060  -4.233  -0.034  0.00  0.00    +0.019 A 
ATOM      7  C   UNL     1       0.075  -4.877   1.159  0.00  0.00    +0.019 A 
ATOM      8  C   UNL     1       0.070  -4.142   2.364  0.00  0.00    +0.252 A 
ATOM      9  O   UNL     1       0.084  -4.740   3.426  0.00  0.00    -0.268 OA
ATOM     10  N   UNL     1       0.052  -2.797   2.370  0.00  0.00    -0.322 N 
ATOM     11  H   UNL     1       0.050  -2.323   3.216  0.00  0.00    +0.169 HD
ATOM     12  C   UNL     1       0.036  -2.083   1.190  0.00  0.00    +0.050 A 
ATOM     13  C   UNL     1       0.023  -0.692   1.196  0.00  0.00    +0.029 A 
ATOM     14  C   UNL     1       0.027  -2.778  -2.558  0.00  0.00    +0.044 C 
ENDROOT
BRANCH   7  15
ATOM     15  C   UNL     1       0.096  -6.383   1.200  0.00  0.00    +0.057 C 
BRANCH  15  16
ATOM     16  C   UNL     1       1.540  -6.870   1.332  0.00  0.00    +0.112 C 
BRANCH  16  17
ATOM     17  N   UNL     1       1.560  -8.335   1.371  0.00  0.00    -0.180 NA
ATOM     18  H   UNL     1       0.740  -8.827   1.534  0.00  0.00    +0.149 HD
BRANCH  17  19
ATOM     19  S   UNL     1       2.983  -9.150   1.137  0.00  0.00    +0.094 S 
ATOM     20  O   UNL     1       2.683 -10.533   1.259  0.00  0.00    -0.141 OA
ATOM     21  O   UNL     1       3.579  -8.600  -0.030  0.00  0.00    -0.141 OA
BRANCH  19  22
ATOM     22  N   UNL     1       3.980  -8.768   2.403  0.00  0.00    -0.183 NA
ATOM     23  C   UNL     1       3.625  -9.177   3.764  0.00  0.00    +0.129 C 
ATOM     24  H   UNL     1       4.799  -8.273   2.243  0.00  0.00    +0.149 HD
ENDBRANCH  19  22
ENDBRANCH  17  19
ENDBRANCH  16  17
ENDBRANCH  15  16
ENDBRANCH   7  15
TORSDOF 5
