REMARK  Name = ZINC44168839
REMARK  8 active torsions:
REMARK  status: ('A' for Active; 'I' for Inactive)
REMARK    1  A    between atoms: C_4  and  C_7
REMARK    2  A    between atoms: C_9  and  C_12
REMARK    3  A    between atoms: C_17  and  C_20
REMARK    4  A    between atoms: N_22  and  C_23
REMARK    5  A    between atoms: C_23  and  C_24
REMARK    6  A    between atoms: C_24  and  C_25
REMARK    7  A    between atoms: C_25  and  C_26
REMARK    8  A    between atoms: C_25  and  C_32
REMARK                            x       y       z     vdW  Elec       q    Type
REMARK                         _______ _______ _______ _____ _____    ______ ____
ROOT
ATOM      1  C   UNL     1       6.130  -5.582  -1.998  0.00  0.00    +0.010 C 
ATOM      2  C   UNL     1       6.580  -6.136  -0.641  0.00  0.00    +0.061 C 
ATOM      3  S   UNL     1       7.473  -4.820   0.245  0.00  0.00    -0.163 S 
ATOM      4  C   UNL     1       8.665  -4.239  -1.001  0.00  0.00    +0.062 C 
ATOM      5  C   UNL     1       7.903  -3.968  -2.304  0.00  0.00    +0.027 C 
ATOM      6  N   UNL     1       7.302  -5.209  -2.793  0.00  0.00    +0.394 N 
ATOM      7  H   UNL     1       7.984  -5.950  -2.744  0.00  0.00    -0.084 HD
ATOM      8  H   UNL     1       7.022  -5.082  -3.755  0.00  0.00    -0.084 HD
ENDROOT
BRANCH   1  11
ATOM      9  C   UNL     1       3.934  -2.831  -0.853  0.00  0.00    +0.114 A 
ATOM     10  C   UNL     1       4.637  -4.040  -0.638  0.00  0.00    +0.074 A 
ATOM     11  C   UNL     1       5.265  -4.367  -1.781  0.00  0.00    +0.125 A 
ATOM     12  O   UNL     1       4.989  -3.424  -2.696  0.00  0.00    -0.361 OA
ATOM     13  N   UNL     1       4.141  -2.463  -2.094  0.00  0.00    -0.078 NA
BRANCH   9  17
ATOM     14  C   UNL     1       1.557  -0.771   2.009  0.00  0.00    +0.000 A 
ATOM     15  C   UNL     1       1.688  -0.263   0.729  0.00  0.00    +0.001 A 
ATOM     16  C   UNL     1       2.459  -0.928  -0.204  0.00  0.00    +0.010 A 
ATOM     17  C   UNL     1       3.104  -2.112   0.146  0.00  0.00    +0.004 A 
ATOM     18  C   UNL     1       2.968  -2.618   1.436  0.00  0.00    +0.010 A 
ATOM     19  C   UNL     1       2.195  -1.946   2.361  0.00  0.00    +0.001 A 
ENDBRANCH   9  17
ENDBRANCH   1  11
BRANCH   5  20
ATOM     20  C   UNL     1       8.858  -3.433  -3.340  0.00  0.00    +0.200 C 
ATOM     21  O   UNL     1       9.023  -4.034  -4.381  0.00  0.00    -0.278 OA
ATOM     22  N   UNL     1       9.530  -2.288  -3.110  0.00  0.00    -0.317 N 
ATOM     23  H   UNL     1       9.398  -1.807  -2.278  0.00  0.00    +0.149 HD
BRANCH  22  24
ATOM     24  C   UNL     1      10.458  -1.768  -4.117  0.00  0.00    +0.105 C 
BRANCH  24  25
ATOM     25  C   UNL     1      11.083  -0.466  -3.611  0.00  0.00    +0.031 C 
BRANCH  25  26
ATOM     26  C   UNL     1      12.052   0.077  -4.662  0.00  0.00    +0.050 C 
BRANCH  26  27
ATOM     27  C   UNL     1      11.286   0.459  -5.903  0.00  0.00    -0.040 A 
ATOM     28  C   UNL     1      11.667  -0.044  -7.133  0.00  0.00    +0.004 A 
ATOM     29  C   UNL     1      10.964   0.306  -8.270  0.00  0.00    +0.000 A 
ATOM     30  C   UNL     1       9.880   1.158  -8.178  0.00  0.00    +0.000 A 
ATOM     31  C   UNL     1       9.498   1.660  -6.948  0.00  0.00    +0.000 A 
ATOM     32  C   UNL     1      10.198   1.307  -5.810  0.00  0.00    +0.004 A 
ENDBRANCH  26  27
BRANCH  26  33
ATOM     33  C   UNL     1      12.759   1.290  -4.115  0.00  0.00    -0.040 A 
ATOM     34  C   UNL     1      12.027   2.331  -3.574  0.00  0.00    +0.004 A 
ATOM     35  C   UNL     1      12.675   3.444  -3.072  0.00  0.00    +0.000 A 
ATOM     36  C   UNL     1      14.055   3.516  -3.111  0.00  0.00    +0.000 A 
ATOM     37  C   UNL     1      14.787   2.476  -3.652  0.00  0.00    +0.000 A 
ATOM     38  C   UNL     1      14.139   1.361  -4.150  0.00  0.00    +0.004 A 
ENDBRANCH  26  33
ENDBRANCH  25  26
ENDBRANCH  24  25
ENDBRANCH  22  24
ENDBRANCH   5  20
TORSDOF 8
