REMARK  Name = ZINC44500799
REMARK  5 active torsions:
REMARK  status: ('A' for Active; 'I' for Inactive)
REMARK    1  A    between atoms: C_1  and  C_2
REMARK    2  A    between atoms: C_2  and  C_4
REMARK    3  A    between atoms: C_2  and  N_10
REMARK    4  A    between atoms: N_7  and  C_9
REMARK    5  A    between atoms: C_11  and  N_16
REMARK                            x       y       z     vdW  Elec       q    Type
REMARK                         _______ _______ _______ _____ _____    ______ ____
ROOT
ATOM      1  N   UNL     1       0.688  -0.476  -1.203  0.00  0.00    -0.242 N 
ATOM      2  C   UNL     1       0.150  -1.258  -2.175  0.00  0.00    +0.134 A 
ATOM      3  C   UNL     1       1.115  -1.467  -3.113  0.00  0.00    +0.100 A 
ATOM      4  C   UNL     1       2.268  -0.793  -2.698  0.00  0.00    +0.156 A 
ATOM      5  N   UNL     1       2.013  -0.198  -1.562  0.00  0.00    -0.176 NA
ATOM      6 CL   UNL     1       0.945  -2.402  -4.566  0.00  0.00    -0.078 Cl
ENDROOT
BRANCH   2   7
ATOM      7  N   UNL     1      -1.151  -1.756  -2.207  0.00  0.00    -0.342 N 
ATOM      8  H   UNL     1      -1.766  -1.551  -1.486  0.00  0.00    +0.144 HD
ATOM      9  H   UNL     1      -1.440  -2.309  -2.950  0.00  0.00    +0.144 HD
ENDBRANCH   2   7
BRANCH   1  11
ATOM     10  C   UNL     1      -0.019   1.526   0.010  0.00  0.00    +0.038 C 
ATOM     11  C   UNL     1       0.002  -0.004   0.002  0.00  0.00    +0.139 C 
BRANCH  11  12
ATOM     12  C   UNL     1       0.731  -0.503   1.223  0.00  0.00    +0.014 A 
ATOM     13  C   UNL     1       2.059  -0.223   1.560  0.00  0.00    +0.140 A 
ATOM     14  N   UNL     1       2.332  -0.831   2.686  0.00  0.00    -0.180 NA
ATOM     15  N   UNL     1       1.184  -1.518   3.102  0.00  0.00    -0.274 N 
ATOM     16  C   UNL     1       0.214  -1.297   2.189  0.00  0.00    +0.113 A 
ATOM     17  C   UNL     1       1.057  -2.330   4.315  0.00  0.00    +0.172 C 
ENDBRANCH  11  12
ENDBRANCH   1  11
TORSDOF 3
