REMARK  Name = ZINC23985964
REMARK  8 active torsions:
REMARK  status: ('A' for Active; 'I' for Inactive)
REMARK    1  A    between atoms: C_1  and  C_2
REMARK    2  A    between atoms: C_7  and  N_8
REMARK    3  A    between atoms: C_9  and  C_11
REMARK    4  A    between atoms: C_11  and  N_12
REMARK    5  A    between atoms: N_21  and  C_22
REMARK    6  A    between atoms: C_22  and  C_23
REMARK    7  A    between atoms: C_23  and  C_25
REMARK    8  A    between atoms: C_23  and  O_26
REMARK                            x       y       z     vdW  Elec       q    Type
REMARK                         _______ _______ _______ _____ _____    ______ ____
ROOT
ATOM      1  N   UNL     1       2.095   0.753  -0.013  0.00  0.00    -0.305 N 
ATOM      2  C   UNL     1       1.352  -0.416  -0.021  0.00  0.00    +0.068 A 
ATOM      3  C   UNL     1       1.680  -1.763  -0.042  0.00  0.00    +0.028 A 
ATOM      4  C   UNL     1       0.679  -2.713  -0.044  0.00  0.00    +0.002 A 
ATOM      5  C   UNL     1      -0.653  -2.330  -0.025  0.00  0.00    +0.002 A 
ATOM      6  C   UNL     1      -0.997  -0.997  -0.004  0.00  0.00    +0.028 A 
ATOM      7  C   UNL     1       0.004  -0.022  -0.002  0.00  0.00    +0.065 A 
ATOM      8  N   UNL     1      -0.015   1.336   0.016  0.00  0.00    -0.327 N 
ATOM      9  C   UNL     1       1.212   1.794   0.010  0.00  0.00    +0.175 A 
ATOM     10  N   UNL     1       1.560   3.128   0.024  0.00  0.00    -0.314 N 
ATOM     11  H   UNL     1       2.620   3.420   0.016  0.00  0.00    +0.149 HD
ATOM     12  H   UNL     1      -0.976   1.873   0.033  0.00  0.00    +0.169 HD
ENDROOT
BRANCH   1  13
ATOM     13  C   UNL     1       3.557   0.854  -0.027  0.00  0.00    +0.221 C 
BRANCH  13  15
ATOM     14  N   UNL     1       5.362   1.002  -1.711  0.00  0.00    -0.284 N 
ATOM     15  C   UNL     1       4.043   0.908  -1.452  0.00  0.00    +0.237 C 
ATOM     16  O   UNL     1       3.247   0.866  -2.367  0.00  0.00    -0.274 OA
ATOM     17  H   UNL     1       6.077   1.132  -0.885  0.00  0.00    +0.155 HD
BRANCH  14  24
ATOM     18  C   UNL     1       7.847   2.242  -2.331  0.00  0.00    +0.046 C 
ATOM     19  C   UNL     1       7.031   1.527  -3.376  0.00  0.00    -0.028 A 
ATOM     20  C   UNL     1       7.486   1.455  -4.678  0.00  0.00    +0.020 A 
ATOM     21  C   UNL     1       6.735   0.804  -5.640  0.00  0.00    +0.018 A 
ATOM     22  C   UNL     1       5.528   0.219  -5.300  0.00  0.00    +0.017 A 
ATOM     23  C   UNL     1       5.071   0.283  -3.998  0.00  0.00    +0.024 A 
ATOM     24  C   UNL     1       5.823   0.936  -3.031  0.00  0.00    +0.036 A 
ATOM     25 BR   UNL     1       7.358   0.713  -7.423  0.00  0.00    -0.050 Br
ENDBRANCH  14  24
ENDBRANCH  13  15
ENDBRANCH   1  13
BRANCH  10  26
ATOM     26  C   UNL     1       0.517   4.157   0.048  0.00  0.00    +0.135 C 
BRANCH  26  27
ATOM     27  C   UNL     1       1.167   5.542   0.059  0.00  0.00    +0.128 C 
ATOM     28  C   UNL     1       0.078   6.617   0.085  0.00  0.00    +0.039 C 
BRANCH  27  29
ATOM     29  O   UNL     1       1.992   5.672   1.219  0.00  0.00    -0.391 OA
ATOM     30  H   UNL     1       2.544   6.606   1.400  0.00  0.00    +0.210 HD
ENDBRANCH  27  29
ENDBRANCH  26  27
ENDBRANCH  10  26
TORSDOF 6
