REMARK  Name = ZINC50084316
REMARK  9 active torsions:
REMARK  status: ('A' for Active; 'I' for Inactive)
REMARK    1  A    between atoms: C_1  and  C_2
REMARK    2  A    between atoms: N_7  and  C_9
REMARK    3  A    between atoms: C_9  and  C_10
REMARK    4  A    between atoms: C_9  and  C_11
REMARK    5  A    between atoms: C_9  and  C_12
REMARK    6  A    between atoms: C_12  and  N_13
REMARK    7  A    between atoms: N_16  and  C_17
REMARK    8  A    between atoms: C_21  and  C_23
REMARK    9  A    between atoms: N_25  and  C_26
REMARK                            x       y       z     vdW  Elec       q    Type
REMARK                         _______ _______ _______ _____ _____    ______ ____
ROOT
ATOM      1  N   UNL     1       2.181  -4.461   1.139  0.00  0.00    -0.300 N 
ATOM      2  C   UNL     1       2.322  -5.782   0.915  0.00  0.00    +0.304 C 
ATOM      3  O   UNL     1       1.933  -6.584   1.742  0.00  0.00    -0.253 OA
ATOM      4  N   UNL     1       2.894  -6.215  -0.226  0.00  0.00    -0.269 N 
ATOM      5  H   UNL     1       2.491  -3.821   0.480  0.00  0.00    +0.150 HD
ATOM      6  H   UNL     1       3.143  -5.579  -0.915  0.00  0.00    +0.156 HD
ENDROOT
BRANCH   4   7
ATOM      7  C   UNL     1       3.129  -7.582  -0.417  0.00  0.00    +0.036 A 
ATOM      8  C   UNL     1       2.229  -8.518   0.081  0.00  0.00    +0.026 A 
ATOM      9  C   UNL     1       2.455  -9.868  -0.104  0.00  0.00    +0.041 A 
ATOM     10  C   UNL     1       3.579 -10.299  -0.786  0.00  0.00    +0.136 A 
ATOM     11  C   UNL     1       4.489  -9.365  -1.290  0.00  0.00    +0.074 A 
ATOM     12  C   UNL     1       4.255  -8.001  -1.106  0.00  0.00    +0.039 A 
ATOM     13  F   UNL     1       3.796 -11.620  -0.964  0.00  0.00    -0.205 F 
BRANCH  11  14
ATOM     14  C   UNL     1       5.691  -9.820  -2.019  0.00  0.00    +0.247 C 
ATOM     15  O   UNL     1       5.889 -11.008  -2.181  0.00  0.00    -0.270 OA
ATOM     16  N   UNL     1       6.566  -8.917  -2.504  0.00  0.00    -0.314 N 
ATOM     17  C   UNL     1       7.758  -9.368  -3.227  0.00  0.00    +0.128 C 
ATOM     18  H   UNL     1       6.407  -7.969  -2.374  0.00  0.00    +0.149 HD
ENDBRANCH  11  14
ENDBRANCH   4   7
BRANCH   1  19
ATOM     19  C   UNL     1       1.559  -3.990   2.380  0.00  0.00    +0.093 C 
BRANCH  19  20
ATOM     20  C   UNL     1       1.521  -2.461   2.384  0.00  0.00    -0.055 C 
ATOM     21  C   UNL     1       2.947  -1.916   2.290  0.00  0.00    -0.008 C 
ATOM     22  C   UNL     1       0.872  -1.970   3.679  0.00  0.00    -0.008 C 
BRANCH  20  28
ATOM     23  C   UNL     1      -0.062   1.510  -0.003  0.00  0.00    +0.005 C 
ATOM     24  C   UNL     1      -0.033  -0.020  -0.006  0.00  0.00    -0.031 C 
ATOM     25  C   UNL     1      -1.466  -0.559   0.013  0.00  0.00    -0.001 C 
ATOM     26  C   UNL     1      -1.425  -2.088   0.088  0.00  0.00    -0.018 C 
ATOM     27  C   UNL     1      -0.629  -2.511   1.325  0.00  0.00    -0.078 C 
ATOM     28  N   UNL     1       0.739  -1.988   1.234  0.00  0.00    +0.384 N 
ATOM     29  C   UNL     1       0.713  -0.520   1.233  0.00  0.00    -0.075 C 
ATOM     30  H   UNL     1       1.167  -2.315   0.381  0.00  0.00    -0.081 HD
ENDBRANCH  20  28
ENDBRANCH  19  20
ENDBRANCH   1  19
TORSDOF 5
