REMARK  Name = ZINC53855400
REMARK  7 active torsions:
REMARK  status: ('A' for Active; 'I' for Inactive)
REMARK    1  A    between atoms: C_1  and  C_2
REMARK    2  A    between atoms: C_3  and  C_7
REMARK    3  A    between atoms: N_9  and  C_10
REMARK    4  A    between atoms: C_10  and  C_11
REMARK    5  A    between atoms: N_13  and  C_14
REMARK    6  A    between atoms: C_14  and  C_16
REMARK    7  A    between atoms: C_14  and  C_17
REMARK                            x       y       z     vdW  Elec       q    Type
REMARK                         _______ _______ _______ _____ _____    ______ ____
ROOT
ATOM      1  C   UNL     1      -5.768  -2.152   0.018  0.00  0.00    +0.231 C 
ATOM      2  O   UNL     1      -5.269  -3.257   0.009  0.00  0.00    -0.274 OA
ATOM      3  N   UNL     1      -7.109  -2.018   0.026  0.00  0.00    -0.307 N 
ATOM      4  H   UNL     1      -7.508  -1.134   0.033  0.00  0.00    +0.149 HD
ENDROOT
BRANCH   3   5
ATOM      5  C   UNL     1      -7.964  -3.208   0.023  0.00  0.00    +0.100 C 
ATOM      6  C   UNL     1      -8.166  -3.687  -1.416  0.00  0.00    +0.033 C 
BRANCH   5   7
ATOM      7  C   UNL     1      -9.300  -2.868   0.632  0.00  0.00    -0.025 A 
ATOM      8  C   UNL     1      -9.900  -1.655   0.343  0.00  0.00    +0.007 A 
ATOM      9  C   UNL     1     -11.124  -1.334   0.896  0.00  0.00    +0.028 A 
ATOM     10  C   UNL     1     -11.754  -2.232   1.745  0.00  0.00    +0.067 A 
ATOM     11  C   UNL     1     -11.148  -3.455   2.037  0.00  0.00    +0.067 A 
ATOM     12  C   UNL     1      -9.922  -3.770   1.472  0.00  0.00    +0.033 A 
ATOM     13  N   UNL     1     -12.004  -4.132   2.902  0.00  0.00    -0.306 N 
ATOM     14  H   UNL     1     -11.850  -5.013   3.279  0.00  0.00    +0.170 HD
ATOM     15  C   UNL     1     -13.082  -3.356   3.126  0.00  0.00    +0.325 A 
ATOM     16  O   UNL     1     -14.022  -3.652   3.839  0.00  0.00    -0.247 OA
ATOM     17  N   UNL     1     -12.960  -2.203   2.442  0.00  0.00    -0.306 N 
ATOM     18  H   UNL     1     -13.602  -1.476   2.436  0.00  0.00    +0.170 HD
ENDBRANCH   5   7
ENDBRANCH   3   5
BRANCH   1  19
ATOM     19  C   UNL     1      -4.888  -0.928   0.021  0.00  0.00    +0.200 C 
BRANCH  19  22
ATOM     20  C   UNL     1      -2.508  -0.405   0.012  0.00  0.00    +0.248 C 
ATOM     21  O   UNL     1      -2.798   0.776   0.021  0.00  0.00    -0.270 OA
ATOM     22  N   UNL     1      -3.482  -1.337   0.011  0.00  0.00    -0.303 N 
ATOM     23  H   UNL     1      -3.251  -2.280   0.005  0.00  0.00    +0.150 HD
BRANCH  20  26
ATOM     24  C   UNL     1      -0.018   1.503   0.010  0.00  0.00    +0.087 C 
ATOM     25  C   UNL     1       0.002  -0.004   0.002  0.00  0.00    +0.114 A 
ATOM     26  C   UNL     1      -1.093  -0.817   0.003  0.00  0.00    +0.077 A 
ATOM     27  C   UNL     1      -0.567  -2.190  -0.008  0.00  0.00    +0.054 A 
ATOM     28  C   UNL     1       0.769  -2.073  -0.014  0.00  0.00    +0.196 A 
ATOM     29  O   UNL     1       1.097  -0.771  -0.013  0.00  0.00    -0.467 OA
ENDBRANCH  20  26
ENDBRANCH  19  22
ENDBRANCH   1  19
TORSDOF 5
