REMARK  Name = ZINC50635602
REMARK  6 active torsions:
REMARK  status: ('A' for Active; 'I' for Inactive)
REMARK    1  A    between atoms: C_1  and  C_2
REMARK    2  A    between atoms: C_7  and  C_23
REMARK    3  A    between atoms: N_9  and  S_10
REMARK    4  A    between atoms: S_10  and  C_13
REMARK    5  A    between atoms: C_16  and  N_22
REMARK    6  A    between atoms: C_18  and  N_19
REMARK                            x       y       z     vdW  Elec       q    Type
REMARK                         _______ _______ _______ _____ _____    ______ ____
ROOT
ATOM      1  C   UNL     1       3.266   0.884   1.024  0.00  0.00    +0.136 A 
ATOM      2  C   UNL     1       3.523   0.313  -0.209  0.00  0.00    +0.032 A 
ATOM      3  C   UNL     1       4.616   0.723  -0.947  0.00  0.00    +0.025 A 
ATOM      4  C   UNL     1       5.458   1.710  -0.449  0.00  0.00    +0.027 A 
ATOM      5  C   UNL     1       5.196   2.281   0.789  0.00  0.00    +0.057 A 
ATOM      6  C   UNL     1       4.098   1.871   1.520  0.00  0.00    +0.154 A 
ENDROOT
BRANCH   1   7
ATOM      7  S   UNL     1       1.869   0.359   1.962  0.00  0.00    +0.064 S 
ATOM      8  O   UNL     1       0.869   1.355   1.793  0.00  0.00    -0.153 OA
ATOM      9  O   UNL     1       2.359  -0.020   3.241  0.00  0.00    -0.153 OA
BRANCH   7  16
ATOM     10  C   UNL     1      -0.229   0.498   0.067  0.00  0.00    +0.026 C 
ATOM     11  C   UNL     1       0.261  -0.945   0.203  0.00  0.00    +0.077 C 
ATOM     12  C   UNL     1      -0.910  -1.850   0.596  0.00  0.00    +0.020 C 
ATOM     13  C   UNL     1      -0.389  -3.264   0.866  0.00  0.00    +0.003 C 
ATOM     14  C   UNL     1       0.605  -3.229   2.029  0.00  0.00    +0.020 C 
ATOM     15  C   UNL     1       1.794  -2.339   1.652  0.00  0.00    +0.077 C 
ATOM     16  N   UNL     1       1.291  -1.019   1.249  0.00  0.00    -0.171 NA
ATOM     17  C   UNL     1       2.725  -2.191   2.857  0.00  0.00    +0.026 C 
ENDBRANCH   7  16
ENDBRANCH   1   7
BRANCH   6  18
ATOM     18  N   UNL     1       3.816   2.483   2.837  0.00  0.00    +0.058 N 
ATOM     19  O   UNL     1       4.609   3.251   3.329  0.00  0.00    -0.126 OA
ATOM     20  O   UNL     1       2.791   2.217   3.420  0.00  0.00    -0.126 OA
ENDBRANCH   6  18
BRANCH   4  21
ATOM     21  N   UNL     1       6.564   2.126  -1.193  0.00  0.00    -0.358 N 
ATOM     22  H   UNL     1       6.746   1.726  -2.058  0.00  0.00    +0.142 HD
ATOM     23  H   UNL     1       7.151   2.815  -0.845  0.00  0.00    +0.142 HD
ENDBRANCH   4  21
TORSDOF 4
