REMARK  Name = ZINC18751698
REMARK  6 active torsions:
REMARK  status: ('A' for Active; 'I' for Inactive)
REMARK    1  A    between atoms: C_1  and  C_2
REMARK    2  A    between atoms: C_2  and  C_4
REMARK    3  A    between atoms: C_2  and  O_15
REMARK    4  A    between atoms: N_9  and  C_10
REMARK    5  A    between atoms: O_15  and  C_16
REMARK    6  A    between atoms: C_16  and  C_18
REMARK                            x       y       z     vdW  Elec       q    Type
REMARK                         _______ _______ _______ _____ _____    ______ ____
ROOT
ATOM      1  C   UNL     1       8.331   2.900  -0.513  0.00  0.00    +0.062 C 
ATOM      2  C   UNL     1       8.218   2.098   0.785  0.00  0.00    +0.259 C 
ENDROOT
BRANCH   2   3
ATOM      3  C   UNL     1       6.781   2.076   1.238  0.00  0.00    +0.261 C 
ATOM      4  O   UNL     1       6.464   2.617   2.276  0.00  0.00    -0.271 OA
ATOM      5  N   UNL     1       5.848   1.455   0.490  0.00  0.00    -0.237 N 
ATOM      6  C   UNL     1       4.563   1.435   0.895  0.00  0.00    +0.306 C 
ATOM      7  O   UNL     1       4.245   1.978   1.935  0.00  0.00    -0.252 OA
ATOM      8  N   UNL     1       3.630   0.814   0.146  0.00  0.00    -0.296 N 
ATOM      9  H   UNL     1       6.101   1.022  -0.341  0.00  0.00    +0.159 HD
ATOM     10  H   UNL     1       3.883   0.381  -0.684  0.00  0.00    +0.151 HD
BRANCH   8  11
ATOM     11  C   UNL     1       2.232   0.792   0.586  0.00  0.00    +0.074 C 
ATOM     12  C   UNL     1       1.453   1.995  -0.001  0.00  0.00    +0.022 C 
ATOM     13  C   UNL     1      -0.019   1.534   0.011  0.00  0.00    +0.002 C 
ATOM     14  C   UNL     1       0.002  -0.004   0.002  0.00  0.00    +0.002 C 
ATOM     15  C   UNL     1       1.486  -0.425  -0.014  0.00  0.00    +0.022 C 
ENDBRANCH   8  11
ENDBRANCH   2   3
BRANCH   2  16
ATOM     16  O   UNL     1       9.039   2.718   1.810  0.00  0.00    -0.447 OA
BRANCH  16  17
ATOM     17  C   UNL     1      10.318   2.301   1.905  0.00  0.00    +0.376 C 
ATOM     18  O   UNL     1      10.735   1.443   1.151  0.00  0.00    -0.241 OA
BRANCH  17  19
ATOM     19  C   UNL     1      11.207   2.884   2.918  0.00  0.00    +0.213 A 
ATOM     20  C   UNL     1      12.509   2.543   3.105  0.00  0.00    +0.065 A 
ATOM     21  C   UNL     1      12.989   3.371   4.210  0.00  0.00    +0.022 A 
ATOM     22  C   UNL     1      14.213   3.498   4.872  0.00  0.00    +0.031 A 
ATOM     23  C   UNL     1      14.340   4.392   5.898  0.00  0.00    +0.042 A 
ATOM     24  C   UNL     1      13.259   5.175   6.286  0.00  0.00    +0.023 A 
ATOM     25  C   UNL     1      12.044   5.065   5.646  0.00  0.00    +0.048 A 
ATOM     26  C   UNL     1      11.892   4.162   4.600  0.00  0.00    +0.136 A 
ATOM     27  O   UNL     1      10.855   3.843   3.800  0.00  0.00    -0.448 OA
ATOM     28 CL   UNL     1      15.860   4.551   6.721  0.00  0.00    -0.084 Cl
ENDBRANCH  17  19
ENDBRANCH  16  17
ENDBRANCH   2  16
TORSDOF 5
