REMARK  Name = ZINC05760741
REMARK  8 active torsions:
REMARK  status: ('A' for Active; 'I' for Inactive)
REMARK    1  A    between atoms: C_1  and  N_2
REMARK    2  A    between atoms: C_6  and  N_11
REMARK    3  A    between atoms: C_8  and  O_9
REMARK    4  A    between atoms: O_9  and  C_10
REMARK    5  A    between atoms: N_11  and  C_12
REMARK    6  A    between atoms: C_14  and  O_24
REMARK    7  A    between atoms: C_16  and  O_23
REMARK    8  A    between atoms: C_18  and  O_22
REMARK                            x       y       z     vdW  Elec       q    Type
REMARK                         _______ _______ _______ _____ _____    ______ ____
ROOT
ATOM      1  N   UNL     1       2.152  -0.345   1.263  0.00  0.00    -0.301 N 
ATOM      2  H   UNL     1       1.415  -0.881   0.932  0.00  0.00    +0.150 HD
ENDROOT
BRANCH   1   8
ATOM      3  C   UNL     1       6.760  -2.732   3.263  0.00  0.00    +0.157 C 
ATOM      4  N   UNL     1       5.531  -2.139   2.729  0.00  0.00    -0.265 N 
ATOM      5  C   UNL     1       4.538  -2.935   2.283  0.00  0.00    +0.277 A 
ATOM      6  O   UNL     1       4.652  -4.151   2.320  0.00  0.00    -0.266 OA
ATOM      7  C   UNL     1       3.372  -2.345   1.783  0.00  0.00    +0.145 A 
ATOM      8  C   UNL     1       3.287  -0.961   1.755  0.00  0.00    +0.150 A 
ATOM      9  N   UNL     1       4.308  -0.224   2.212  0.00  0.00    -0.180 NA
ATOM     10  C   UNL     1       5.396  -0.787   2.684  0.00  0.00    +0.302 A 
ATOM     11 CL   UNL     1       2.061  -3.325   1.204  0.00  0.00    -0.074 Cl
BRANCH  10  12
ATOM     12  O   UNL     1       6.401  -0.008   3.134  0.00  0.00    -0.467 OA
ATOM     13  C   UNL     1       6.206   1.406   3.064  0.00  0.00    +0.280 C 
ENDBRANCH  10  12
ENDBRANCH   1   8
BRANCH   1  14
ATOM     14  C   UNL     1       2.064   1.117   1.240  0.00  0.00    +0.236 C 
ATOM     15  C   UNL     1       1.286   1.562  -0.002  0.00  0.00    +0.192 C 
ATOM     16  C   UNL     1       1.146   3.087   0.011  0.00  0.00    +0.178 C 
ATOM     17  C   UNL     1       0.458   3.515   1.311  0.00  0.00    +0.171 C 
ATOM     18  C   UNL     1       1.267   2.996   2.502  0.00  0.00    +0.196 C 
ATOM     19  O   UNL     1       1.385   1.574   2.413  0.00  0.00    -0.354 OA
BRANCH  17  20
ATOM     20  O   UNL     1       0.385   4.941   1.366  0.00  0.00    -0.387 OA
ATOM     21  H   UNL     1      -0.040   5.282   2.164  0.00  0.00    +0.210 HD
ENDBRANCH  17  20
BRANCH  16  22
ATOM     22  O   UNL     1       2.441   3.687  -0.066  0.00  0.00    -0.386 OA
ATOM     23  H   UNL     1       2.427   4.654  -0.062  0.00  0.00    +0.210 HD
ENDBRANCH  16  22
BRANCH  15  24
ATOM     24  O   UNL     1      -0.011   0.963   0.007  0.00  0.00    -0.385 OA
ATOM     25  H   UNL     1       0.002  -0.004   0.002  0.00  0.00    +0.210 HD
ENDBRANCH  15  24
ENDBRANCH   1  14
TORSDOF 6
