REMARK  Name = ZINC15081148
REMARK  10 active torsions:
REMARK  status: ('A' for Active; 'I' for Inactive)
REMARK    1  A    between atoms: C_1  and  C_2
REMARK    2  A    between atoms: C_2  and  O_39
REMARK    3  A    between atoms: C_6  and  C_30
REMARK    4  A    between atoms: C_8  and  C_21
REMARK    5  A    between atoms: C_10  and  C_12
REMARK    6  A    between atoms: N_14  and  C_15
REMARK    7  A    between atoms: C_24  and  O_29
REMARK    8  A    between atoms: C_25  and  O_27
REMARK    9  A    between atoms: O_27  and  C_28
REMARK   10  A    between atoms: N_32  and  C_33
REMARK                            x       y       z     vdW  Elec       q    Type
REMARK                         _______ _______ _______ _____ _____    ______ ____
ROOT
ATOM      1  C   UNL     1      -1.213   5.098   1.005  0.00  0.00    +0.042 C 
ATOM      2  C   UNL     1      -1.212   3.584   0.787  0.00  0.00    +0.082 C 
ATOM      3  C   UNL     1      -2.602   3.021   1.103  0.00  0.00    +0.110 C 
ATOM      4  C   UNL     1      -3.585   3.573   0.094  0.00  0.00    +0.148 C 
ATOM      5  O   UNL     1      -4.610   4.100   0.453  0.00  0.00    -0.296 OA
ATOM      6  C   UNL     1      -3.250   3.449  -1.376  0.00  0.00    +0.149 C 
ATOM      7  C   UNL     1      -1.837   3.996  -1.601  0.00  0.00    +0.053 C 
ATOM      8  C   UNL     1      -0.859   3.279  -0.669  0.00  0.00    +0.115 C 
ENDROOT
BRANCH   7   9
ATOM      9  C   UNL     1      -1.430   3.762  -3.033  0.00  0.00    -0.039 A 
ATOM     10  C   UNL     1      -0.697   2.639  -3.367  0.00  0.00    +0.008 A 
ATOM     11  C   UNL     1      -0.316   2.422  -4.679  0.00  0.00    +0.049 A 
ATOM     12  C   UNL     1      -0.680   3.326  -5.664  0.00  0.00    +0.158 A 
ATOM     13  C   UNL     1      -1.423   4.454  -5.329  0.00  0.00    +0.162 A 
ATOM     14  C   UNL     1      -1.796   4.668  -4.011  0.00  0.00    +0.053 A 
BRANCH  13  15
ATOM     15  O   UNL     1      -1.782   5.345  -6.292  0.00  0.00    -0.491 OA
ATOM     16  C   UNL     1      -2.544   6.479  -5.875  0.00  0.00    +0.277 C 
ENDBRANCH  13  15
BRANCH  12  17
ATOM     17  O   UNL     1      -0.312   3.111  -6.955  0.00  0.00    -0.503 OA
ATOM     18  H   UNL     1      -0.953   2.599  -7.467  0.00  0.00    +0.292 HD
ENDBRANCH  12  17
ENDBRANCH   7   9
BRANCH   8  19
ATOM     19  C   UNL     1       0.543   3.751  -0.955  0.00  0.00    +0.224 C 
ATOM     20  O   UNL     1       0.740   4.580  -1.818  0.00  0.00    -0.275 OA
ATOM     21  N   UNL     1       1.579   3.253  -0.250  0.00  0.00    -0.285 N 
ATOM     22  H   UNL     1       1.433   2.531   0.381  0.00  0.00    +0.155 HD
BRANCH  21  23
ATOM     23  C   UNL     1       2.864   3.777  -0.429  0.00  0.00    +0.033 A 
ATOM     24  C   UNL     1       3.970   2.938  -0.388  0.00  0.00    +0.023 A 
ATOM     25  C   UNL     1       5.236   3.457  -0.571  0.00  0.00    +0.002 A 
ATOM     26  C   UNL     1       5.405   4.813  -0.783  0.00  0.00    +0.000 A 
ATOM     27  C   UNL     1       4.306   5.652  -0.819  0.00  0.00    +0.002 A 
ATOM     28  C   UNL     1       3.037   5.138  -0.643  0.00  0.00    +0.023 A 
ENDBRANCH  21  23
ENDBRANCH   8  19
BRANCH   6  29
ATOM     29  C   UNL     1      -3.303   2.000  -1.786  0.00  0.00    +0.228 C 
ATOM     30  O   UNL     1      -2.928   1.138  -1.020  0.00  0.00    -0.275 OA
ATOM     31  N   UNL     1      -3.768   1.662  -3.005  0.00  0.00    -0.285 N 
ATOM     32  H   UNL     1      -4.019   2.353  -3.638  0.00  0.00    +0.155 HD
BRANCH  31  33
ATOM     33  C   UNL     1      -3.889   0.313  -3.358  0.00  0.00    +0.033 A 
ATOM     34  C   UNL     1      -3.853  -0.062  -4.695  0.00  0.00    +0.023 A 
ATOM     35  C   UNL     1      -3.968  -1.395  -5.040  0.00  0.00    +0.002 A 
ATOM     36  C   UNL     1      -4.128  -2.353  -4.057  0.00  0.00    +0.000 A 
ATOM     37  C   UNL     1      -4.169  -1.983  -2.725  0.00  0.00    +0.002 A 
ATOM     38  C   UNL     1      -4.050  -0.652  -2.373  0.00  0.00    +0.023 A 
ENDBRANCH  31  33
ENDBRANCH   6  29
BRANCH   2  39
ATOM     39  O   UNL     1      -0.246   2.979   1.649  0.00  0.00    -0.388 OA
ATOM     40  H   UNL     1      -0.407   3.131   2.590  0.00  0.00    +0.210 HD
ENDBRANCH   2  39
TORSDOF 8
