REMARK  Name = ZINC21876231
REMARK  9 active torsions:
REMARK  status: ('A' for Active; 'I' for Inactive)
REMARK    1  A    between atoms: C_1  and  N_2
REMARK    2  A    between atoms: N_2  and  C_3
REMARK    3  A    between atoms: N_2  and  S_27
REMARK    4  A    between atoms: C_3  and  C_4
REMARK    5  A    between atoms: N_6  and  N_7
REMARK    6  A    between atoms: C_8  and  C_10
REMARK    7  A    between atoms: N_12  and  C_21
REMARK    8  A    between atoms: C_14  and  C_15
REMARK    9  A    between atoms: S_27  and  C_30
REMARK                            x       y       z     vdW  Elec       q    Type
REMARK                         _______ _______ _______ _____ _____    ______ ____
ROOT
ATOM      1  N   UNL     1       4.100   4.958   2.038  0.00  0.00    -0.230 N 
ATOM      2  C   UNL     1       3.299   4.029   1.478  0.00  0.00    +0.264 C 
ATOM      3  O   UNL     1       3.540   2.847   1.631  0.00  0.00    -0.269 OA
ATOM      4  H   UNL     1       3.882   6.027   1.900  0.00  0.00    +0.173 HD
ENDROOT
BRANCH   2   5
ATOM      5  C   UNL     1       2.133   4.446   0.681  0.00  0.00    +0.084 A 
ATOM      6  C   UNL     1       1.731   5.740   0.419  0.00  0.00    +0.128 A 
ATOM      7  N   UNL     1       0.624   5.681  -0.342  0.00  0.00    -0.239 N 
ATOM      8  N   UNL     1       0.294   4.346  -0.589  0.00  0.00    -0.166 NA
ATOM      9  C   UNL     1       1.169   3.569   0.010  0.00  0.00    +0.105 A 
BRANCH   9  10
ATOM     10  C   UNL     1       1.183   2.087   0.002  0.00  0.00    +0.003 A 
ATOM     11  C   UNL     1      -0.017   1.376   0.010  0.00  0.00    +0.010 A 
ATOM     12  C   UNL     1       0.002  -0.004   0.002  0.00  0.00    +0.001 A 
ATOM     13  C   UNL     1       1.208  -0.682  -0.013  0.00  0.00    +0.000 A 
ATOM     14  C   UNL     1       2.401   0.018  -0.021  0.00  0.00    +0.001 A 
ATOM     15  C   UNL     1       2.394   1.398  -0.013  0.00  0.00    +0.010 A 
ENDBRANCH   9  10
BRANCH   7  16
ATOM     16  C   UNL     1      -0.087   6.790  -0.819  0.00  0.00    +0.065 A 
ATOM     17  C   UNL     1       0.337   8.075  -0.508  0.00  0.00    +0.028 A 
ATOM     18  C   UNL     1      -0.364   9.166  -0.983  0.00  0.00    +0.002 A 
ATOM     19  C   UNL     1      -1.493   8.979  -1.760  0.00  0.00    +0.000 A 
ATOM     20  C   UNL     1      -1.920   7.701  -2.068  0.00  0.00    +0.002 A 
ATOM     21  C   UNL     1      -1.221   6.606  -1.600  0.00  0.00    +0.028 A 
ENDBRANCH   7  16
ENDBRANCH   2   5
BRANCH   1  24
ATOM     22  C   UNL     1       6.010   5.490   3.356  0.00  0.00    +0.245 C 
ATOM     23  O   UNL     1       5.769   6.669   3.203  0.00  0.00    -0.273 OA
ATOM     24  N   UNL     1       5.209   4.561   2.796  0.00  0.00    -0.233 N 
ATOM     25  H   UNL     1       5.427   3.492   2.935  0.00  0.00    +0.173 HD
BRANCH  22  26
ATOM     26  C   UNL     1       7.203   5.064   4.172  0.00  0.00    +0.206 C 
BRANCH  26  28
ATOM     27  C   UNL     1       7.466   6.897   5.906  0.00  0.00    +0.132 C 
ATOM     28  N   UNL     1       7.905   6.250   4.667  0.00  0.00    -0.170 NA
BRANCH  28  29
ATOM     29  S   UNL     1       9.195   6.859   3.826  0.00  0.00    +0.067 S 
ATOM     30  O   UNL     1       9.982   7.587   4.760  0.00  0.00    -0.152 OA
ATOM     31  O   UNL     1       9.723   5.787   3.058  0.00  0.00    -0.152 OA
BRANCH  29  32
ATOM     32  C   UNL     1       8.560   8.036   2.679  0.00  0.00    +0.143 A 
ATOM     33  C   UNL     1       8.357   9.366   2.844  0.00  0.00    +0.036 A 
ATOM     34  C   UNL     1       7.846  10.102   1.791  0.00  0.00    +0.010 A 
ATOM     35  C   UNL     1       7.553   9.470   0.628  0.00  0.00    +0.047 A 
ATOM     36  S   UNL     1       8.010   7.785   0.999  0.00  0.00    -0.077 S 
ENDBRANCH  29  32
ENDBRANCH  28  29
ENDBRANCH  26  28
ENDBRANCH  22  26
ENDBRANCH   1  24
TORSDOF 8
