REMARK  Name = ZINC39521811
REMARK  5 active torsions:
REMARK  status: ('A' for Active; 'I' for Inactive)
REMARK    1  A    between atoms: C_1  and  O_2
REMARK    2  A    between atoms: O_2  and  N_3
REMARK    3  A    between atoms: C_4  and  O_23
REMARK    4  A    between atoms: C_13  and  C_16
REMARK    5  A    between atoms: C_21  and  O_22
REMARK                            x       y       z     vdW  Elec       q    Type
REMARK                         _______ _______ _______ _____ _____    ______ ____
ROOT
ATOM      1  N   UNL     1       0.667  -0.584  -1.165  0.00  0.00    -0.154 NA
ATOM      2  C   UNL     1       1.932  -1.226  -0.785  0.00  0.00    +0.210 C 
ATOM      3  C   UNL     1       2.668  -1.692  -2.043  0.00  0.00    +0.050 C 
ATOM      4  C   UNL     1       1.783  -2.678  -2.810  0.00  0.00    +0.006 C 
ATOM      5  C   UNL     1       0.454  -1.999  -3.153  0.00  0.00    +0.025 C 
ATOM      6  C   UNL     1      -0.219  -1.524  -1.863  0.00  0.00    +0.050 C 
ATOM      7  C   UNL     1      -0.498  -2.728  -0.961  0.00  0.00    +0.025 C 
ATOM      8  C   UNL     1      -1.174  -2.256   0.328  0.00  0.00    +0.002 C 
ATOM      9  C   UNL     1      -2.492  -1.559  -0.014  0.00  0.00    +0.008 C 
ATOM     10  C   UNL     1      -2.213  -0.354  -0.915  0.00  0.00    +0.024 C 
ATOM     11  C   UNL     1      -1.537  -0.827  -2.204  0.00  0.00    +0.033 C 
ENDROOT
BRANCH  10  12
ATOM     12  C   UNL     1      -3.511   0.333  -1.252  0.00  0.00    -0.003 A 
ATOM     13  C   UNL     1      -4.509  -0.358  -1.911  0.00  0.00    +0.007 A 
ATOM     14  C   UNL     1      -5.700   0.272  -2.221  0.00  0.00    +0.001 A 
ATOM     15  C   UNL     1      -5.896   1.595  -1.871  0.00  0.00    +0.004 A 
ATOM     16  C   UNL     1      -4.902   2.291  -1.210  0.00  0.00    +0.046 A 
ATOM     17  C   UNL     1      -3.708   1.659  -0.894  0.00  0.00    +0.120 A 
BRANCH  17  18
ATOM     18  O   UNL     1      -2.730   2.340  -0.240  0.00  0.00    -0.506 OA
ATOM     19  H   UNL     1      -2.109   2.796  -0.824  0.00  0.00    +0.292 HD
ENDBRANCH  17  18
ENDBRANCH  10  12
BRANCH   1  21
ATOM     20  C   UNL     1       0.125   1.417   0.095  0.00  0.00    +0.221 C 
ATOM     21  O   UNL     1       0.002  -0.004   0.002  0.00  0.00    -0.297 OA
ENDBRANCH   1  21
BRANCH   2  22
ATOM     22  O   UNL     1       2.747  -0.291  -0.075  0.00  0.00    -0.375 OA
ATOM     23  H   UNL     1       3.599  -0.648   0.208  0.00  0.00    +0.212 HD
ENDBRANCH   2  22
TORSDOF 4
