REMARK  Name = ZINC38738446
REMARK  4 active torsions:
REMARK  status: ('A' for Active; 'I' for Inactive)
REMARK    1  A    between atoms: C_1  and  N_2
REMARK    2  A    between atoms: N_2  and  N_13
REMARK    3  A    between atoms: C_15  and  C_20
REMARK    4  A    between atoms: N_22  and  C_23
REMARK                            x       y       z     vdW  Elec       q    Type
REMARK                         _______ _______ _______ _____ _____    ______ ____
ROOT
ATOM      1  N   UNL     1       0.000  -0.698  -1.215  0.00  0.00    -0.218 N 
ATOM      2  C   UNL     1      -1.213  -1.120  -1.926  0.00  0.00    +0.144 C 
ATOM      3  C   UNL     1      -0.757  -1.434  -3.368  0.00  0.00    +0.103 C 
ATOM      4  C   UNL     1       0.734  -1.784  -3.158  0.00  0.00    +0.112 C 
ATOM      5  C   UNL     1       1.109  -1.058  -1.885  0.00  0.00    +0.233 C 
ATOM      6  O   UNL     1       2.244  -0.836  -1.520  0.00  0.00    -0.274 OA
ENDROOT
BRANCH   1   8
ATOM      7  C   UNL     1      -0.018   1.461   0.010  0.00  0.00    +0.155 C 
ATOM      8  N   UNL     1       0.002  -0.004   0.002  0.00  0.00    -0.234 N 
ATOM      9  C   UNL     1       0.023  -0.704   1.199  0.00  0.00    +0.156 A 
ATOM     10  C   UNL     1       0.019  -0.002   2.418  0.00  0.00    +0.156 A 
ATOM     11  N   UNL     1       0.038  -0.647   3.559  0.00  0.00    -0.250 NA
ATOM     12  C   UNL     1       0.062  -1.986   3.568  0.00  0.00    +0.089 A 
ATOM     13  C   UNL     1       0.083  -2.700   4.778  0.00  0.00    +0.030 A 
ATOM     14  C   UNL     1       0.106  -4.061   4.759  0.00  0.00    +0.002 A 
ATOM     15  C   UNL     1       0.109  -4.760   3.553  0.00  0.00    +0.002 A 
ATOM     16  C   UNL     1       0.090  -4.101   2.362  0.00  0.00    +0.030 A 
ATOM     17  C   UNL     1       0.066  -2.696   2.343  0.00  0.00    +0.091 A 
ATOM     18  N   UNL     1       0.041  -2.023   1.186  0.00  0.00    -0.227 NA
ENDBRANCH   1   8
BRANCH   3  19
ATOM     19  C   UNL     1      -1.514  -2.610  -3.929  0.00  0.00    +0.218 C 
ATOM     20  O   UNL     1      -2.353  -3.169  -3.254  0.00  0.00    -0.275 OA
ATOM     21  N   UNL     1      -1.259  -3.042  -5.180  0.00  0.00    -0.312 N 
ATOM     22  H   UNL     1      -0.589  -2.595  -5.719  0.00  0.00    +0.149 HD
BRANCH  21  23
ATOM     23  C   UNL     1      -1.995  -4.185  -5.724  0.00  0.00    +0.082 C 
ATOM     24  C   UNL     1      -1.237  -5.503  -5.459  0.00  0.00    +0.058 C 
ATOM     25  C   UNL     1      -1.495  -6.361  -6.678  0.00  0.00    -0.042 A 
ATOM     26  C   UNL     1      -1.342  -7.725  -6.865  0.00  0.00    +0.004 A 
ATOM     27  C   UNL     1      -1.645  -8.299  -8.084  0.00  0.00    +0.000 A 
ATOM     28  C   UNL     1      -2.102  -7.509  -9.123  0.00  0.00    +0.000 A 
ATOM     29  C   UNL     1      -2.256  -6.149  -8.939  0.00  0.00    +0.004 A 
ATOM     30  C   UNL     1      -1.952  -5.572  -7.717  0.00  0.00    -0.042 A 
ATOM     31  C   UNL     1      -2.033  -4.129  -7.266  0.00  0.00    +0.058 C 
ENDBRANCH  21  23
ENDBRANCH   3  19
TORSDOF 3
