REMARK  Name = ZINC64328910
REMARK  2 active torsions:
REMARK  status: ('A' for Active; 'I' for Inactive)
REMARK    1  A    between atoms: C_1  and  C_2
REMARK    2  A    between atoms: C_16  and  C_18
REMARK                            x       y       z     vdW  Elec       q    Type
REMARK                         _______ _______ _______ _____ _____    ______ ____
ROOT
ATOM      1  C   UNL     1       3.742   4.004  -1.259  0.00  0.00    +0.041 C 
ATOM      2  C   UNL     1       2.980   2.721  -0.920  0.00  0.00    +0.151 C 
ATOM      3  N   UNL     1       3.237   1.661  -1.922  0.00  0.00    -0.254 N 
ATOM      4  N   UNL     1       3.851   0.529  -1.434  0.00  0.00    -0.163 NA
ATOM      5  C   UNL     1       4.188   0.381  -0.191  0.00  0.00    +0.180 C 
ATOM      6  S   UNL     1       3.670   1.908   0.580  0.00  0.00    -0.065 S 
ATOM      7  N   UNL     1       4.808  -0.713   0.405  0.00  0.00    -0.247 N 
ATOM      8  C   UNL     1       5.131  -1.791  -0.337  0.00  0.00    +0.309 C 
ATOM      9  O   UNL     1       4.799  -1.847  -1.505  0.00  0.00    -0.252 OA
ATOM     10  N   UNL     1       5.821  -2.808   0.217  0.00  0.00    -0.275 N 
ATOM     11  C   UNL     1       6.114  -2.817   1.657  0.00  0.00    +0.110 C 
ATOM     12  C   UNL     1       5.623  -4.141   2.252  0.00  0.00    +0.019 C 
ATOM     13  C   UNL     1       6.244  -5.305   1.476  0.00  0.00    +0.004 C 
ATOM     14  C   UNL     1       5.800  -5.240   0.013  0.00  0.00    +0.030 C 
ATOM     15  C   UNL     1       6.288  -3.932  -0.606  0.00  0.00    +0.141 C 
ATOM     16  H   UNL     1       2.990   1.757  -2.855  0.00  0.00    +0.169 HD
ATOM     17  H   UNL     1       5.009  -0.700   1.354  0.00  0.00    +0.158 HD
ENDROOT
BRANCH  15  18
ATOM     18  C   UNL     1       5.736  -3.799  -2.002  0.00  0.00    +0.105 A 
ATOM     19  N   UNL     1       6.454  -3.723  -3.111  0.00  0.00    -0.348 N 
ATOM     20  H   UNL     1       7.423  -3.743  -3.163  0.00  0.00    +0.166 HD
ATOM     21  C   UNL     1       5.608  -3.614  -4.156  0.00  0.00    +0.101 A 
ATOM     22  C   UNL     1       4.354  -3.625  -3.661  0.00  0.00    +0.101 A 
ATOM     23  N   UNL     1       4.452  -3.746  -2.320  0.00  0.00    -0.348 N 
ATOM     24  H   UNL     1       3.710  -3.784  -1.697  0.00  0.00    +0.166 HD
ENDBRANCH  15  18
TORSDOF 1
