REMARK  Name = ZINC24108377
REMARK  5 active torsions:
REMARK  status: ('A' for Active; 'I' for Inactive)
REMARK    1  A    between atoms: C_3  and  C_6
REMARK    2  A    between atoms: C_15  and  C_17
REMARK    3  A    between atoms: C_17  and  S_18
REMARK    4  A    between atoms: S_18  and  C_19
REMARK    5  A    between atoms: C_22  and  C_25
REMARK                            x       y       z     vdW  Elec       q    Type
REMARK                         _______ _______ _______ _____ _____    ______ ____
ROOT
ATOM      1  C   UNL     1       3.574   0.618  -0.029  0.00  0.00    +0.039 A 
ATOM      2  C   UNL     1       4.276   1.361  -0.922  0.00  0.00    +0.059 A 
ATOM      3  S   UNL     1       5.973   0.976  -0.536  0.00  0.00    -0.076 S 
ATOM      4  C   UNL     1       5.706  -0.160   0.801  0.00  0.00    +0.116 A 
ATOM      5  C   UNL     1       4.308  -0.211   0.921  0.00  0.00    +0.083 A 
ATOM      6  C   UNL     1       3.805  -1.069   1.951  0.00  0.00    +0.260 A 
ATOM      7  O   UNL     1       2.605  -1.183   2.130  0.00  0.00    -0.267 OA
ATOM      8  N   UNL     1       4.678  -1.748   2.718  0.00  0.00    -0.310 N 
ATOM      9  H   UNL     1       4.343  -2.331   3.417  0.00  0.00    +0.170 HD
ATOM     10  C   UNL     1       6.018  -1.633   2.532  0.00  0.00    +0.121 A 
ATOM     11  N   UNL     1       6.506  -0.866   1.595  0.00  0.00    -0.226 NA
ENDROOT
BRANCH   1  14
ATOM     12  C   UNL     1      -0.016   1.343   0.009  0.00  0.00    +0.042 A 
ATOM     13  C   UNL     1       1.326   1.774  -0.001  0.00  0.00    +0.050 A 
ATOM     14  C   UNL     1       2.098   0.654  -0.015  0.00  0.00    +0.136 A 
ATOM     15  O   UNL     1       1.281  -0.417  -0.012  0.00  0.00    -0.463 OA
ATOM     16  C   UNL     1       0.002  -0.004   0.002  0.00  0.00    +0.196 A 
ENDBRANCH   1  14
BRANCH  10  17
ATOM     17  C   UNL     1       6.957  -2.413   3.415  0.00  0.00    +0.151 C 
BRANCH  17  18
ATOM     18  S   UNL     1       8.671  -2.061   2.935  0.00  0.00    -0.080 S 
BRANCH  18  19
ATOM     19  C   UNL     1       9.633  -3.034   4.045  0.00  0.00    +0.167 A 
ATOM     20  N   UNL     1       9.158  -3.817   4.984  0.00  0.00    -0.222 NA
ATOM     21  H   UNL     1      11.601  -2.629   3.477  0.00  0.00    +0.167 HD
ATOM     22  C   UNL     1      10.191  -4.405   5.638  0.00  0.00    +0.090 A 
ATOM     23  C   UNL     1      11.344  -3.966   5.076  0.00  0.00    +0.113 A 
ATOM     24  N   UNL     1      10.993  -3.103   4.066  0.00  0.00    -0.339 N 
BRANCH  22  25
ATOM     25  C   UNL     1      10.079  -5.361   6.767  0.00  0.00    +0.002 A 
ATOM     26  C   UNL     1      11.228  -5.888   7.353  0.00  0.00    +0.013 A 
ATOM     27  C   UNL     1      11.118  -6.776   8.404  0.00  0.00    +0.039 A 
ATOM     28  C   UNL     1       9.869  -7.144   8.875  0.00  0.00    +0.123 A 
ATOM     29  C   UNL     1       8.724  -6.623   8.295  0.00  0.00    +0.039 A 
ATOM     30  C   UNL     1       8.823  -5.730   7.248  0.00  0.00    +0.013 A 
ATOM     31  F   UNL     1       9.766  -8.014   9.904  0.00  0.00    -0.205 F 
ENDBRANCH  22  25
ENDBRANCH  18  19
ENDBRANCH  17  18
ENDBRANCH  10  17
TORSDOF 5
