REMARK  Name = ZINC36603810
REMARK  17 active torsions:
REMARK  status: ('A' for Active; 'I' for Inactive)
REMARK    1  A    between atoms: C_1  and  C_2
REMARK    2  A    between atoms: C_2  and  C_3
REMARK    3  A    between atoms: C_3  and  C_4
REMARK    4  A    between atoms: C_4  and  C_5
REMARK    5  A    between atoms: N_7  and  C_8
REMARK    6  A    between atoms: N_7  and  C_15
REMARK    7  A    between atoms: C_8  and  C_9
REMARK    8  A    between atoms: C_12  and  C_14
REMARK    9  A    between atoms: C_15  and  C_17
REMARK   10  A    between atoms: C_15  and  C_26
REMARK   11  A    between atoms: C_18  and  O_25
REMARK   12  A    between atoms: C_20  and  O_24
REMARK   13  A    between atoms: C_22  and  O_23
REMARK   14  A    between atoms: N_28  and  C_29
REMARK   15  A    between atoms: C_29  and  C_30
REMARK   16  A    between atoms: C_30  and  C_31
REMARK   17  A    between atoms: C_31  and  C_32
REMARK                            x       y       z     vdW  Elec       q    Type
REMARK                         _______ _______ _______ _____ _____    ______ ____
ROOT
ATOM      1  C   UNL     1       1.873  -4.311  -3.561  0.00  0.00    +0.200 C 
ENDROOT
BRANCH   1   2
ATOM      2  C   UNL     1       3.114  -5.088  -3.920  0.00  0.00    +0.065 A 
ATOM      3  C   UNL     1       3.412  -6.266  -3.252  0.00  0.00    +0.129 A 
ATOM      4  C   UNL     1       4.554  -6.980  -3.582  0.00  0.00    +0.091 A 
ATOM      5  C   UNL     1       5.397  -6.516  -4.580  0.00  0.00    +0.124 A 
ATOM      6  C   UNL     1       5.099  -5.338  -5.248  0.00  0.00    +0.091 A 
ATOM      7  C   UNL     1       3.954  -4.627  -4.921  0.00  0.00    +0.129 A 
BRANCH   7   8
ATOM      8  O   UNL     1       3.659  -3.475  -5.580  0.00  0.00    -0.506 OA
ATOM      9  H   UNL     1       4.034  -2.682  -5.173  0.00  0.00    +0.292 HD
ENDBRANCH   7   8
BRANCH   5  10
ATOM     10  O   UNL     1       6.517  -7.215  -4.902  0.00  0.00    -0.507 OA
ATOM     11  H   UNL     1       6.382  -7.875  -5.596  0.00  0.00    +0.292 HD
ENDBRANCH   5  10
BRANCH   3  12
ATOM     12  O   UNL     1       2.585  -6.720  -2.274  0.00  0.00    -0.506 OA
ATOM     13  H   UNL     1       1.945  -7.380  -2.575  0.00  0.00    +0.292 HD
ENDBRANCH   3  12
ENDBRANCH   1   2
BRANCH   1  14
ATOM     14  C   UNL     1       0.671  -4.966  -4.193  0.00  0.00    +0.238 C 
ATOM     15  O   UNL     1      -0.435  -4.776  -3.732  0.00  0.00    -0.273 OA
ATOM     16  N   UNL     1       0.825  -5.761  -5.270  0.00  0.00    -0.313 N 
ATOM     17  H   UNL     1       1.710  -5.913  -5.638  0.00  0.00    +0.149 HD
BRANCH  16  18
ATOM     18  C   UNL     1      -0.343  -6.398  -5.884  0.00  0.00    +0.104 C 
BRANCH  18  19
ATOM     19  C   UNL     1       0.105  -7.241  -7.080  0.00  0.00    +0.018 C 
BRANCH  19  20
ATOM     20  C   UNL     1      -1.115  -7.905  -7.721  0.00  0.00    -0.002 C 
ATOM     21  C   UNL     1      -0.667  -8.748  -8.916  0.00  0.00    +0.004 C 
ENDBRANCH  19  20
ENDBRANCH  18  19
ENDBRANCH  16  18
ENDBRANCH   1  14
BRANCH   1  24
ATOM     22  C   UNL     1       2.632  -3.688  -1.332  0.00  0.00    +0.217 C 
ATOM     23  O   UNL     1       3.596  -3.155  -1.841  0.00  0.00    -0.276 OA
ATOM     24  N   UNL     1       1.710  -4.295  -2.105  0.00  0.00    -0.278 N 
BRANCH  22  25
ATOM     25  C   UNL     1       2.465  -3.671   0.166  0.00  0.00    +0.096 C 
BRANCH  25  26
ATOM     26  C   UNL     1       3.640  -2.924   0.801  0.00  0.00    +0.009 C 
BRANCH  26  28
ATOM     27  C   UNL     1       4.646  -2.160   2.957  0.00  0.00    +0.004 C 
ATOM     28  C   UNL     1       3.471  -2.907   2.322  0.00  0.00    -0.003 C 
ENDBRANCH  26  28
ENDBRANCH  25  26
ENDBRANCH  22  25
BRANCH  24  29
ATOM     29  C   UNL     1       0.547  -4.938  -1.490  0.00  0.00    +0.183 C 
BRANCH  29  30
ATOM     30  C   UNL     1      -0.457  -3.886  -1.093  0.00  0.00    +0.122 A 
ATOM     31  C   UNL     1      -1.535  -3.517  -1.808  0.00  0.00    +0.046 A 
ATOM     32  C   UNL     1      -2.192  -2.508  -1.067  0.00  0.00    +0.045 A 
ATOM     33  C   UNL     1      -1.476  -2.321   0.057  0.00  0.00    +0.102 A 
ATOM     34  O   UNL     1      -0.429  -3.162   0.038  0.00  0.00    -0.463 OA
ATOM     35  C   UNL     1      -1.797  -1.338   1.153  0.00  0.00    +0.086 C 
ENDBRANCH  29  30
ENDBRANCH  24  29
ENDBRANCH   1  24
TORSDOF 14
