REMARK  Name = ZINC39442200
REMARK  10 active torsions:
REMARK  status: ('A' for Active; 'I' for Inactive)
REMARK    1  A    between atoms: C_1  and  C_2
REMARK    2  A    between atoms: C_2  and  C_3
REMARK    3  A    between atoms: C_2  and  C_4
REMARK    4  A    between atoms: C_2  and  C_5
REMARK    5  A    between atoms: C_8  and  C_10
REMARK    6  A    between atoms: C_10  and  N_11
REMARK    7  A    between atoms: C_12  and  C_14
REMARK    8  A    between atoms: C_14  and  C_15
REMARK    9  A    between atoms: N_22  and  C_23
REMARK   10  A    between atoms: C_23  and  C_24
REMARK                            x       y       z     vdW  Elec       q    Type
REMARK                         _______ _______ _______ _____ _____    ______ ____
ROOT
ATOM      1  C   UNL     1       4.796  -3.793  -8.100  0.00  0.00    +0.152 C 
ATOM      2  C   UNL     1       5.604  -4.686  -7.202  0.00  0.00    +0.231 C 
ATOM      3  O   UNL     1       6.414  -4.180  -6.455  0.00  0.00    -0.274 OA
ATOM      4  N   UNL     1       5.468  -6.017  -7.193  0.00  0.00    -0.313 N 
ATOM      5  C   UNL     1       4.498  -6.721  -8.026  0.00  0.00    +0.119 C 
ATOM      6  C   UNL     1       4.033  -5.816  -9.168  0.00  0.00    +0.104 C 
ATOM      7  N   UNL     1       3.623  -4.520  -8.605  0.00  0.00    -0.285 NA
ATOM      8  H   UNL     1       6.040  -6.537  -6.606  0.00  0.00    +0.149 HD
ENDROOT
BRANCH   1   9
ATOM      9  C   UNL     1       4.332  -2.566  -7.312  0.00  0.00    +0.124 C 
BRANCH   9  11
ATOM     10  N   UNL     1       3.112  -2.104  -5.211  0.00  0.00    -0.310 N 
ATOM     11  C   UNL     1       3.530  -3.011  -6.117  0.00  0.00    +0.215 C 
ATOM     12  O   UNL     1       3.260  -4.184  -5.970  0.00  0.00    -0.276 OA
ATOM     13  H   UNL     1       3.327  -1.166  -5.329  0.00  0.00    +0.149 HD
BRANCH  10  14
ATOM     14  C   UNL     1       2.332  -2.537  -4.049  0.00  0.00    +0.157 C 
BRANCH  14  18
ATOM     15  C   UNL     1       1.183   0.132  -1.516  0.00  0.00    +0.052 C 
ATOM     16  N   UNL     1       1.843   0.752  -2.437  0.00  0.00    -0.158 NA
ATOM     17  N   UNL     1       2.316  -0.109  -3.422  0.00  0.00    -0.157 NA
ATOM     18  C   UNL     1       1.992  -1.340  -3.199  0.00  0.00    +0.064 C 
ATOM     19  C   UNL     1       1.205  -1.333  -1.903  0.00  0.00    +0.107 C 
BRANCH  15  21
ATOM     20  C   UNL     1       0.754   2.254  -0.306  0.00  0.00    +0.017 C 
ATOM     21  C   UNL     1       0.530   0.741  -0.301  0.00  0.00    +0.003 C 
ATOM     22  C   UNL     1       1.145   0.138   0.964  0.00  0.00    +0.017 C 
ATOM     23  C   UNL     1      -0.972   0.448  -0.328  0.00  0.00    +0.017 C 
ENDBRANCH  15  21
ENDBRANCH  14  18
ENDBRANCH  10  14
ENDBRANCH   9  11
ENDBRANCH   1   9
BRANCH   7  24
ATOM     24  C   UNL     1       2.897  -3.721  -9.601  0.00  0.00    +0.121 C 
BRANCH  24  25
ATOM     25  C   UNL     1       1.603  -4.411  -9.951  0.00  0.00    -0.015 A 
ATOM     26  C   UNL     1       1.512  -5.162 -11.108  0.00  0.00    +0.009 A 
ATOM     27  C   UNL     1       0.326  -5.795 -11.430  0.00  0.00    +0.039 A 
ATOM     28  C   UNL     1      -0.771  -5.677 -10.594  0.00  0.00    +0.125 A 
ATOM     29  C   UNL     1      -0.680  -4.925  -9.435  0.00  0.00    +0.058 A 
ATOM     30  C   UNL     1       0.509  -4.296  -9.111  0.00  0.00    +0.048 A 
ATOM     31 CL   UNL     1       0.627  -3.358  -7.656  0.00  0.00    -0.083 Cl
ATOM     32  F   UNL     1      -1.931  -6.294 -10.909  0.00  0.00    -0.205 F 
ENDBRANCH  24  25
ENDBRANCH   7  24
TORSDOF 7
