REMARK  Name = ZINC00832330
REMARK  7 active torsions:
REMARK  status: ('A' for Active; 'I' for Inactive)
REMARK    1  A    between atoms: C_1  and  C_2
REMARK    2  A    between atoms: C_3  and  C_18
REMARK    3  A    between atoms: C_4  and  C_10
REMARK    4  A    between atoms: C_15  and  O_16
REMARK    5  A    between atoms: O_16  and  C_17
REMARK    6  A    between atoms: C_18  and  O_20
REMARK    7  A    between atoms: O_20  and  C_21
REMARK                            x       y       z     vdW  Elec       q    Type
REMARK                         _______ _______ _______ _____ _____    ______ ____
ROOT
ATOM      1  C   UNL     1      -6.650   5.696  -2.824  0.00  0.00    +0.061 C 
ATOM      2  C   UNL     1      -5.633   6.707  -2.362  0.00  0.00    +0.021 C 
ATOM      3  C   UNL     1      -4.489   6.283  -1.783  0.00  0.00    +0.078 C 
ATOM      4  C   UNL     1      -3.491   7.333  -1.339  0.00  0.00    +0.147 C 
ATOM      5  N   UNL     1      -3.857   8.741  -1.571  0.00  0.00    -0.288 N 
ATOM      6  C   UNL     1      -5.040   9.008  -2.158  0.00  0.00    +0.304 C 
ATOM      7  O   UNL     1      -5.351  10.167  -2.354  0.00  0.00    -0.252 OA
ATOM      8  N   UNL     1      -5.885   8.039  -2.531  0.00  0.00    -0.273 N 
ATOM      9  H   UNL     1      -3.259   9.459  -1.309  0.00  0.00    +0.151 HD
ATOM     10  H   UNL     1      -6.722   8.297  -2.948  0.00  0.00    +0.156 HD
ENDROOT
BRANCH   4  11
ATOM     11  C   UNL     1      -3.255   7.153   0.139  0.00  0.00    +0.019 A 
ATOM     12  C   UNL     1      -3.986   7.889   1.051  0.00  0.00    +0.009 A 
ATOM     13  C   UNL     1      -3.770   7.724   2.406  0.00  0.00    +0.001 A 
ATOM     14  C   UNL     1      -2.821   6.823   2.853  0.00  0.00    +0.004 A 
ATOM     15  C   UNL     1      -2.087   6.085   1.945  0.00  0.00    +0.046 A 
ATOM     16  C   UNL     1      -2.305   6.245   0.584  0.00  0.00    +0.125 A 
BRANCH  16  17
ATOM     17  O   UNL     1      -1.588   5.516  -0.311  0.00  0.00    -0.495 OA
ATOM     18  C   UNL     1      -0.694   4.535   0.218  0.00  0.00    +0.277 C 
ENDBRANCH  16  17
ENDBRANCH   4  11
BRANCH   3  19
ATOM     19  C   UNL     1      -4.229   4.904  -1.603  0.00  0.00    +0.339 C 
ATOM     20  O   UNL     1      -3.468   4.325  -2.356  0.00  0.00    -0.245 OA
BRANCH  19  21
ATOM     21  O   UNL     1      -4.823   4.231  -0.596  0.00  0.00    -0.458 OA
BRANCH  21  22
ATOM     22  C   UNL     1      -4.436   2.868  -0.409  0.00  0.00    +0.177 C 
ATOM     23  C   UNL     1      -4.557   2.502   1.072  0.00  0.00    +0.044 C 
ATOM     24  C   UNL     1      -3.785   1.209   1.342  0.00  0.00    +0.004 C 
ATOM     25  C   UNL     1      -4.767   0.096   1.710  0.00  0.00    +0.000 C 
ATOM     26  C   UNL     1      -5.965   0.137   0.759  0.00  0.00    +0.000 C 
ATOM     27  C   UNL     1      -5.560  -0.447  -0.597  0.00  0.00    +0.000 C 
ATOM     28  C   UNL     1      -4.714   0.574  -1.359  0.00  0.00    +0.004 C 
ATOM     29  C   UNL     1      -5.350   1.960  -1.234  0.00  0.00    +0.044 C 
ENDBRANCH  21  22
ENDBRANCH  19  21
ENDBRANCH   3  19
TORSDOF 5
