REMARK  Name = ZINC13489361
REMARK  11 active torsions:
REMARK  status: ('A' for Active; 'I' for Inactive)
REMARK    1  A    between atoms: C_1  and  C_2
REMARK    2  A    between atoms: C_3  and  C_9
REMARK    3  A    between atoms: C_6  and  N_8
REMARK    4  A    between atoms: C_9  and  N_10
REMARK    5  A    between atoms: C_11  and  C_13
REMARK    6  A    between atoms: N_22  and  C_25
REMARK    7  A    between atoms: C_25  and  C_27
REMARK    8  A    between atoms: C_25  and  C_36
REMARK    9  A    between atoms: C_27  and  N_28
REMARK   10  A    between atoms: N_28  and  C_29
REMARK   11  A    between atoms: C_29  and  C_30
REMARK                            x       y       z     vdW  Elec       q    Type
REMARK                         _______ _______ _______ _____ _____    ______ ____
ROOT
ATOM      1  C   UNL     1       2.959   1.754  -4.246  0.00  0.00    +0.219 C 
ATOM      2  C   UNL     1       3.439   2.680  -3.152  0.00  0.00    +0.006 C 
ATOM      3  C   UNL     1       3.176   3.959  -3.155  0.00  0.00    -0.005 C 
ATOM      4  C   UNL     1       2.371   4.617  -4.253  0.00  0.00    +0.174 C 
ATOM      5  N   UNL     1       2.663   3.905  -5.500  0.00  0.00    -0.226 N 
ATOM      6  N   UNL     1       2.948   2.516  -5.498  0.00  0.00    -0.215 N 
ATOM      7  C   UNL     1       3.170   2.155  -6.761  0.00  0.00    +0.350 A 
ATOM      8  O   UNL     1       3.445   1.035  -7.144  0.00  0.00    -0.245 OA
ATOM      9  N   UNL     1       3.035   3.250  -7.542  0.00  0.00    -0.232 N 
ATOM     10  C   UNL     1       2.725   4.317  -6.766  0.00  0.00    +0.349 A 
ATOM     11  O   UNL     1       2.536   5.453  -7.156  0.00  0.00    -0.245 OA
ENDROOT
BRANCH   1  13
ATOM     12  N   UNL     1       1.341   0.557  -2.809  0.00  0.00    -0.309 N 
ATOM     13  C   UNL     1       1.568   1.267  -3.931  0.00  0.00    +0.242 C 
ATOM     14  O   UNL     1       0.653   1.516  -4.687  0.00  0.00    -0.273 OA
ATOM     15  H   UNL     1       2.073   0.358  -2.204  0.00  0.00    +0.149 HD
BRANCH  12  16
ATOM     16  C   UNL     1      -0.011   0.084  -2.502  0.00  0.00    +0.141 C 
BRANCH  16  19
ATOM     17  C   UNL     1      -0.018   1.503   0.010  0.00  0.00    +0.063 C 
ATOM     18  C   UNL     1       0.002  -0.004   0.002  0.00  0.00    +0.019 A 
ATOM     19  C   UNL     1       0.005  -0.679  -1.202  0.00  0.00    -0.011 A 
ATOM     20  C   UNL     1       0.024  -2.067  -1.204  0.00  0.00    +0.010 A 
ATOM     21  C   UNL     1       0.039  -2.729   0.011  0.00  0.00    +0.041 A 
ATOM     22  C   UNL     1       0.035  -1.985   1.186  0.00  0.00    +0.094 A 
ATOM     23  N   UNL     1       0.022  -0.661   1.146  0.00  0.00    -0.347 N 
ATOM     24  H   UNL     1       0.023  -0.163   1.978  0.00  0.00    +0.167 HD
BRANCH  22  25
ATOM     25  N   UNL     1       0.049  -2.637   2.414  0.00  0.00    -0.345 N 
ATOM     26  H   UNL     1       0.062  -3.606   2.448  0.00  0.00    +0.144 HD
ATOM     27  H   UNL     1       0.046  -2.122   3.236  0.00  0.00    +0.144 HD
ENDBRANCH  22  25
ENDBRANCH  16  19
ENDBRANCH  12  16
ENDBRANCH   1  13
BRANCH   9  28
ATOM     28  C   UNL     1       3.199   3.278  -8.997  0.00  0.00    +0.192 C 
BRANCH  28  29
ATOM     29  C   UNL     1       1.914   3.737  -9.638  0.00  0.00    +0.377 C 
ATOM     30  O   UNL     1       1.176   4.503  -9.043  0.00  0.00    -0.244 OA
ATOM     31  O   UNL     1       1.613   3.342 -10.752  0.00  0.00    -0.244 OA
ENDBRANCH  28  29
BRANCH  28  32
ATOM     32  C   UNL     1       4.326   4.245  -9.365  0.00  0.00    -0.045 C 
BRANCH  32  33
ATOM     33  N   UNL     1       5.550   3.866  -8.646  0.00  0.00    +0.383 N 
ATOM     34  H   UNL     1       5.382   3.908  -7.652  0.00  0.00    -0.085 HD
ATOM     35  H   UNL     1       5.814   2.928  -8.903  0.00  0.00    -0.085 HD
BRANCH  33  36
ATOM     36  C   UNL     1       6.632   4.795  -8.999  0.00  0.00    -0.047 C 
BRANCH  36  37
ATOM     37  C   UNL     1       7.887   4.407  -8.261  0.00  0.00    -0.064 A 
ATOM     38  C   UNL     1       8.146   4.937  -7.011  0.00  0.00    +0.002 A 
ATOM     39  C   UNL     1       9.297   4.581  -6.333  0.00  0.00    +0.000 A 
ATOM     40  C   UNL     1      10.190   3.695  -6.906  0.00  0.00    +0.000 A 
ATOM     41  C   UNL     1       9.931   3.163  -8.156  0.00  0.00    +0.000 A 
ATOM     42  C   UNL     1       8.777   3.516  -8.831  0.00  0.00    +0.002 A 
ENDBRANCH  36  37
ENDBRANCH  33  36
ENDBRANCH  32  33
ENDBRANCH  28  32
ENDBRANCH   9  28
TORSDOF 10
