REMARK  Name = ZINC06587761
REMARK  4 active torsions:
REMARK  status: ('A' for Active; 'I' for Inactive)
REMARK    1  A    between atoms: C_1  and  C_2
REMARK    2  A    between atoms: C_5  and  N_9
REMARK    3  A    between atoms: C_10  and  C_12
REMARK    4  A    between atoms: C_12  and  N_13
REMARK                            x       y       z     vdW  Elec       q    Type
REMARK                         _______ _______ _______ _____ _____    ______ ____
ROOT
ATOM      1  N   UNL     1      -1.291  -1.312  -1.344  0.00  0.00    -0.215 N 
ATOM      2  C   UNL     1      -0.179  -0.547  -1.376  0.00  0.00    +0.251 C 
ATOM      3  O   UNL     1       0.541  -0.334  -2.328  0.00  0.00    -0.272 OA
ATOM      4  C   UNL     1      -0.024  -0.013   0.024  0.00  0.00    +0.138 C 
ATOM      5  C   UNL     1      -0.055   1.521   0.041  0.00  0.00    +0.045 C 
ATOM      6  C   UNL     1       1.449   1.877   0.030  0.00  0.00    +0.038 C 
ATOM      7  C   UNL     1       2.146   0.678   0.638  0.00  0.00    -0.042 A 
ATOM      8  C   UNL     1       1.294  -0.414   0.630  0.00  0.00    -0.012 A 
ATOM      9  C   UNL     1       1.728  -1.627   1.137  0.00  0.00    +0.006 A 
ATOM     10  C   UNL     1       3.004  -1.751   1.651  0.00  0.00    +0.000 A 
ATOM     11  C   UNL     1       3.853  -0.661   1.661  0.00  0.00    +0.000 A 
ATOM     12  C   UNL     1       3.423   0.551   1.155  0.00  0.00    +0.004 A 
ATOM     13  N   UNL     1      -1.155  -0.578   0.761  0.00  0.00    -0.281 N 
ATOM     14  C   UNL     1      -1.844  -1.327  -0.123  0.00  0.00    +0.310 C 
ATOM     15  O   UNL     1      -2.852  -1.947   0.155  0.00  0.00    -0.252 OA
ATOM     16  H   UNL     1      -1.367  -0.441   1.698  0.00  0.00    +0.152 HD
ENDROOT
BRANCH   1  17
ATOM     17  C   UNL     1      -1.827  -2.036  -2.499  0.00  0.00    +0.214 C 
BRANCH  17  19
ATOM     18  N   UNL     1      -1.570  -4.266  -3.538  0.00  0.00    -0.282 N 
ATOM     19  C   UNL     1      -1.222  -3.416  -2.552  0.00  0.00    +0.235 C 
ATOM     20  O   UNL     1      -0.422  -3.760  -1.708  0.00  0.00    -0.274 OA
ATOM     21  H   UNL     1      -2.256  -4.016  -4.175  0.00  0.00    +0.155 HD
BRANCH  18  26
ATOM     22  C   UNL     1       0.985  -9.318  -3.957  0.00  0.00    +0.044 C 
ATOM     23  C   UNL     1       0.306  -7.976  -3.847  0.00  0.00    -0.048 A 
ATOM     24  C   UNL     1       0.065  -7.426  -2.602  0.00  0.00    +0.005 A 
ATOM     25  C   UNL     1      -0.551  -6.194  -2.496  0.00  0.00    +0.026 A 
ATOM     26  C   UNL     1      -0.940  -5.513  -3.642  0.00  0.00    +0.069 A 
ATOM     27  C   UNL     1      -0.696  -6.068  -4.893  0.00  0.00    +0.145 A 
ATOM     28  C   UNL     1      -0.073  -7.300  -4.991  0.00  0.00    +0.043 A 
ATOM     29  F   UNL     1      -1.067  -5.407  -6.011  0.00  0.00    -0.204 F 
ENDBRANCH  18  26
ENDBRANCH  17  19
ENDBRANCH   1  17
TORSDOF 3
