REMARK  Name = ZINC39775228
REMARK  6 active torsions:
REMARK  status: ('A' for Active; 'I' for Inactive)
REMARK    1  A    between atoms: C_1  and  C_2
REMARK    2  A    between atoms: N_4  and  C_5
REMARK    3  A    between atoms: C_9  and  C_12
REMARK    4  A    between atoms: C_12  and  C_13
REMARK    5  A    between atoms: N_15  and  N_16
REMARK    6  A    between atoms: C_17  and  C_18
REMARK                            x       y       z     vdW  Elec       q    Type
REMARK                         _______ _______ _______ _____ _____    ______ ____
ROOT
ATOM      1  C   UNL     1      -0.944  -5.610  -3.318  0.00  0.00    +0.235 C 
ATOM      2  O   UNL     1      -1.127  -4.670  -4.061  0.00  0.00    -0.274 OA
ATOM      3  N   UNL     1      -0.316  -6.714  -3.770  0.00  0.00    -0.207 N 
ATOM      4  H   UNL     1      -0.169  -7.466  -3.176  0.00  0.00    +0.177 HD
ENDROOT
BRANCH   3   5
ATOM      5  N   UNL     1       0.124  -6.774  -5.099  0.00  0.00    -0.188 NA
ATOM      6  C   UNL     1       0.734  -7.847  -5.538  0.00  0.00    +0.136 C 
BRANCH   6   7
ATOM      7  C   UNL     1       1.174  -7.907  -6.868  0.00  0.00    +0.000 C 
ATOM      8  C   UNL     1       1.829  -8.967  -7.490  0.00  0.00    +0.004 A 
ATOM      9  C   UNL     1       2.239 -10.239  -7.030  0.00  0.00    +0.010 A 
ATOM     10  C   UNL     1       2.873 -11.088  -7.877  0.00  0.00    +0.001 A 
ATOM     11  C   UNL     1       3.135 -10.740  -9.205  0.00  0.00    +0.002 A 
ATOM     12  C   UNL     1       2.771  -9.539  -9.715  0.00  0.00    +0.026 A 
ATOM     13  C   UNL     1       2.103  -8.595  -8.889  0.00  0.00    +0.043 A 
ATOM     14  N   UNL     1       1.653  -7.383  -9.139  0.00  0.00    -0.380 N 
ATOM     15  C   UNL     1       1.032  -6.838  -7.928  0.00  0.00    +0.150 C 
ATOM     16  H   UNL     1       1.720  -6.924  -9.991  0.00  0.00    +0.160 HD
ENDBRANCH   6   7
ENDBRANCH   3   5
BRANCH   1  17
ATOM     17  C   UNL     1      -1.417  -5.544  -1.889  0.00  0.00    +0.128 C 
BRANCH  17  21
ATOM     18  C   UNL     1      -1.136  -2.159   0.001  0.00  0.00    +0.216 C 
ATOM     19  N   UNL     1      -2.495  -2.725   0.271  0.00  0.00    -0.227 NA
ATOM     20  N   UNL     1      -2.574  -4.092  -0.231  0.00  0.00    -0.241 NA
ATOM     21  C   UNL     1      -2.091  -4.194  -1.636  0.00  0.00    +0.138 C 
ATOM     22  S   UNL     1      -0.864  -2.820  -1.700  0.00  0.00    -0.101 S 
ATOM     23  H   UNL     1      -2.713  -2.688   1.255  0.00  0.00    +0.143 HD
ATOM     24  H   UNL     1      -3.510  -4.456  -0.142  0.00  0.00    +0.142 HD
BRANCH  18  28
ATOM     25  C   UNL     1      -0.018   1.503   0.010  0.00  0.00    +0.109 C 
ATOM     26  C   UNL     1       0.002  -0.004   0.002  0.00  0.00    +0.212 C 
ATOM     27  O   UNL     1       1.060  -0.596  -0.011  0.00  0.00    -0.276 OA
ATOM     28  N   UNL     1      -1.156  -0.694   0.009  0.00  0.00    -0.290 N 
ATOM     29  H   UNL     1      -2.002  -0.220   0.020  0.00  0.00    +0.151 HD
ENDBRANCH  18  28
ENDBRANCH  17  21
ENDBRANCH   1  17
TORSDOF 5
