REMARK  Name = ZINC48892298
REMARK  7 active torsions:
REMARK  status: ('A' for Active; 'I' for Inactive)
REMARK    1  A    between atoms: C_1  and  N_2
REMARK    2  A    between atoms: N_2  and  C_3
REMARK    3  A    between atoms: N_2  and  C_11
REMARK    4  A    between atoms: C_3  and  C_4
REMARK    5  A    between atoms: C_11  and  C_13
REMARK    6  A    between atoms: C_11  and  C_15
REMARK    7  A    between atoms: C_13  and  N_14
REMARK                            x       y       z     vdW  Elec       q    Type
REMARK                         _______ _______ _______ _____ _____    ______ ____
ROOT
ATOM      1  C   UNL     1      -0.018  -0.846  -1.263  0.00  0.00    +0.069 C 
ENDROOT
BRANCH   1   2
ATOM      2  C   UNL     1      -0.778  -0.558  -2.532  0.00  0.00    -0.031 A 
ATOM      3  C   UNL     1      -1.251   0.717  -2.780  0.00  0.00    +0.005 A 
ATOM      4  C   UNL     1      -1.948   0.981  -3.944  0.00  0.00    +0.001 A 
ATOM      5  C   UNL     1      -2.173  -0.029  -4.860  0.00  0.00    +0.015 A 
ATOM      6  C   UNL     1      -1.700  -1.305  -4.612  0.00  0.00    +0.018 A 
ATOM      7  C   UNL     1      -0.998  -1.568  -3.450  0.00  0.00    +0.020 A 
ATOM      8 BR   UNL     1      -2.008  -2.688  -5.865  0.00  0.00    -0.050 Br
ENDBRANCH   1   2
BRANCH   1  10
ATOM      9  C   UNL     1       0.277   1.327  -0.237  0.00  0.00    +0.105 C 
ATOM     10  N   UNL     1      -0.472   0.064  -0.203  0.00  0.00    -0.296 NA
BRANCH  10  11
ATOM     11  C   UNL     1      -0.371  -0.573   1.117  0.00  0.00    +0.121 C 
BRANCH  11  12
ATOM     12  C   UNL     1      -1.294   0.124   2.083  0.00  0.00    -0.019 A 
ATOM     13  C   UNL     1      -0.791   1.062   2.966  0.00  0.00    +0.006 A 
ATOM     14  C   UNL     1      -1.638   1.701   3.851  0.00  0.00    +0.000 A 
ATOM     15  C   UNL     1      -2.989   1.403   3.855  0.00  0.00    +0.001 A 
ATOM     16  C   UNL     1      -3.492   0.465   2.973  0.00  0.00    +0.015 A 
ATOM     17  C   UNL     1      -2.645  -0.171   2.083  0.00  0.00    +0.022 A 
ATOM     18 BR   UNL     1      -3.334  -1.449   0.871  0.00  0.00    -0.050 Br
ENDBRANCH  11  12
ENDBRANCH  10  11
ENDBRANCH   1  10
BRANCH   1  19
ATOM     19  C   UNL     1       1.478  -0.639  -1.506  0.00  0.00    -0.063 C 
BRANCH  19  20
ATOM     20  N   UNL     1       2.231  -1.057  -0.316  0.00  0.00    +0.379 N 
ATOM     21  H   UNL     1       3.219  -1.026  -0.515  0.00  0.00    -0.090 HD
ATOM     22  H   UNL     1       2.021  -0.435   0.450  0.00  0.00    -0.090 HD
ATOM     23  H   UNL     1       1.968  -1.999  -0.065  0.00  0.00    -0.090 HD
ENDBRANCH  19  20
ENDBRANCH   1  19
TORSDOF 6
