REMARK  Name = ZINC05295468
REMARK  5 active torsions:
REMARK  status: ('A' for Active; 'I' for Inactive)
REMARK    1  A    between atoms: C_1  and  N_2
REMARK    2  A    between atoms: N_11  and  C_27
REMARK    3  A    between atoms: N_14  and  N_15
REMARK    4  A    between atoms: C_27  and  C_28
REMARK    5  A    between atoms: C_28  and  C_29
REMARK                            x       y       z     vdW  Elec       q    Type
REMARK                         _______ _______ _______ _____ _____    ______ ____
ROOT
ATOM      1  C   UNL     1      -0.018   1.461   0.010  0.00  0.00    +0.155 C 
ATOM      2  N   UNL     1       0.002  -0.004   0.002  0.00  0.00    -0.280 N 
ATOM      3  C   UNL     1      -1.189  -0.712   0.004  0.00  0.00    +0.170 A 
ATOM      4  C   UNL     1      -1.142  -2.103  -0.004  0.00  0.00    +0.153 A 
ATOM      5  C   UNL     1       0.110  -2.747  -0.013  0.00  0.00    +0.280 A 
ATOM      6  O   UNL     1       0.176  -3.964  -0.021  0.00  0.00    -0.265 OA
ATOM      7  N   UNL     1       1.235  -2.003  -0.014  0.00  0.00    -0.273 N 
ATOM      8  H   UNL     1       2.099  -2.444  -0.021  0.00  0.00    +0.173 HD
ATOM      9  C   UNL     1       1.177  -0.660  -0.013  0.00  0.00    +0.331 A 
ATOM     10  O   UNL     1       2.213  -0.022  -0.020  0.00  0.00    -0.246 OA
ATOM     11  N   UNL     1      -2.457  -2.538   0.001  0.00  0.00    -0.305 N 
ATOM     12  C   UNL     1      -3.239  -1.426   0.011  0.00  0.00    +0.218 A 
ATOM     13  N   UNL     1      -2.473  -0.354   0.012  0.00  0.00    -0.195 NA
ATOM     14  N   UNL     1      -4.618  -1.421   0.017  0.00  0.00    -0.206 N 
ATOM     15  H   UNL     1      -5.106  -2.259   0.015  0.00  0.00    +0.177 HD
ENDROOT
BRANCH  14  16
ATOM     16  N   UNL     1      -5.259  -0.301   0.027  0.00  0.00    -0.174 NA
ATOM     17  C   UNL     1      -6.572  -0.296   0.033  0.00  0.00    +0.153 C 
ATOM     18  C   UNL     1      -7.470   0.882   0.038  0.00  0.00    +0.029 A 
ATOM     19  C   UNL     1      -7.240   2.253   0.037  0.00  0.00    +0.027 A 
ATOM     20  C   UNL     1      -8.311   3.127   0.043  0.00  0.00    +0.019 A 
ATOM     21  C   UNL     1      -9.606   2.636   0.050  0.00  0.00    +0.017 A 
ATOM     22  C   UNL     1      -9.843   1.276   0.050  0.00  0.00    +0.025 A 
ATOM     23  C   UNL     1      -8.778   0.382   0.044  0.00  0.00    +0.043 A 
ATOM     24  N   UNL     1      -8.738  -1.008   0.043  0.00  0.00    -0.280 N 
ATOM     25  C   UNL     1      -7.474  -1.463   0.030  0.00  0.00    +0.269 C 
ATOM     26  O   UNL     1      -7.133  -2.631   0.021  0.00  0.00    -0.268 OA
ATOM     27 BR   UNL     1      -8.007   4.993   0.043  0.00  0.00    -0.050 Br
ATOM     28  H   UNL     1      -9.524  -1.577   0.047  0.00  0.00    +0.155 HD
ENDBRANCH  14  16
BRANCH  11  29
ATOM     29  C   UNL     1      -2.917  -3.929  -0.005  0.00  0.00    +0.130 C 
BRANCH  29  30
ATOM     30  C   UNL     1      -3.070  -4.422   1.435  0.00  0.00    +0.057 C 
BRANCH  30  31
ATOM     31  C   UNL     1      -3.542  -5.853   1.429  0.00  0.00    -0.046 A 
ATOM     32  C   UNL     1      -4.896  -6.133   1.429  0.00  0.00    +0.004 A 
ATOM     33  C   UNL     1      -5.330  -7.445   1.424  0.00  0.00    +0.000 A 
ATOM     34  C   UNL     1      -4.410  -8.477   1.419  0.00  0.00    +0.000 A 
ATOM     35  C   UNL     1      -3.057  -8.197   1.418  0.00  0.00    +0.000 A 
ATOM     36  C   UNL     1      -2.623  -6.884   1.419  0.00  0.00    +0.004 A 
ENDBRANCH  30  31
ENDBRANCH  29  30
ENDBRANCH  11  29
TORSDOF 4
