REMARK  Name = ZINC04718510
REMARK  7 active torsions:
REMARK  status: ('A' for Active; 'I' for Inactive)
REMARK    1  A    between atoms: C_1  and  C_2
REMARK    2  A    between atoms: C_2  and  C_3
REMARK    3  A    between atoms: C_2  and  C_4
REMARK    4  A    between atoms: C_2  and  C_5
REMARK    5  A    between atoms: C_12  and  N_24
REMARK    6  A    between atoms: C_13  and  C_22
REMARK    7  A    between atoms: C_14  and  C_16
REMARK                            x       y       z     vdW  Elec       q    Type
REMARK                         _______ _______ _______ _____ _____    ______ ____
ROOT
ATOM      1  C   UNL     1       0.651  -0.798  -2.064  0.00  0.00    +0.076 A 
ATOM      2  C   UNL     1       0.889  -2.165  -2.114  0.00  0.00    +0.050 A 
ATOM      3  C   UNL     1       1.495  -2.446  -3.307  0.00  0.00    +0.222 A 
ATOM      4  N   UNL     1       1.628  -1.290  -3.977  0.00  0.00    -0.246 N 
ATOM      5  H   UNL     1       2.023  -1.182  -4.856  0.00  0.00    +0.192 HD
ATOM      6  N   UNL     1       1.087  -0.267  -3.182  0.00  0.00    -0.175 NA
ATOM      7  O   UNL     1       1.863  -3.702  -3.663  0.00  0.00    -0.423 OA
ATOM      8  C   UNL     1       1.870  -4.647  -2.701  0.00  0.00    +0.200 C 
ATOM      9  C   UNL     1       1.294  -4.490  -1.488  0.00  0.00    +0.098 C 
ATOM     10  C   UNL     1       0.573  -3.226  -1.092  0.00  0.00    +0.103 C 
ENDROOT
BRANCH  10  11
ATOM     11  C   UNL     1      -0.913  -3.476  -1.061  0.00  0.00    -0.016 A 
ATOM     12  C   UNL     1      -1.597  -3.492   0.145  0.00  0.00    +0.007 A 
ATOM     13  C   UNL     1      -2.963  -3.725   0.126  0.00  0.00    +0.020 A 
ATOM     14  C   UNL     1      -3.594  -3.933  -1.086  0.00  0.00    +0.111 A 
ATOM     15  N   UNL     1      -2.911  -3.912  -2.214  0.00  0.00    -0.263 NA
ATOM     16  C   UNL     1      -1.612  -3.687  -2.234  0.00  0.00    +0.115 A 
ENDBRANCH  10  11
BRANCH   1  18
ATOM     17  C   UNL     1      -1.482  -0.430  -0.854  0.00  0.00    +0.017 C 
ATOM     18  C   UNL     1      -0.001  -0.054  -0.926  0.00  0.00    +0.007 C 
ATOM     19  C   UNL     1       0.132   1.452  -1.159  0.00  0.00    +0.017 C 
ATOM     20  C   UNL     1       0.686  -0.430   0.388  0.00  0.00    +0.017 C 
ENDBRANCH   1  18
BRANCH   8  21
ATOM     21  N   UNL     1       2.499  -5.837  -2.969  0.00  0.00    -0.328 N 
ATOM     22  H   UNL     1       2.922  -5.979  -3.830  0.00  0.00    +0.145 HD
ATOM     23  H   UNL     1       2.521  -6.536  -2.297  0.00  0.00    +0.145 HD
ENDBRANCH   8  21
BRANCH   9  24
ATOM     24  C   UNL     1       1.371  -5.565  -0.545  0.00  0.00    +0.101 C 
ATOM     25  N   UNL     1       1.433  -6.418   0.204  0.00  0.00    -0.191 NA
ENDBRANCH   9  24
TORSDOF 4
