REMARK  Name = ZINC12371891
REMARK  9 active torsions:
REMARK  status: ('A' for Active; 'I' for Inactive)
REMARK    1  A    between atoms: C_1  and  S_2
REMARK    2  A    between atoms: S_2  and  C_3
REMARK    3  A    between atoms: C_6  and  C_9
REMARK    4  A    between atoms: C_15  and  C_31
REMARK    5  A    between atoms: C_16  and  C_23
REMARK    6  A    between atoms: C_18  and  C_21
REMARK    7  A    between atoms: C_19  and  N_20
REMARK    8  A    between atoms: C_26  and  S_29
REMARK    9  A    between atoms: S_29  and  C_30
REMARK                            x       y       z     vdW  Elec       q    Type
REMARK                         _______ _______ _______ _____ _____    ______ ____
ROOT
ATOM      1  C   UNL     1      -3.963  -2.465  -0.423  0.00  0.00    +0.028 C 
ATOM      2  C   UNL     1      -3.760  -1.190   0.003  0.00  0.00    +0.079 A 
ATOM      3  C   UNL     1      -2.614  -0.619   0.715  0.00  0.00    +0.271 A 
ATOM      4  O   UNL     1      -1.657  -1.310   1.012  0.00  0.00    -0.266 OA
ATOM      5  N   UNL     1      -2.644   0.691   1.035  0.00  0.00    -0.257 N 
ATOM      6  C   UNL     1      -3.760   1.414   0.668  0.00  0.00    +0.099 A 
ATOM      7  C   UNL     1      -3.933   2.738   0.922  0.00  0.00    +0.057 C 
ATOM      8  C   UNL     1      -2.833   3.479   1.655  0.00  0.00    +0.100 C 
ATOM      9  C   UNL     1      -1.627   2.648   2.045  0.00  0.00    +0.079 C 
ATOM     10  C   UNL     1      -1.605   1.339   1.714  0.00  0.00    +0.118 C 
ATOM     11  S   UNL     1      -4.818   0.239  -0.154  0.00  0.00    -0.065 S 
ENDROOT
BRANCH   1  15
ATOM     12  C   UNL     1      -0.820  -5.289  -0.217  0.00  0.00    +0.008 A 
ATOM     13  C   UNL     1      -2.119  -5.670   0.113  0.00  0.00    +0.015 A 
ATOM     14  C   UNL     1      -3.137  -4.761   0.048  0.00  0.00    +0.009 A 
ATOM     15  C   UNL     1      -2.873  -3.444  -0.352  0.00  0.00    -0.024 A 
ATOM     16  C   UNL     1      -1.566  -3.067  -0.688  0.00  0.00    +0.009 A 
ATOM     17  C   UNL     1      -0.553  -3.981  -0.615  0.00  0.00    +0.015 A 
BRANCH  12  19
ATOM     18  C   UNL     1       1.956  -5.527  -0.640  0.00  0.00    +0.090 C 
ATOM     19  S   UNL     1       0.489  -6.465  -0.130  0.00  0.00    -0.129 S 
ENDBRANCH  12  19
ENDBRANCH   1  15
BRANCH   8  20
ATOM     20  C   UNL     1      -2.366   4.615   0.782  0.00  0.00    -0.035 A 
ATOM     21  C   UNL     1      -1.836   4.351  -0.468  0.00  0.00    +0.005 A 
ATOM     22  C   UNL     1      -1.412   5.390  -1.274  0.00  0.00    +0.015 A 
ATOM     23  C   UNL     1      -1.509   6.700  -0.822  0.00  0.00    +0.008 A 
ATOM     24  C   UNL     1      -2.037   6.962   0.436  0.00  0.00    +0.015 A 
ATOM     25  C   UNL     1      -2.464   5.918   1.234  0.00  0.00    +0.005 A 
BRANCH  23  26
ATOM     26  S   UNL     1      -0.963   8.028  -1.844  0.00  0.00    -0.129 S 
ATOM     27  C   UNL     1      -0.370   7.209  -3.349  0.00  0.00    +0.090 C 
ENDBRANCH  23  26
ENDBRANCH   8  20
BRANCH   7  28
ATOM     28  C   UNL     1      -5.101   3.402   0.514  0.00  0.00    +0.241 C 
ATOM     29  O   UNL     1      -5.976   2.791  -0.075  0.00  0.00    -0.271 OA
ATOM     30  N   UNL     1      -5.254   4.716   0.774  0.00  0.00    -0.326 N 
ATOM     31  H   UNL     1      -4.558   5.202   1.243  0.00  0.00    +0.145 HD
ATOM     32  H   UNL     1      -6.061   5.175   0.492  0.00  0.00    +0.145 HD
ENDBRANCH   7  28
BRANCH  10  33
ATOM     33  N   UNL     1      -0.503   0.599   2.070  0.00  0.00    -0.343 N 
ATOM     34  H   UNL     1       0.376   1.009   2.073  0.00  0.00    +0.144 HD
ATOM     35  H   UNL     1      -0.605  -0.332   2.323  0.00  0.00    +0.144 HD
ENDBRANCH  10  33
BRANCH   9  36
ATOM     36  C   UNL     1      -0.529   3.242   2.746  0.00  0.00    +0.099 C 
ATOM     37  N   UNL     1       0.343   3.712   3.302  0.00  0.00    -0.191 NA
ENDBRANCH   9  36
TORSDOF 7
