REMARK  Name = ZINC36384793
REMARK  6 active torsions:
REMARK  status: ('A' for Active; 'I' for Inactive)
REMARK    1  A    between atoms: C_1  and  C_2
REMARK    2  A    between atoms: N_11  and  C_15
REMARK    3  A    between atoms: C_15  and  C_16
REMARK    4  A    between atoms: N_18  and  C_19
REMARK    5  A    between atoms: C_23  and  S_25
REMARK    6  A    between atoms: S_25  and  N_28
REMARK                            x       y       z     vdW  Elec       q    Type
REMARK                         _______ _______ _______ _____ _____    ______ ____
ROOT
ATOM      1  C   UNL     1       1.152   0.526   5.534  0.00  0.00    +0.235 C 
ATOM      2  O   UNL     1       1.558  -0.594   5.305  0.00  0.00    -0.274 OA
ATOM      3  N   UNL     1       1.032   0.953   6.806  0.00  0.00    -0.284 N 
ATOM      4  H   UNL     1       0.772   1.869   6.988  0.00  0.00    +0.155 HD
ENDROOT
BRANCH   3   5
ATOM      5  C   UNL     1       1.282   0.073   7.866  0.00  0.00    +0.035 A 
ATOM      6  C   UNL     1       0.535   0.160   9.033  0.00  0.00    +0.023 A 
ATOM      7  C   UNL     1       0.784  -0.709  10.077  0.00  0.00    +0.004 A 
ATOM      8  C   UNL     1       1.777  -1.665   9.961  0.00  0.00    +0.029 A 
ATOM      9  C   UNL     1       2.522  -1.754   8.800  0.00  0.00    +0.114 A 
ATOM     10  C   UNL     1       2.274  -0.892   7.750  0.00  0.00    +0.052 A 
BRANCH   9  11
ATOM     11  S   UNL     1       3.786  -2.973   8.657  0.00  0.00    +0.100 S 
ATOM     12  O   UNL     1       4.704  -2.495   7.683  0.00  0.00    -0.146 OA
ATOM     13  O   UNL     1       4.183  -3.304   9.981  0.00  0.00    -0.146 OA
BRANCH  11  14
ATOM     14  N   UNL     1       3.086  -4.332   8.020  0.00  0.00    -0.118 NA
ATOM     15  C   UNL     1       3.800  -5.389   7.809  0.00  0.00    +0.117 C 
ATOM     16  N   UNL     1       5.138  -5.506   8.078  0.00  0.00    -0.331 N 
ATOM     17  C   UNL     1       5.489  -6.932   8.178  0.00  0.00    +0.103 C 
ATOM     18  C   UNL     1       4.500  -7.641   7.227  0.00  0.00    +0.026 C 
ATOM     19  C   UNL     1       3.284  -6.691   7.234  0.00  0.00    +0.074 C 
ATOM     20  H   UNL     1       5.756  -4.766   8.185  0.00  0.00    +0.147 HD
ENDBRANCH  11  14
ENDBRANCH   9  11
ENDBRANCH   3   5
BRANCH   1  21
ATOM     21  C   UNL     1       0.783   1.440   4.394  0.00  0.00    +0.214 C 
BRANCH  21  31
ATOM     22  C   UNL     1      -0.007   1.536   0.009  0.00  0.00    +0.010 C 
ATOM     23  C   UNL     1       0.003   0.006   0.001  0.00  0.00    +0.018 C 
ATOM     24  C   UNL     1       0.717  -0.493  -1.259  0.00  0.00    +0.006 C 
ATOM     25  C   UNL     1       0.743  -2.022  -1.256  0.00  0.00    +0.000 C 
ATOM     26  C   UNL     1       1.498  -2.520  -0.022  0.00  0.00    +0.003 C 
ATOM     27  C   UNL     1       0.787  -2.029   1.242  0.00  0.00    +0.035 C 
ATOM     28  C   UNL     1       0.735  -0.505   1.237  0.00  0.00    +0.115 C 
ATOM     29  C   UNL     1       0.067   0.004   2.494  0.00  0.00    +0.247 C 
ATOM     30  O   UNL     1      -1.068  -0.211   2.860  0.00  0.00    -0.273 OA
ATOM     31  N   UNL     1       1.001   0.748   3.122  0.00  0.00    -0.215 N 
ATOM     32  C   UNL     1       2.152   0.774   2.438  0.00  0.00    +0.310 C 
ATOM     33  O   UNL     1       3.141   1.379   2.803  0.00  0.00    -0.252 OA
ATOM     34  N   UNL     1       2.090   0.057   1.300  0.00  0.00    -0.285 N 
ATOM     35  H   UNL     1       2.801  -0.066   0.651  0.00  0.00    +0.151 HD
ENDBRANCH  21  31
ENDBRANCH   1  21
TORSDOF 5
