REMARK  Name = ZINC50397239
REMARK  6 active torsions:
REMARK  status: ('A' for Active; 'I' for Inactive)
REMARK    1  A    between atoms: C_1  and  C_2
REMARK    2  A    between atoms: C_5  and  N_21
REMARK    3  A    between atoms: C_6  and  S_9
REMARK    4  A    between atoms: C_7  and  C_8
REMARK    5  A    between atoms: S_9  and  N_12
REMARK    6  A    between atoms: N_12  and  C_13
REMARK                            x       y       z     vdW  Elec       q    Type
REMARK                         _______ _______ _______ _____ _____    ______ ____
ROOT
ATOM      1  S   UNL     1      -0.248  -3.239   2.498  0.00  0.00    +0.061 S 
ATOM      2  O   UNL     1      -0.915  -2.461   3.483  0.00  0.00    -0.153 OA
ATOM      3  O   UNL     1      -0.703  -4.528   2.109  0.00  0.00    -0.153 OA
ENDROOT
BRANCH   1   9
ATOM      4  C   UNL     1      -0.674   1.346   0.027  0.00  0.00    +0.044 C 
ATOM      5  C   UNL     1      -0.402  -0.134  -0.049  0.00  0.00    -0.046 A 
ATOM      6  C   UNL     1      -0.112  -0.721  -1.267  0.00  0.00    +0.005 A 
ATOM      7  C   UNL     1       0.138  -2.077  -1.340  0.00  0.00    +0.025 A 
ATOM      8  C   UNL     1       0.097  -2.852  -0.188  0.00  0.00    +0.052 A 
ATOM      9  C   UNL     1      -0.195  -2.260   1.034  0.00  0.00    +0.129 A 
ATOM     10  C   UNL     1      -0.438  -0.902   1.101  0.00  0.00    -0.019 A 
ATOM     11  C   UNL     1      -0.749  -0.257   2.427  0.00  0.00    +0.046 C 
BRANCH   8  12
ATOM     12  N   UNL     1       0.349  -4.224  -0.258  0.00  0.00    -0.356 N 
ATOM     13  H   UNL     1       0.427  -4.660  -1.122  0.00  0.00    +0.142 HD
ATOM     14  H   UNL     1       0.446  -4.742   0.556  0.00  0.00    +0.142 HD
ENDBRANCH   8  12
ENDBRANCH   1   9
BRANCH   1  15
ATOM     15  N   UNL     1       1.313  -3.425   3.020  0.00  0.00    -0.178 NA
ATOM     16  H   UNL     1       1.720  -4.305   3.025  0.00  0.00    +0.149 HD
BRANCH  15  17
ATOM     17  C   UNL     1       2.078  -2.261   3.473  0.00  0.00    +0.162 C 
ATOM     18  C   UNL     1       3.537  -2.409   3.035  0.00  0.00    +0.031 C 
ATOM     19  C   UNL     1       4.368  -1.334   3.746  0.00  0.00    +0.021 C 
ATOM     20  C   UNL     1       4.397  -1.648   5.242  0.00  0.00    +0.104 C 
ATOM     21  N   UNL     1       3.046  -1.870   5.744  0.00  0.00    -0.314 N 
ATOM     22  C   UNL     1       2.003  -2.167   4.970  0.00  0.00    +0.232 C 
ATOM     23  O   UNL     1       0.933  -2.371   5.505  0.00  0.00    -0.274 OA
ATOM     24  H   UNL     1       2.898  -1.798   6.699  0.00  0.00    +0.149 HD
ENDBRANCH  15  17
ENDBRANCH   1  15
TORSDOF 4
