REMARK  Name = ZINC42233217
REMARK  3 active torsions:
REMARK  status: ('A' for Active; 'I' for Inactive)
REMARK    1  A    between atoms: C_4  and  S_8
REMARK    2  A    between atoms: S_8  and  N_11
REMARK    3  A    between atoms: C_12  and  C_14
REMARK                            x       y       z     vdW  Elec       q    Type
REMARK                         _______ _______ _______ _____ _____    ______ ____
ROOT
ATOM      1  S   UNL     1       3.934  -0.833  -0.040  0.00  0.00    +0.103 S 
ATOM      2  O   UNL     1       4.736  -0.255   0.980  0.00  0.00    -0.146 OA
ATOM      3  O   UNL     1       3.624  -2.219  -0.072  0.00  0.00    -0.146 OA
ENDROOT
BRANCH   1   7
ATOM      4  C   UNL     1      -0.017   1.379   0.010  0.00  0.00    +0.021 A 
ATOM      5  C   UNL     1       1.171   2.086   0.002  0.00  0.00    +0.023 A 
ATOM      6  C   UNL     1       2.378   1.411  -0.013  0.00  0.00    +0.068 A 
ATOM      7  C   UNL     1       2.397   0.028  -0.021  0.00  0.00    +0.132 A 
ATOM      8  C   UNL     1       1.210  -0.680  -0.013  0.00  0.00    +0.050 A 
ATOM      9  C   UNL     1       0.002  -0.004   0.002  0.00  0.00    +0.043 A 
ATOM     10 CL   UNL     1      -1.489  -0.892   0.012  0.00  0.00    -0.083 Cl
ATOM     11 CL   UNL     1       3.869   2.300  -0.023  0.00  0.00    -0.082 Cl
ENDBRANCH   1   7
BRANCH   1  12
ATOM     12  N   UNL     1       4.674  -0.480  -1.480  0.00  0.00    -0.090 NA
ATOM     13  C   UNL     1       5.829  -0.988  -1.753  0.00  0.00    +0.268 C 
ATOM     14  O   UNL     1       6.433  -1.805  -0.866  0.00  0.00    -0.269 OA
BRANCH  13  15
ATOM     15  C   UNL     1       6.501  -0.667  -3.063  0.00  0.00    +0.085 C 
ATOM     16  C   UNL     1       7.464   0.511  -2.873  0.00  0.00    +0.017 C 
ATOM     17  C   UNL     1       8.261   0.699  -4.166  0.00  0.00    +0.027 C 
ATOM     18  C   UNL     1       7.333   0.728  -5.345  0.00  0.00    -0.031 C 
ATOM     19  C   UNL     1       6.111   0.303  -5.317  0.00  0.00    -0.030 C 
ATOM     20  C   UNL     1       5.447  -0.275  -4.100  0.00  0.00    +0.040 C 
ENDBRANCH  13  15
ENDBRANCH   1  12
TORSDOF 3
