REMARK  Name = ZINC57121537
REMARK  6 active torsions:
REMARK  status: ('A' for Active; 'I' for Inactive)
REMARK    1  A    between atoms: C_1  and  C_2
REMARK    2  A    between atoms: C_2  and  C_3
REMARK    3  A    between atoms: C_3  and  C_11
REMARK    4  A    between atoms: C_14  and  N_17
REMARK    5  A    between atoms: N_17  and  S_18
REMARK    6  A    between atoms: S_18  and  C_21
REMARK                            x       y       z     vdW  Elec       q    Type
REMARK                         _______ _______ _______ _____ _____    ______ ____
ROOT
ATOM      1  C   UNL     1       0.137  -0.105  -2.473  0.00  0.00    -0.032 A 
ATOM      2  C   UNL     1      -0.487  -0.997  -3.325  0.00  0.00    +0.006 A 
ATOM      3  C   UNL     1      -1.055  -0.549  -4.502  0.00  0.00    +0.027 A 
ATOM      4  C   UNL     1      -0.999   0.800  -4.828  0.00  0.00    +0.074 A 
ATOM      5  C   UNL     1      -0.372   1.694  -3.970  0.00  0.00    +0.027 A 
ATOM      6  C   UNL     1       0.189   1.240  -2.792  0.00  0.00    +0.006 A 
ENDROOT
BRANCH   1   7
ATOM      7  C   UNL     1       0.756  -0.597  -1.190  0.00  0.00    +0.072 C 
ATOM      8  C   UNL     1       0.452  -2.089  -1.013  0.00  0.00    +0.030 C 
ATOM      9  C   UNL     1       1.183  -2.591   0.236  0.00  0.00    +0.097 C 
ATOM     10  C   UNL     1       2.651  -2.285   0.106  0.00  0.00    +0.219 C 
ATOM     11  O   UNL     1       3.459  -3.005   0.653  0.00  0.00    -0.275 OA
ATOM     12  N   UNL     1       3.083  -1.232  -0.603  0.00  0.00    -0.256 N 
ATOM     13  C   UNL     1       2.248  -0.400  -1.243  0.00  0.00    +0.230 C 
ATOM     14  O   UNL     1       2.702   0.529  -1.875  0.00  0.00    -0.274 OA
ATOM     15  H   UNL     1       4.037  -1.065  -0.655  0.00  0.00    +0.157 HD
BRANCH   7  17
ATOM     16  C   UNL     1      -1.343   0.016   0.019  0.00  0.00    +0.005 C 
ATOM     17  C   UNL     1       0.177   0.186  -0.010  0.00  0.00    +0.017 C 
ENDBRANCH   7  17
ENDBRANCH   1   7
BRANCH   4  18
ATOM     18  N   UNL     1      -1.572   1.257  -6.017  0.00  0.00    -0.097 NA
BRANCH  18  19
ATOM     19  S   UNL     1      -1.504   2.865  -6.404  0.00  0.00    +0.098 S 
ATOM     20  O   UNL     1      -2.293   3.549  -5.440  0.00  0.00    -0.148 OA
ATOM     21  O   UNL     1      -0.135   3.173  -6.625  0.00  0.00    -0.148 OA
BRANCH  19  22
ATOM     22  C   UNL     1      -2.320   3.063  -7.954  0.00  0.00    +0.148 A 
ATOM     23  C   UNL     1      -3.627   3.323  -8.203  0.00  0.00    +0.037 A 
ATOM     24  C   UNL     1      -4.049   3.439  -9.515  0.00  0.00    +0.010 A 
ATOM     25  C   UNL     1      -3.143   3.289 -10.512  0.00  0.00    +0.047 A 
ATOM     26  S   UNL     1      -1.639   2.980  -9.602  0.00  0.00    -0.077 S 
ENDBRANCH  19  22
ENDBRANCH  18  19
ENDBRANCH   4  18
TORSDOF 5
