REMARK  Name = ZINC37349855
REMARK  3 active torsions:
REMARK  status: ('A' for Active; 'I' for Inactive)
REMARK    1  A    between atoms: C_3  and  C_8
REMARK    2  A    between atoms: C_9  and  C_14
REMARK    3  A    between atoms: C_12  and  N_13
REMARK                            x       y       z     vdW  Elec       q    Type
REMARK                         _______ _______ _______ _____ _____    ______ ____
ROOT
ATOM      1  C   UNL     1       3.659   2.165  -0.022  0.00  0.00    +0.066 A 
ATOM      2  C   UNL     1       4.610   2.187  -1.065  0.00  0.00    +0.096 A 
ATOM      3  N   UNL     1       5.592   2.963  -0.704  0.00  0.00    -0.080 NA
ATOM      4  O   UNL     1       5.316   3.473   0.587  0.00  0.00    -0.339 OA
ATOM      5  C   UNL     1       4.131   2.982   0.987  0.00  0.00    +0.223 A 
ENDROOT
BRANCH   1   8
ATOM      6  C   UNL     1      -0.017   1.379   0.010  0.00  0.00    +0.002 A 
ATOM      7  C   UNL     1       1.167   2.088   0.002  0.00  0.00    +0.009 A 
ATOM      8  C   UNL     1       2.384   1.408  -0.013  0.00  0.00    -0.010 A 
ATOM      9  C   UNL     1       2.398   0.014  -0.021  0.00  0.00    +0.028 A 
ATOM     10  C   UNL     1       1.208  -0.685  -0.013  0.00  0.00    +0.042 A 
ATOM     11  C   UNL     1       0.002  -0.004   0.002  0.00  0.00    +0.020 A 
ATOM     12 CL   UNL     1       1.222  -2.421  -0.023  0.00  0.00    -0.084 Cl
ENDBRANCH   1   8
BRANCH   2  13
ATOM     13  C   UNL     1       4.507   1.442  -2.371  0.00  0.00    +0.042 C 
ATOM     14  C   UNL     1       4.523   2.441  -3.530  0.00  0.00    +0.010 C 
ATOM     15  C   UNL     1       4.418   1.684  -4.856  0.00  0.00    +0.001 C 
ATOM     16  C   UNL     1       5.603   0.726  -4.991  0.00  0.00    +0.000 C 
ATOM     17  C   UNL     1       5.587  -0.272  -3.832  0.00  0.00    +0.001 C 
ATOM     18  C   UNL     1       5.692   0.484  -2.506  0.00  0.00    +0.010 C 
ENDBRANCH   2  13
BRANCH   5  19
ATOM     19  N   UNL     1       3.503   3.244   2.187  0.00  0.00    -0.327 N 
ATOM     20  H   UNL     1       2.645   2.837   2.384  0.00  0.00    +0.145 HD
ATOM     21  H   UNL     1       3.919   3.836   2.833  0.00  0.00    +0.145 HD
ENDBRANCH   5  19
TORSDOF 3
