REMARK  Name = ZINC22852127
REMARK  5 active torsions:
REMARK  status: ('A' for Active; 'I' for Inactive)
REMARK    1  A    between atoms: C_5  and  C_7
REMARK    2  A    between atoms: C_7  and  C_9
REMARK    3  A    between atoms: C_7  and  N_23
REMARK    4  A    between atoms: C_10  and  O_22
REMARK    5  A    between atoms: C_15  and  C_17
REMARK                            x       y       z     vdW  Elec       q    Type
REMARK                         _______ _______ _______ _____ _____    ______ ____
ROOT
ATOM      1  C   UNL     1       1.228  -2.186  -0.022  0.00  0.00    +0.132 C 
ENDROOT
BRANCH   1   2
ATOM      2  N   UNL     1       0.011  -2.699  -0.666  0.00  0.00    -0.291 NA
ATOM      3  C   UNL     1      -0.057  -4.163  -0.572  0.00  0.00    +0.090 C 
ATOM      4  C   UNL     1      -1.403  -4.648  -1.116  0.00  0.00    +0.080 C 
ATOM      5  C   UNL     1      -1.550  -4.198  -2.571  0.00  0.00    +0.172 C 
ATOM      6  C   UNL     1      -1.421  -2.675  -2.653  0.00  0.00    +0.080 C 
ATOM      7  C   UNL     1      -0.075  -2.250  -2.061  0.00  0.00    +0.090 C 
ATOM      8  O   UNL     1      -2.837  -4.597  -3.069  0.00  0.00    -0.346 OA
ATOM      9  C   UNL     1      -2.605  -4.947  -4.455  0.00  0.00    +0.191 C 
ATOM     10  C   UNL     1      -1.198  -5.590  -4.386  0.00  0.00    +0.191 C 
ATOM     11  O   UNL     1      -0.532  -4.811  -3.371  0.00  0.00    -0.346 OA
ENDBRANCH   1   2
BRANCH   1  12
ATOM     12  C   UNL     1       1.354  -2.778   1.358  0.00  0.00    +0.076 A 
ATOM     13  C   UNL     1       2.377  -3.451   1.898  0.00  0.00    +0.228 A 
ATOM     14  N   UNL     1       2.306  -3.918   3.188  0.00  0.00    -0.173 N 
ATOM     15  C   UNL     1       1.155  -3.663   3.881  0.00  0.00    +0.200 A 
ATOM     16  S   UNL     1       0.179  -2.757   2.704  0.00  0.00    -0.047 S 
ATOM     17  N   UNL     1       1.242  -4.167   5.080  0.00  0.00    -0.197 NA
ATOM     18  C   UNL     1       2.434  -4.763   5.224  0.00  0.00    +0.218 A 
ATOM     19  N   UNL     1       3.114  -4.639   4.105  0.00  0.00    -0.138 NA
BRANCH  18  20
ATOM     20  C   UNL     1       2.907  -5.449   6.444  0.00  0.00    +0.173 A 
ATOM     21  C   UNL     1       2.210  -5.588   7.603  0.00  0.00    +0.053 A 
ATOM     22  C   UNL     1       3.037  -6.304   8.491  0.00  0.00    +0.042 A 
ATOM     23  C   UNL     1       4.186  -6.565   7.837  0.00  0.00    +0.196 A 
ATOM     24  O   UNL     1       4.102  -6.052   6.599  0.00  0.00    -0.460 OA
ENDBRANCH  18  20
BRANCH  13  25
ATOM     25  O   UNL     1       3.498  -3.676   1.161  0.00  0.00    -0.492 OA
ATOM     26  H   UNL     1       4.185  -4.169   1.630  0.00  0.00    +0.294 HD
ENDBRANCH  13  25
ENDBRANCH   1  12
BRANCH   1  31
ATOM     27  C   UNL     1      -0.158   1.315   0.245  0.00  0.00    +0.000 A 
ATOM     28  C   UNL     1       0.999   2.071   0.268  0.00  0.00    +0.003 A 
ATOM     29  C   UNL     1       2.232   1.450   0.197  0.00  0.00    +0.039 A 
ATOM     30  C   UNL     1       2.307   0.071   0.103  0.00  0.00    +0.128 A 
ATOM     31  C   UNL     1       1.147  -0.685   0.081  0.00  0.00    +0.010 A 
ATOM     32  C   UNL     1      -0.084  -0.062   0.151  0.00  0.00    +0.008 A 
ATOM     33  F   UNL     1       3.512  -0.537   0.034  0.00  0.00    -0.205 F 
ENDBRANCH   1  31
TORSDOF 5
