REMARK  Name = ZINC65398939
REMARK  10 active torsions:
REMARK  status: ('A' for Active; 'I' for Inactive)
REMARK    1  A    between atoms: C_1  and  C_2
REMARK    2  A    between atoms: C_3  and  C_29
REMARK    3  A    between atoms: C_7  and  N_14
REMARK    4  A    between atoms: C_9  and  C_11
REMARK    5  A    between atoms: C_11  and  C_12
REMARK    6  A    between atoms: C_12  and  N_13
REMARK    7  A    between atoms: N_14  and  C_15
REMARK    8  A    between atoms: C_15  and  C_17
REMARK    9  A    between atoms: C_15  and  C_23
REMARK   10  A    between atoms: C_17  and  N_18
REMARK                            x       y       z     vdW  Elec       q    Type
REMARK                         _______ _______ _______ _____ _____    ______ ____
ROOT
ATOM      1  C   UNL     1      -0.554   1.486   0.114  0.00  0.00    +0.045 C 
ATOM      2  C   UNL     1      -0.482  -0.020   0.095  0.00  0.00    -0.028 A 
ATOM      3  C   UNL     1      -0.769  -0.699  -1.025  0.00  0.00    -0.008 A 
ATOM      4  S   UNL     1      -0.544  -2.402  -0.548  0.00  0.00    -0.074 S 
ATOM      5  C   UNL     1      -0.072  -2.156   1.143  0.00  0.00    +0.114 A 
ATOM      6  C   UNL     1      -0.096  -0.751   1.289  0.00  0.00    +0.051 A 
ATOM      7  C   UNL     1       0.255  -0.267   2.579  0.00  0.00    +0.131 A 
ATOM      8  N   UNL     1       0.577  -1.132   3.527  0.00  0.00    -0.217 NA
ATOM      9  C   UNL     1       0.582  -2.436   3.318  0.00  0.00    +0.131 A 
ATOM     10  N   UNL     1       0.256  -2.946   2.146  0.00  0.00    -0.225 NA
ATOM     11  C   UNL     1      -1.182  -0.152  -2.367  0.00  0.00    +0.052 C 
ENDROOT
BRANCH   7  12
ATOM     12  N   UNL     1       0.262   1.092   2.839  0.00  0.00    -0.320 N 
ATOM     13  H   UNL     1       0.110   1.724   2.119  0.00  0.00    +0.148 HD
BRANCH  12  14
ATOM     14  C   UNL     1       0.498   1.576   4.201  0.00  0.00    +0.123 C 
BRANCH  14  15
ATOM     15  C   UNL     1       1.981   1.667   4.452  0.00  0.00    -0.026 A 
ATOM     16  C   UNL     1       2.822   2.138   3.461  0.00  0.00    +0.005 A 
ATOM     17  C   UNL     1       4.183   2.222   3.691  0.00  0.00    +0.000 A 
ATOM     18  C   UNL     1       4.702   1.836   4.912  0.00  0.00    +0.000 A 
ATOM     19  C   UNL     1       3.861   1.366   5.904  0.00  0.00    +0.000 A 
ATOM     20  C   UNL     1       2.500   1.286   5.675  0.00  0.00    +0.005 A 
ENDBRANCH  14  15
BRANCH  14  21
ATOM     21  C   UNL     1      -0.134   2.959   4.367  0.00  0.00    +0.170 C 
BRANCH  21  22
ATOM     22  N   UNL     1      -1.589   2.850   4.242  0.00  0.00    -0.269 N 
ATOM     23  C   UNL     1      -2.498   3.277   5.143  0.00  0.00    +0.108 A 
ATOM     24  C   UNL     1      -3.728   2.992   4.656  0.00  0.00    +0.041 A 
ATOM     25  C   UNL     1      -3.565   2.370   3.413  0.00  0.00    +0.134 A 
ATOM     26  N   UNL     1      -2.283   2.290   3.162  0.00  0.00    -0.180 NA
ENDBRANCH  21  22
ENDBRANCH  14  21
ENDBRANCH  12  14
ENDBRANCH   7  12
BRANCH   9  27
ATOM     27  C   UNL     1       0.959  -3.362   4.445  0.00  0.00    +0.057 C 
BRANCH  27  28
ATOM     28  C   UNL     1      -0.297  -3.746   5.230  0.00  0.00    -0.079 C 
BRANCH  28  29
ATOM     29  N   UNL     1       0.070  -4.649   6.330  0.00  0.00    +0.378 N 
ATOM     30  H   UNL     1       0.499  -5.481   5.953  0.00  0.00    -0.090 HD
ATOM     31  H   UNL     1       0.721  -4.184   6.944  0.00  0.00    -0.090 HD
ATOM     32  H   UNL     1      -0.758  -4.903   6.847  0.00  0.00    -0.090 HD
ENDBRANCH  28  29
ENDBRANCH  27  28
ENDBRANCH   9  27
TORSDOF 8
