REMARK  Name = ZINC39315565
REMARK  3 active torsions:
REMARK  status: ('A' for Active; 'I' for Inactive)
REMARK    1  A    between atoms: C_3  and  C_8
REMARK    2  A    between atoms: C_20  and  N_24
REMARK    3  A    between atoms: C_21  and  C_22
REMARK                            x       y       z     vdW  Elec       q    Type
REMARK                         _______ _______ _______ _____ _____    ______ ____
ROOT
ATOM      1  C   UNL     1       3.672   2.183  -0.022  0.00  0.00    +0.085 C 
ATOM      2  C   UNL     1       4.470   1.830  -1.284  0.00  0.00    +0.171 C 
ATOM      3  C   UNL     1       3.882   2.535  -2.471  0.00  0.00    +0.233 C 
ATOM      4  O   UNL     1       2.725   2.328  -2.769  0.00  0.00    -0.274 OA
ATOM      5  N   UNL     1       4.607   3.388  -3.211  0.00  0.00    -0.238 N 
ATOM      6  C   UNL     1       5.889   3.656  -2.915  0.00  0.00    +0.332 C 
ATOM      7  O   UNL     1       6.516   4.416  -3.628  0.00  0.00    -0.250 OA
ATOM      8  N   UNL     1       6.494   3.106  -1.852  0.00  0.00    -0.131 NA
ATOM      9  C   UNL     1       5.898   2.265  -1.058  0.00  0.00    +0.204 C 
ATOM     10  O   UNL     1       6.536   1.752   0.018  0.00  0.00    -0.428 OA
ATOM     11  C   UNL     1       5.817   1.643   1.157  0.00  0.00    +0.200 C 
ATOM     12  C   UNL     1       4.479   1.824   1.196  0.00  0.00    +0.095 C 
ATOM     13  H   UNL     1       4.196   3.821  -3.976  0.00  0.00    +0.159 HD
ENDROOT
BRANCH   1  16
ATOM     14  C   UNL     1      -0.017   1.378   0.010  0.00  0.00    +0.001 A 
ATOM     15  C   UNL     1       1.171   2.086   0.002  0.00  0.00    +0.004 A 
ATOM     16  C   UNL     1       2.378   1.411  -0.013  0.00  0.00    -0.037 A 
ATOM     17  C   UNL     1       2.397   0.029  -0.022  0.00  0.00    +0.019 A 
ATOM     18  C   UNL     1       1.210  -0.679  -0.014  0.00  0.00    +0.018 A 
ATOM     19  C   UNL     1       0.002  -0.004   0.002  0.00  0.00    +0.015 A 
ATOM     20 BR   UNL     1       1.236  -2.570  -0.025  0.00  0.00    -0.050 Br
ENDBRANCH   1  16
BRANCH  11  21
ATOM     21  N   UNL     1       6.474   1.338   2.323  0.00  0.00    -0.328 N 
ATOM     22  H   UNL     1       7.435   1.204   2.318  0.00  0.00    +0.145 HD
ATOM     23  H   UNL     1       5.977   1.255   3.152  0.00  0.00    +0.145 HD
ENDBRANCH  11  21
BRANCH  12  24
ATOM     24  C   UNL     1       3.801   1.666   2.447  0.00  0.00    +0.100 C 
ATOM     25  N   UNL     1       3.263   1.541   3.439  0.00  0.00    -0.191 NA
ENDBRANCH  12  24
TORSDOF 3
