REMARK  Name = ZINC12880953
REMARK  7 active torsions:
REMARK  status: ('A' for Active; 'I' for Inactive)
REMARK    1  A    between atoms: C_1  and  C_2
REMARK    2  A    between atoms: C_16  and  C_18
REMARK    3  A    between atoms: C_18  and  C_20
REMARK    4  A    between atoms: C_18  and  O_21
REMARK    5  A    between atoms: N_24  and  C_27
REMARK    6  A    between atoms: C_27  and  C_28
REMARK    7  A    between atoms: C_28  and  C_29
REMARK                            x       y       z     vdW  Elec       q    Type
REMARK                         _______ _______ _______ _____ _____    ______ ____
ROOT
ATOM      1  C   UNL     1       5.194   3.238   4.174  0.00  0.00    +0.046 C 
ATOM      2  C   UNL     1       4.019   2.376   3.791  0.00  0.00    -0.028 A 
ATOM      3  C   UNL     1       3.761   1.215   4.492  0.00  0.00    +0.025 A 
ATOM      4  C   UNL     1       2.684   0.417   4.148  0.00  0.00    +0.042 A 
ATOM      5  C   UNL     1       1.862   0.784   3.096  0.00  0.00    +0.024 A 
ATOM      6  C   UNL     1       2.116   1.942   2.395  0.00  0.00    -0.026 A 
ATOM      7  C   UNL     1       3.196   2.753   2.733  0.00  0.00    +0.039 A 
ATOM      8  N   UNL     1       3.249   3.864   1.887  0.00  0.00    -0.286 N 
ATOM      9  C   UNL     1       2.254   3.859   0.979  0.00  0.00    +0.211 C 
ATOM     10  O   UNL     1       2.051   4.693   0.123  0.00  0.00    -0.277 OA
ATOM     11  C   UNL     1       1.445   2.616   1.233  0.00  0.00    +0.050 C 
ATOM     12  C   UNL     1       1.412   1.708  -0.002  0.00  0.00    +0.088 C 
ATOM     13  C   UNL     1      -0.013   1.086   0.008  0.00  0.00    +0.075 C 
ATOM     14  C   UNL     1      -0.689   1.663   1.270  0.00  0.00    -0.028 C 
ATOM     15  C   UNL     1      -0.656   1.666  -1.231  0.00  0.00    +0.224 C 
ATOM     16  O   UNL     1      -1.789   1.445  -1.601  0.00  0.00    -0.275 OA
ATOM     17  N   UNL     1       0.220   2.462  -1.856  0.00  0.00    -0.241 N 
ATOM     18  C   UNL     1       1.411   2.556  -1.255  0.00  0.00    +0.225 C 
ATOM     19  O   UNL     1       2.346   3.218  -1.652  0.00  0.00    -0.275 OA
ATOM     20 CL   UNL     1       2.365  -1.042   5.034  0.00  0.00    -0.084 Cl
ATOM     21  H   UNL     1       3.923   4.559   1.948  0.00  0.00    +0.155 HD
ATOM     22  N   UNL     1       0.053   2.907   1.522  0.00  0.00    +0.396 N 
ATOM     23  H   UNL     1      -0.289   3.655   0.908  0.00  0.00    -0.083 HD
ATOM     24  H   UNL     1      -0.055   3.192   2.503  0.00  0.00    -0.083 HD
ENDROOT
BRANCH  14  25
ATOM     25  C   UNL     1      -2.165   1.955   0.996  0.00  0.00    +0.098 C 
ATOM     26  C   UNL     1      -2.815   2.526   2.259  0.00  0.00    +0.036 C 
BRANCH  25  27
ATOM     27  O   UNL     1      -2.829   0.746   0.624  0.00  0.00    -0.394 OA
ATOM     28  H   UNL     1      -2.795   0.054   1.299  0.00  0.00    +0.210 HD
ENDBRANCH  25  27
ENDBRANCH  14  25
BRANCH  17  29
ATOM     29  C   UNL     1      -0.100   3.172  -3.097  0.00  0.00    +0.121 C 
BRANCH  29  30
ATOM     30  C   UNL     1       0.264   2.293  -4.295  0.00  0.00    +0.054 C 
BRANCH  30  31
ATOM     31  C   UNL     1      -0.065   3.023  -5.572  0.00  0.00    -0.046 A 
ATOM     32  C   UNL     1      -1.314   2.881  -6.147  0.00  0.00    +0.004 A 
ATOM     33  C   UNL     1      -1.617   3.554  -7.316  0.00  0.00    +0.000 A 
ATOM     34  C   UNL     1      -0.668   4.362  -7.914  0.00  0.00    +0.000 A 
ATOM     35  C   UNL     1       0.582   4.500  -7.341  0.00  0.00    +0.000 A 
ATOM     36  C   UNL     1       0.884   3.831  -6.170  0.00  0.00    +0.004 A 
ENDBRANCH  30  31
ENDBRANCH  29  30
ENDBRANCH  17  29
TORSDOF 5
