REMARK  Name = ZINC63182777
REMARK  11 active torsions:
REMARK  status: ('A' for Active; 'I' for Inactive)
REMARK    1  A    between atoms: C_1  and  C_2
REMARK    2  A    between atoms: C_2  and  C_3
REMARK    3  A    between atoms: C_3  and  C_4
REMARK    4  A    between atoms: C_4  and  C_5
REMARK    5  A    between atoms: C_8  and  N_11
REMARK    6  A    between atoms: N_11  and  S_12
REMARK    7  A    between atoms: S_12  and  C_15
REMARK    8  A    between atoms: C_18  and  C_34
REMARK    9  A    between atoms: C_19  and  C_21
REMARK   10  A    between atoms: N_23  and  N_24
REMARK   11  A    between atoms: C_29  and  C_33
REMARK                            x       y       z     vdW  Elec       q    Type
REMARK                         _______ _______ _______ _____ _____    ______ ____
ROOT
ATOM      1  C   UNL     1      -7.111  -3.681  -2.663  0.00  0.00    +0.109 A 
ATOM      2  C   UNL     1      -6.354  -2.910  -3.527  0.00  0.00    +0.029 A 
ATOM      3  C   UNL     1      -6.020  -3.389  -4.781  0.00  0.00    +0.006 A 
ATOM      4  C   UNL     1      -6.439  -4.643  -5.177  0.00  0.00    -0.038 A 
ATOM      5  C   UNL     1      -7.202  -5.426  -4.311  0.00  0.00    +0.043 A 
ATOM      6  C   UNL     1      -7.532  -4.938  -3.045  0.00  0.00    +0.042 A 
ATOM      7  C   UNL     1      -6.075  -5.164  -6.544  0.00  0.00    +0.044 C 
ENDROOT
BRANCH   5   8
ATOM      8  C   UNL     1      -7.655  -6.770  -4.729  0.00  0.00    +0.260 C 
ATOM      9  O   UNL     1      -7.282  -7.235  -5.788  0.00  0.00    -0.269 OA
ATOM     10  N   UNL     1      -8.483  -7.479  -3.936  0.00  0.00    -0.230 N 
ATOM     11  H   UNL     1      -8.781  -7.109  -3.091  0.00  0.00    +0.173 HD
BRANCH  10  12
ATOM     12  N   UNL     1      -8.912  -8.753  -4.333  0.00  0.00    -0.235 N 
ATOM     13  C   UNL     1      -9.749  -9.470  -3.531  0.00  0.00    +0.218 C 
ATOM     14  N   UNL     1     -10.132  -8.926  -2.397  0.00  0.00    -0.145 NA
ATOM     15  C   UNL     1     -10.956  -9.588  -1.569  0.00  0.00    +0.265 C 
ATOM     16  O   UNL     1     -11.324  -9.106  -0.517  0.00  0.00    -0.271 OA
ATOM     17  C   UNL     1     -11.405 -10.967  -2.013  0.00  0.00    +0.210 C 
ATOM     18  N   UNL     1     -10.892 -11.441  -3.309  0.00  0.00    -0.197 NA
ATOM     19  N   UNL     1     -10.140 -10.703  -3.958  0.00  0.00    -0.253 N 
ATOM     20  C   UNL     1     -10.981 -11.972  -0.940  0.00  0.00    +0.044 C 
ATOM     21  H   UNL     1      -8.614  -9.124  -5.178  0.00  0.00    +0.173 HD
ATOM     22  H   UNL     1      -9.808 -11.020  -4.812  0.00  0.00    +0.191 HD
ENDBRANCH  10  12
ENDBRANCH   5   8
BRANCH   1  23
ATOM     23  S   UNL     1      -7.531  -3.061  -1.069  0.00  0.00    +0.072 S 
ATOM     24  O   UNL     1      -8.620  -3.844  -0.602  0.00  0.00    -0.150 OA
ATOM     25  O   UNL     1      -7.606  -1.647  -1.190  0.00  0.00    -0.150 OA
BRANCH  23  26
ATOM     26  N   UNL     1      -6.253  -3.382  -0.066  0.00  0.00    -0.216 N 
ATOM     27  H   UNL     1      -5.760  -2.652   0.342  0.00  0.00    +0.174 HD
BRANCH  26  31
ATOM     28  C   UNL     1      -5.153  -7.322   0.709  0.00  0.00    -0.047 A 
ATOM     29  C   UNL     1      -4.185  -6.383   0.407  0.00  0.00    +0.005 A 
ATOM     30  C   UNL     1      -4.546  -5.075   0.149  0.00  0.00    +0.025 A 
ATOM     31  C   UNL     1      -5.884  -4.704   0.194  0.00  0.00    +0.048 A 
ATOM     32  C   UNL     1      -6.854  -5.650   0.498  0.00  0.00    +0.025 A 
ATOM     33  C   UNL     1      -6.487  -6.958   0.749  0.00  0.00    +0.005 A 
BRANCH  28  34
ATOM     34  C   UNL     1      -4.755  -8.749   0.990  0.00  0.00    +0.035 C 
BRANCH  34  35
ATOM     35  C   UNL     1      -4.748  -9.543  -0.318  0.00  0.00    +0.004 C 
BRANCH  35  37
ATOM     36  C   UNL     1      -4.336 -11.785  -1.341  0.00  0.00    +0.004 C 
ATOM     37  C   UNL     1      -4.344 -10.991  -0.033  0.00  0.00    -0.003 C 
ENDBRANCH  35  37
ENDBRANCH  34  35
ENDBRANCH  28  34
ENDBRANCH  26  31
ENDBRANCH  23  26
ENDBRANCH   1  23
TORSDOF 8
