REMARK  Name = ZINC56206605
REMARK  10 active torsions:
REMARK  status: ('A' for Active; 'I' for Inactive)
REMARK    1  A    between atoms: C_1  and  C_2
REMARK    2  A    between atoms: C_5  and  N_9
REMARK    3  A    between atoms: C_10  and  C_12
REMARK    4  A    between atoms: C_12  and  C_14
REMARK    5  A    between atoms: C_12  and  N_15
REMARK    6  A    between atoms: N_15  and  C_16
REMARK    7  A    between atoms: C_19  and  O_23
REMARK    8  A    between atoms: C_21  and  C_22
REMARK    9  A    between atoms: O_23  and  C_24
REMARK   10  A    between atoms: C_24  and  C_25
REMARK                            x       y       z     vdW  Elec       q    Type
REMARK                         _______ _______ _______ _____ _____    ______ ____
ROOT
ATOM      1  N   UNL     1       0.421  -6.847   2.493  0.00  0.00    -0.333 N 
ATOM      2  H   UNL     1       0.053  -6.330   3.226  0.00  0.00    +0.147 HD
ENDROOT
BRANCH   1   3
ATOM      3  C   UNL     1       1.058  -8.067   2.747  0.00  0.00    +0.031 A 
ATOM      4  C   UNL     1       1.589  -8.805   1.697  0.00  0.00    +0.027 A 
ATOM      5  C   UNL     1       2.218 -10.009   1.949  0.00  0.00    +0.047 A 
ATOM      6  C   UNL     1       2.317 -10.481   3.249  0.00  0.00    +0.122 A 
ATOM      7  C   UNL     1       1.786  -9.745   4.298  0.00  0.00    +0.050 A 
ATOM      8  C   UNL     1       1.163  -8.538   4.048  0.00  0.00    -0.026 A 
ATOM      9  C   UNL     1       0.591  -7.735   5.189  0.00  0.00    +0.046 C 
BRANCH   6  10
ATOM     10  O   UNL     1       2.936 -11.667   3.496  0.00  0.00    -0.483 OA
BRANCH  10  11
ATOM     11  C   UNL     1       3.460 -12.372   2.369  0.00  0.00    +0.324 C 
BRANCH  11  12
ATOM     12  C   UNL     1       4.104 -13.653   2.833  0.00  0.00    +0.248 C 
ATOM     13  O   UNL     1       4.114 -13.934   4.013  0.00  0.00    -0.272 OA
ATOM     14  N   UNL     1       4.669 -14.486   1.938  0.00  0.00    -0.327 N 
ATOM     15  H   UNL     1       4.662 -14.262   0.994  0.00  0.00    +0.145 HD
ATOM     16  H   UNL     1       5.084 -15.311   2.236  0.00  0.00    +0.145 HD
ENDBRANCH  11  12
ENDBRANCH  10  11
ENDBRANCH   6  10
ENDBRANCH   1   3
BRANCH   1  17
ATOM     17  C   UNL     1       0.310  -6.351   1.119  0.00  0.00    +0.154 C 
ATOM     18  C   UNL     1      -0.922  -6.965   0.452  0.00  0.00    +0.038 C 
BRANCH  17  20
ATOM     19  N   UNL     1       0.059  -4.170  -0.022  0.00  0.00    -0.284 N 
ATOM     20  C   UNL     1       0.176  -4.850   1.136  0.00  0.00    +0.237 C 
ATOM     21  O   UNL     1       0.174  -4.254   2.192  0.00  0.00    -0.273 OA
ATOM     22  H   UNL     1      -0.015  -4.651  -0.861  0.00  0.00    +0.155 HD
BRANCH  19  27
ATOM     23  C   UNL     1       0.008   1.503   0.012  0.00  0.00    +0.045 C 
ATOM     24  C   UNL     1       0.022  -0.004   0.003  0.00  0.00    -0.032 A 
ATOM     25  C   UNL     1       0.777  -0.693   0.934  0.00  0.00    +0.006 A 
ATOM     26  C   UNL     1       0.792  -2.074   0.928  0.00  0.00    +0.023 A 
ATOM     27  C   UNL     1       0.046  -2.771  -0.014  0.00  0.00    +0.035 A 
ATOM     28  C   UNL     1      -0.712  -2.078  -0.948  0.00  0.00    +0.043 A 
ATOM     29  C   UNL     1      -0.726  -0.695  -0.934  0.00  0.00    +0.046 A 
ATOM     30 CL   UNL     1      -1.679   0.174  -2.096  0.00  0.00    -0.083 Cl
ENDBRANCH  19  27
ENDBRANCH  17  20
ENDBRANCH   1  17
TORSDOF 7
