REMARK  Name = ZINC67272055
REMARK  6 active torsions:
REMARK  status: ('A' for Active; 'I' for Inactive)
REMARK    1  A    between atoms: C_1  and  C_2
REMARK    2  A    between atoms: C_2  and  C_3
REMARK    3  A    between atoms: C_3  and  C_4
REMARK    4  A    between atoms: C_4  and  N_5
REMARK    5  A    between atoms: C_6  and  C_8
REMARK    6  A    between atoms: C_15  and  C_17
REMARK                            x       y       z     vdW  Elec       q    Type
REMARK                         _______ _______ _______ _____ _____    ______ ____
ROOT
ATOM      1  C   UNL     1       3.277  -4.058  -3.660  0.00  0.00    +0.092 C 
ATOM      2  C   UNL     1       3.036  -3.157  -4.874  0.00  0.00    +0.016 C 
ATOM      3  C   UNL     1       3.757  -3.736  -6.093  0.00  0.00    +0.020 C 
ATOM      4  C   UNL     1       3.193  -5.126  -6.403  0.00  0.00    +0.108 C 
ATOM      5  N   UNL     1       3.289  -5.956  -5.194  0.00  0.00    -0.301 N 
ATOM      6  C   UNL     1       2.708  -5.451  -3.942  0.00  0.00    +0.120 C 
ATOM      7  C   UNL     1       3.899  -7.157  -5.232  0.00  0.00    +0.219 C 
ATOM      8  O   UNL     1       4.042  -7.797  -4.212  0.00  0.00    -0.275 OA
ENDROOT
BRANCH   7   9
ATOM      9  C   UNL     1       4.403  -7.705  -6.542  0.00  0.00    +0.075 C 
ATOM     10  C   UNL     1       3.246  -8.360  -7.300  0.00  0.00    +0.015 C 
ATOM     11  C   UNL     1       3.757  -8.906  -8.635  0.00  0.00    +0.036 C 
ATOM     12  C   UNL     1       4.861  -9.926  -8.380  0.00  0.00    +0.112 C 
ATOM     13  C   UNL     1       6.013  -9.292  -7.606  0.00  0.00    +0.036 C 
ATOM     14  C   UNL     1       5.494  -8.744  -6.274  0.00  0.00    +0.015 C 
ATOM     15  C   UNL     1       5.357 -10.505  -9.684  0.00  0.00    +0.244 C 
ATOM     16  O   UNL     1       5.878  -9.908 -10.602  0.00  0.00    -0.273 OA
ATOM     17  N   UNL     1       5.099 -11.828  -9.613  0.00  0.00    -0.238 N 
ATOM     18  C   UNL     1       4.515 -12.154  -8.454  0.00  0.00    +0.307 C 
ATOM     19  O   UNL     1       4.187 -13.286  -8.157  0.00  0.00    -0.252 OA
ATOM     20  N   UNL     1       4.332 -11.087  -7.652  0.00  0.00    -0.285 N 
ATOM     21  H   UNL     1       5.310 -12.463 -10.315  0.00  0.00    +0.159 HD
ATOM     22  H   UNL     1       3.929 -11.085  -6.770  0.00  0.00    +0.151 HD
ENDBRANCH   7   9
BRANCH   1  24
ATOM     23  N   UNL     1       2.934  -2.240  -2.018  0.00  0.00    -0.315 N 
ATOM     24  C   UNL     1       2.593  -3.469  -2.454  0.00  0.00    +0.218 C 
ATOM     25  O   UNL     1       1.735  -4.101  -1.874  0.00  0.00    -0.275 OA
ATOM     26  H   UNL     1       3.620  -1.734  -2.481  0.00  0.00    +0.149 HD
BRANCH  23  27
ATOM     27  C   UNL     1       2.269  -1.668  -0.845  0.00  0.00    +0.104 C 
BRANCH  27  28
ATOM     28  C   UNL     1       2.837  -0.275  -0.565  0.00  0.00    +0.018 C 
BRANCH  28  30
ATOM     29  C   UNL     1       2.710   1.715   0.941  0.00  0.00    +0.004 C 
ATOM     30  C   UNL     1       2.142   0.322   0.661  0.00  0.00    -0.002 C 
ENDBRANCH  28  30
ENDBRANCH  27  28
ENDBRANCH  23  27
ENDBRANCH   1  24
TORSDOF 5
