REMARK  Name = ZINC07350844
REMARK  5 active torsions:
REMARK  status: ('A' for Active; 'I' for Inactive)
REMARK    1  A    between atoms: C_1  and  N_2
REMARK    2  A    between atoms: N_2  and  C_3
REMARK    3  A    between atoms: N_2  and  N_9
REMARK    4  A    between atoms: C_10  and  C_11
REMARK    5  A    between atoms: C_16  and  O_17
REMARK                            x       y       z     vdW  Elec       q    Type
REMARK                         _______ _______ _______ _____ _____    ______ ____
ROOT
ATOM      1  N   UNL     1       0.000  -0.698  -1.215  0.00  0.00    -0.187 NA
ATOM      2  C   UNL     1      -0.019  -0.043  -2.336  0.00  0.00    +0.142 C 
ENDROOT
BRANCH   2   3
ATOM      3  C   UNL     1      -0.022  -0.773  -3.616  0.00  0.00    +0.039 A 
ATOM      4  C   UNL     1      -0.037  -0.071  -4.824  0.00  0.00    +0.033 A 
ATOM      5  C   UNL     1      -0.038  -0.761  -6.020  0.00  0.00    +0.043 A 
ATOM      6  C   UNL     1      -0.025  -2.146  -6.027  0.00  0.00    +0.043 A 
ATOM      7  C   UNL     1      -0.010  -2.851  -4.837  0.00  0.00    +0.084 A 
ATOM      8  C   UNL     1      -0.003  -2.174  -3.628  0.00  0.00    +0.144 A 
ATOM      9 CL   UNL     1       0.006  -4.587  -4.858  0.00  0.00    -0.080 Cl
ATOM     10 CL   UNL     1      -0.058   0.112  -7.521  0.00  0.00    -0.083 Cl
BRANCH   8  11
ATOM     11  O   UNL     1       0.017  -2.865  -2.459  0.00  0.00    -0.505 OA
ATOM     12  H   UNL     1      -0.860  -3.078  -2.112  0.00  0.00    +0.292 HD
ENDBRANCH   8  11
ENDBRANCH   2   3
BRANCH   1  14
ATOM     13  C   UNL     1      -0.018   1.461   0.010  0.00  0.00    +0.158 C 
ATOM     14  N   UNL     1       0.002  -0.004   0.002  0.00  0.00    -0.228 N 
BRANCH  14  15
ATOM     15  C   UNL     1       0.023  -0.708   1.206  0.00  0.00    +0.051 A 
ATOM     16  C   UNL     1       0.019  -0.021   2.415  0.00  0.00    +0.025 A 
ATOM     17  C   UNL     1       0.040  -0.722   3.605  0.00  0.00    +0.002 A 
ATOM     18  C   UNL     1       0.065  -2.104   3.595  0.00  0.00    +0.000 A 
ATOM     19  C   UNL     1       0.069  -2.791   2.394  0.00  0.00    +0.002 A 
ATOM     20  C   UNL     1       0.042  -2.098   1.201  0.00  0.00    +0.025 A 
ENDBRANCH  14  15
ENDBRANCH   1  14
TORSDOF 4
