REMARK  Name = ZINC44250944
REMARK  5 active torsions:
REMARK  status: ('A' for Active; 'I' for Inactive)
REMARK    1  A    between atoms: C_2  and  C_10
REMARK    2  A    between atoms: C_5  and  O_8
REMARK    3  A    between atoms: C_10  and  C_12
REMARK    4  A    between atoms: C_10  and  N_16
REMARK    5  A    between atoms: C_12  and  C_13
REMARK                            x       y       z     vdW  Elec       q    Type
REMARK                         _______ _______ _______ _____ _____    ______ ____
ROOT
ATOM      1  C   UNL     1       1.147   3.594   0.010  0.00  0.00    -0.035 C 
ENDROOT
BRANCH   1   3
ATOM      2  C   UNL     1      -0.017   1.378   0.010  0.00  0.00    +0.021 A 
ATOM      3  C   UNL     1       1.170   2.087   0.002  0.00  0.00    -0.059 A 
ATOM      4  C   UNL     1       2.379   1.416  -0.013  0.00  0.00    +0.021 A 
ATOM      5  C   UNL     1       2.404   0.034  -0.021  0.00  0.00    +0.061 A 
ATOM      6  C   UNL     1       1.214  -0.680  -0.013  0.00  0.00    +0.145 A 
ATOM      7  C   UNL     1       0.002  -0.004   0.002  0.00  0.00    +0.061 A 
ATOM      8 BR   UNL     1      -1.622  -0.973   0.013  0.00  0.00    -0.046 Br
ATOM      9 BR   UNL     1       4.058  -0.883  -0.043  0.00  0.00    -0.046 Br
BRANCH   6  10
ATOM     10  O   UNL     1       1.235  -2.039  -0.022  0.00  0.00    -0.505 OA
ATOM     11  H   UNL     1       1.250  -2.438   0.859  0.00  0.00    +0.292 HD
ENDBRANCH   6  10
ENDBRANCH   1   3
BRANCH   1  12
ATOM     12  N   UNL     1       2.192   4.105  -0.888  0.00  0.00    +0.383 N 
ATOM     13  H   UNL     1       3.094   3.781  -0.572  0.00  0.00    -0.089 HD
ATOM     14  H   UNL     1       2.023   3.770  -1.825  0.00  0.00    -0.089 HD
ATOM     15  H   UNL     1       2.176   5.113  -0.882  0.00  0.00    -0.089 HD
ENDBRANCH   1  12
BRANCH   1  16
ATOM     16  C   UNL     1       1.402   4.101   1.431  0.00  0.00    +0.084 C 
BRANCH  16  17
ATOM     17  C   UNL     1       1.257   5.600   1.463  0.00  0.00    +0.209 C 
ATOM     18  O   UNL     1       0.977   6.204   0.449  0.00  0.00    -0.276 OA
ATOM     19  N   UNL     1       1.439   6.270   2.618  0.00  0.00    -0.329 N 
ATOM     20  H   UNL     1       1.663   5.787   3.429  0.00  0.00    +0.145 HD
ATOM     21  H   UNL     1       1.346   7.236   2.639  0.00  0.00    +0.145 HD
ENDBRANCH  16  17
ENDBRANCH   1  16
TORSDOF 5
