REMARK  Name = ZINC15924292
REMARK  5 active torsions:
REMARK  status: ('A' for Active; 'I' for Inactive)
REMARK    1  A    between atoms: C_1  and  O_2
REMARK    2  A    between atoms: O_2  and  C_3
REMARK    3  A    between atoms: C_3  and  C_4
REMARK    4  A    between atoms: C_8  and  N_10
REMARK    5  A    between atoms: N_13  and  C_14
REMARK                            x       y       z     vdW  Elec       q    Type
REMARK                         _______ _______ _______ _____ _____    ______ ____
ROOT
ATOM      1  N   UNL     1       1.352  -5.090  -3.210  0.00  0.00    -0.179 NA
ATOM      2  C   UNL     1       1.766  -6.272  -2.788  0.00  0.00    +0.203 C 
ATOM      3  N   UNL     1       1.308  -6.774  -1.603  0.00  0.00    -0.369 N 
ATOM      4  N   UNL     1       2.653  -6.993  -3.539  0.00  0.00    -0.326 N 
ATOM      5  H   UNL     1       1.118  -7.721  -1.519  0.00  0.00    +0.159 HD
ATOM      6  H   UNL     1       2.893  -7.894  -3.273  0.00  0.00    +0.169 HD
ATOM      7  H   UNL     1       1.173  -6.183  -0.846  0.00  0.00    +0.159 HD
ENDROOT
BRANCH   1  12
ATOM      8  C   UNL     1      -0.907  -2.478  -2.225  0.00  0.00    +0.050 A 
ATOM      9  C   UNL     1      -1.538  -3.075  -1.192  0.00  0.00    +0.095 A 
ATOM     10  C   UNL     1      -1.174  -4.399  -0.834  0.00  0.00    +0.275 A 
ATOM     11  N   UNL     1      -0.217  -5.032  -1.522  0.00  0.00    -0.173 NA
ATOM     12  C   UNL     1       0.394  -4.434  -2.534  0.00  0.00    +0.234 A 
ATOM     13  N   UNL     1       0.060  -3.161  -2.904  0.00  0.00    -0.325 N 
ATOM     14  O   UNL     1      -1.732  -4.959   0.098  0.00  0.00    -0.266 OA
ATOM     15  H   UNL     1       0.515  -2.740  -3.650  0.00  0.00    +0.169 HD
BRANCH   8  16
ATOM     16  C   UNL     1      -1.272  -1.072  -2.628  0.00  0.00    +0.212 C 
BRANCH  16  18
ATOM     17  C   UNL     1      -2.724   0.751  -2.068  0.00  0.00    +0.194 C 
ATOM     18  O   UNL     1      -2.303  -0.582  -1.769  0.00  0.00    -0.377 OA
ENDBRANCH  16  18
ENDBRANCH   8  16
ENDBRANCH   1  12
BRANCH   4  19
ATOM     19  C   UNL     1       3.213  -6.430  -4.691  0.00  0.00    +0.043 A 
ATOM     20  C   UNL     1       3.517  -5.075  -4.727  0.00  0.00    +0.027 A 
ATOM     21  C   UNL     1       4.071  -4.522  -5.865  0.00  0.00    +0.023 A 
ATOM     22  C   UNL     1       4.323  -5.317  -6.969  0.00  0.00    +0.059 A 
ATOM     23  C   UNL     1       4.021  -6.668  -6.937  0.00  0.00    +0.061 A 
ATOM     24  C   UNL     1       3.472  -7.227  -5.798  0.00  0.00    +0.047 A 
ATOM     25 CL   UNL     1       4.339  -7.661  -8.325  0.00  0.00    -0.082 Cl
ATOM     26 CL   UNL     1       5.018  -4.618  -8.399  0.00  0.00    -0.082 Cl
ENDBRANCH   4  19
TORSDOF 4
