REMARK  Name = ZINC40515707
REMARK  8 active torsions:
REMARK  status: ('A' for Active; 'I' for Inactive)
REMARK    1  A    between atoms: C_1  and  C_2
REMARK    2  A    between atoms: C_2  and  C_3
REMARK    3  A    between atoms: C_9  and  O_11
REMARK    4  A    between atoms: O_11  and  C_12
REMARK    5  A    between atoms: C_13  and  C_20
REMARK    6  A    between atoms: C_14  and  C_19
REMARK    7  A    between atoms: C_16  and  C_18
REMARK    8  A    between atoms: N_21  and  O_22
REMARK                            x       y       z     vdW  Elec       q    Type
REMARK                         _______ _______ _______ _____ _____    ______ ____
ROOT
ATOM      1  C   UNL     1       1.318  -3.597   0.508  0.00  0.00    +0.226 A 
ATOM      2  C   UNL     1       2.019  -4.020   1.646  0.00  0.00    +0.082 A 
ATOM      3  C   UNL     1       1.709  -5.262   2.205  0.00  0.00    -0.033 A 
ATOM      4  C   UNL     1       0.719  -6.024   1.607  0.00  0.00    +0.027 A 
ATOM      5  C   UNL     1       0.072  -5.539   0.486  0.00  0.00    +0.042 A 
ATOM      6  N   UNL     1       0.378  -4.360  -0.021  0.00  0.00    -0.218 NA
ATOM      7  C   UNL     1      -1.005  -6.369  -0.164  0.00  0.00    +0.066 C 
ATOM      8  C   UNL     1       2.435  -5.761   3.428  0.00  0.00    +0.045 C 
ENDROOT
BRANCH   2   9
ATOM      9  C   UNL     1       3.068  -3.166   2.244  0.00  0.00    +0.168 C 
ATOM     10  N   UNL     1       2.756  -2.301   3.165  0.00  0.00    -0.071 NA
ATOM     11  N   UNL     1       4.382  -3.287   1.824  0.00  0.00    -0.340 N 
ATOM     12  H   UNL     1       4.614  -3.932   1.138  0.00  0.00    +0.144 HD
ATOM     13  H   UNL     1       5.070  -2.727   2.216  0.00  0.00    +0.144 HD
BRANCH  10  14
ATOM     14  O   UNL     1       3.760  -1.483   3.738  0.00  0.00    -0.408 OA
ATOM     15  H   UNL     1       3.433  -0.873   4.412  0.00  0.00    +0.328 HD
ENDBRANCH  10  14
ENDBRANCH   2   9
BRANCH   1  16
ATOM     16  O   UNL     1       1.603  -2.395  -0.050  0.00  0.00    -0.472 OA
BRANCH  16  22
ATOM     17  C   UNL     1       0.718  -0.497  -1.257  0.00  0.00    +0.030 C 
ATOM     18  C   UNL     1      -0.089  -0.097  -2.493  0.00  0.00    +0.007 C 
ATOM     19  C   UNL     1       0.627  -0.590  -3.752  0.00  0.00    +0.001 C 
ATOM     20  C   UNL     1       0.758  -2.114  -3.700  0.00  0.00    +0.004 C 
ATOM     21  C   UNL     1       1.565  -2.514  -2.464  0.00  0.00    +0.045 C 
ATOM     22  C   UNL     1       0.849  -2.021  -1.205  0.00  0.00    +0.178 C 
BRANCH  17  24
ATOM     23  C   UNL     1      -0.019   1.526   0.010  0.00  0.00    +0.004 C 
ATOM     24  C   UNL     1       0.002  -0.004   0.002  0.00  0.00    +0.004 C 
ENDBRANCH  17  24
ENDBRANCH  16  22
ENDBRANCH   1  16
TORSDOF 5
