REMARK  Name = ZINC00787366
REMARK  12 active torsions:
REMARK  status: ('A' for Active; 'I' for Inactive)
REMARK    1  A    between atoms: C_1  and  C_2
REMARK    2  A    between atoms: C_2  and  C_23
REMARK    3  A    between atoms: C_4  and  N_9
REMARK    4  A    between atoms: C_6  and  C_7
REMARK    5  A    between atoms: C_6  and  C_8
REMARK    6  A    between atoms: N_9  and  C_10
REMARK    7  A    between atoms: C_10  and  N_12
REMARK    8  A    between atoms: N_12  and  C_13
REMARK    9  A    between atoms: C_15  and  O_21
REMARK   10  A    between atoms: C_17  and  O_19
REMARK   11  A    between atoms: O_19  and  C_20
REMARK   12  A    between atoms: O_21  and  C_22
REMARK                            x       y       z     vdW  Elec       q    Type
REMARK                         _______ _______ _______ _____ _____    ______ ____
ROOT
ATOM      1  N   UNL     1      -2.432   4.061   0.239  0.00  0.00    -0.324 N 
ATOM      2  H   UNL     1      -3.264   3.562   0.240  0.00  0.00    +0.148 HD
ENDROOT
BRANCH   1   6
ATOM      3  C   UNL     1      -3.005   8.215  -1.112  0.00  0.00    -0.010 C 
ATOM      4  C   UNL     1      -3.857   7.570  -0.013  0.00  0.00    -0.072 C 
ATOM      5  C   UNL     1      -3.797   6.050  -0.146  0.00  0.00    +0.009 C 
ATOM      6  C   UNL     1      -2.454   5.524   0.358  0.00  0.00    +0.069 C 
ATOM      7  C   UNL     1      -2.300   5.912   1.828  0.00  0.00    +0.009 C 
ATOM      8  C   UNL     1      -2.340   7.430   1.984  0.00  0.00    -0.072 C 
ATOM      9  C   UNL     1      -1.010   8.029   1.511  0.00  0.00    -0.010 C 
ATOM     10  C   UNL     1      -2.470   7.740   3.492  0.00  0.00    -0.010 C 
ATOM     11  C   UNL     1      -5.321   8.001  -0.257  0.00  0.00    -0.010 C 
ATOM     12  N   UNL     1      -3.500   8.096   1.332  0.00  0.00    +0.386 N 
ATOM     13  H   UNL     1      -4.316   7.984   1.945  0.00  0.00    -0.084 HD
ATOM     14  H   UNL     1      -3.279   9.094   1.235  0.00  0.00    -0.084 HD
ENDBRANCH   1   6
BRANCH   1  15
ATOM     15  C   UNL     1      -1.257   3.410   0.128  0.00  0.00    +0.135 C 
ATOM     16  S   UNL     1       0.211   4.291   0.126  0.00  0.00    -0.019 S 
BRANCH  15  17
ATOM     17  N   UNL     1      -1.237   2.067   0.019  0.00  0.00    -0.297 N 
ATOM     18  H   UNL     1      -2.070   1.573  -0.042  0.00  0.00    +0.154 HD
BRANCH  17  19
ATOM     19  C   UNL     1      -0.016   1.385  -0.006  0.00  0.00    +0.040 A 
ATOM     20  C   UNL     1       1.020   1.847  -0.806  0.00  0.00    +0.069 A 
ATOM     21  C   UNL     1       2.229   1.168  -0.835  0.00  0.00    +0.125 A 
ATOM     22  C   UNL     1       2.402   0.027  -0.066  0.00  0.00    +0.091 A 
ATOM     23  C   UNL     1       1.366  -0.435   0.733  0.00  0.00    +0.125 A 
ATOM     24  C   UNL     1       0.158   0.243   0.763  0.00  0.00    +0.069 A 
BRANCH  23  25
ATOM     25  O   UNL     1       1.537  -1.553   1.487  0.00  0.00    -0.495 OA
ATOM     26  C   UNL     1       2.808  -2.202   1.407  0.00  0.00    +0.277 C 
ENDBRANCH  23  25
BRANCH  21  27
ATOM     27  O   UNL     1       3.244   1.620  -1.617  0.00  0.00    -0.495 OA
ATOM     28  C   UNL     1       4.461   0.872  -1.597  0.00  0.00    +0.277 C 
ENDBRANCH  21  27
ENDBRANCH  17  19
ENDBRANCH  15  17
ENDBRANCH   1  15
TORSDOF 6
