REMARK  Name = ZINC58386272
REMARK  5 active torsions:
REMARK  status: ('A' for Active; 'I' for Inactive)
REMARK    1  A    between atoms: C_4  and  N_20
REMARK    2  A    between atoms: C_5  and  N_7
REMARK    3  A    between atoms: C_8  and  C_10
REMARK    4  A    between atoms: C_13  and  N_19
REMARK    5  A    between atoms: C_14  and  N_16
REMARK                            x       y       z     vdW  Elec       q    Type
REMARK                         _______ _______ _______ _____ _____    ______ ____
ROOT
ATOM      1  N   UNL     1       1.332  -1.902  -0.048  0.00  0.00    -0.280 N 
ATOM      2  C   UNL     1       0.314  -2.634   0.447  0.00  0.00    +0.248 C 
ATOM      3  O   UNL     1      -0.689  -2.081   0.857  0.00  0.00    -0.270 OA
ATOM      4  H   UNL     1       2.109  -2.345  -0.423  0.00  0.00    +0.155 HD
ENDROOT
BRANCH   1   9
ATOM      5  C   UNL     1      -0.024   1.516   0.024  0.00  0.00    +0.002 A 
ATOM      6  C   UNL     1       1.140   2.264   0.035  0.00  0.00    +0.002 A 
ATOM      7  C   UNL     1       2.370   1.635   0.019  0.00  0.00    +0.025 A 
ATOM      8  C   UNL     1       2.441   0.250  -0.009  0.00  0.00    +0.056 A 
ATOM      9  C   UNL     1       1.268  -0.504  -0.020  0.00  0.00    +0.055 A 
ATOM     10  C   UNL     1       0.037   0.136  -0.003  0.00  0.00    +0.025 A 
BRANCH   8  11
ATOM     11  N   UNL     1       3.687  -0.390  -0.026  0.00  0.00    -0.268 N 
ATOM     12  C   UNL     1       4.723   0.170  -0.683  0.00  0.00    +0.306 C 
ATOM     13  O   UNL     1       4.599   1.267  -1.191  0.00  0.00    -0.252 OA
ATOM     14  N   UNL     1       5.896  -0.487  -0.775  0.00  0.00    -0.285 N 
ATOM     15  C   UNL     1       6.181  -1.816  -0.215  0.00  0.00    +0.109 C 
ATOM     16  C   UNL     1       7.651  -2.147  -0.545  0.00  0.00    +0.020 C 
ATOM     17  C   UNL     1       8.278  -0.748  -0.780  0.00  0.00    +0.020 C 
ATOM     18  C   UNL     1       7.105   0.006  -1.460  0.00  0.00    +0.109 C 
ATOM     19  H   UNL     1       3.805  -1.236   0.434  0.00  0.00    +0.156 HD
ENDBRANCH   8  11
ENDBRANCH   1   9
BRANCH   2  20
ATOM     20  C   UNL     1       0.415  -4.104   0.492  0.00  0.00    +0.039 A 
ATOM     21  C   UNL     1       1.570  -4.741   0.027  0.00  0.00    +0.015 A 
ATOM     22  C   UNL     1       1.662  -6.113   0.070  0.00  0.00    +0.026 A 
ATOM     23  C   UNL     1       0.607  -6.868   0.577  0.00  0.00    +0.055 A 
ATOM     24  C   UNL     1      -0.544  -6.237   1.040  0.00  0.00    +0.147 A 
ATOM     25  C   UNL     1      -0.640  -4.864   1.005  0.00  0.00    +0.047 A 
BRANCH  24  26
ATOM     26  N   UNL     1      -1.664  -7.042   1.577  0.00  0.00    +0.058 N 
ATOM     27  O   UNL     1      -2.805  -6.695   1.384  0.00  0.00    -0.126 OA
ATOM     28  O   UNL     1      -1.437  -8.048   2.208  0.00  0.00    -0.126 OA
ENDBRANCH  24  26
BRANCH  23  29
ATOM     29  N   UNL     1       0.703  -8.254   0.618  0.00  0.00    -0.356 N 
ATOM     30  H   UNL     1       1.473  -8.699   0.232  0.00  0.00    +0.142 HD
ATOM     31  H   UNL     1      -0.001  -8.777   1.034  0.00  0.00    +0.142 HD
ENDBRANCH  23  29
ENDBRANCH   2  20
TORSDOF 5
