REMARK  Name = ZINC62384075
REMARK  10 active torsions:
REMARK  status: ('A' for Active; 'I' for Inactive)
REMARK    1  A    between atoms: C_1  and  C_2
REMARK    2  A    between atoms: N_7  and  C_9
REMARK    3  A    between atoms: C_9  and  C_10
REMARK    4  A    between atoms: C_11  and  O_24
REMARK    5  A    between atoms: C_15  and  C_22
REMARK    6  A    between atoms: N_16  and  C_17
REMARK    7  A    between atoms: C_17  and  C_18
REMARK    8  A    between atoms: C_18  and  C_20
REMARK    9  A    between atoms: C_18  and  O_21
REMARK   10  A    between atoms: C_22  and  O_23
REMARK                            x       y       z     vdW  Elec       q    Type
REMARK                         _______ _______ _______ _____ _____    ______ ____
ROOT
ATOM      1  C   UNL     1       1.937  -4.439   1.810  0.00  0.00    +0.048 A 
ATOM      2  C   UNL     1       3.108  -5.022   1.463  0.00  0.00    +0.181 A 
ATOM      3  C   UNL     1       3.138  -6.417   1.208  0.00  0.00    +0.223 A 
ATOM      4  O   UNL     1       4.181  -6.972   0.893  0.00  0.00    -0.284 OA
ATOM      5  C   UNL     1       1.937  -7.152   1.327  0.00  0.00    +0.078 A 
ATOM      6  C   UNL     1       0.800  -6.510   1.678  0.00  0.00    +0.048 A 
ATOM      7  N   UNL     1       0.802  -5.178   1.920  0.00  0.00    -0.342 N 
ENDROOT
BRANCH   2   8
ATOM      8  O   UNL     1       4.244  -4.279   1.358  0.00  0.00    -0.502 OA
ATOM      9  H   UNL     1       5.026  -4.789   1.105  0.00  0.00    +0.292 HD
ENDBRANCH   2   8
BRANCH   1  10
ATOM     10  C   UNL     1       1.893  -2.957   2.083  0.00  0.00    -0.021 C 
BRANCH  10  16
ATOM     11  C   UNL     1       1.450   0.446   5.575  0.00  0.00    +0.005 C 
ATOM     12  C   UNL     1       1.591  -1.053   5.303  0.00  0.00    -0.031 C 
ATOM     13  C   UNL     1       2.845  -1.584   6.003  0.00  0.00    -0.001 C 
ATOM     14  C   UNL     1       3.020  -3.067   5.661  0.00  0.00    -0.018 C 
ATOM     15  C   UNL     1       3.091  -3.229   4.141  0.00  0.00    -0.078 C 
ATOM     16  N   UNL     1       1.852  -2.728   3.534  0.00  0.00    +0.384 N 
ATOM     17  C   UNL     1       1.713  -1.291   3.797  0.00  0.00    -0.075 C 
ATOM     18  H   UNL     1       1.063  -3.218   3.928  0.00  0.00    -0.081 HD
ENDBRANCH  10  16
ENDBRANCH   1  10
BRANCH   7  19
ATOM     19  C   UNL     1      -0.448  -4.517   2.304  0.00  0.00    +0.152 C 
BRANCH  19  20
ATOM     20  C   UNL     1      -1.235  -4.144   1.045  0.00  0.00    +0.131 C 
ATOM     21  C   UNL     1      -2.591  -3.559   1.446  0.00  0.00    +0.039 C 
BRANCH  20  22
ATOM     22  O   UNL     1      -0.501  -3.174   0.295  0.00  0.00    -0.390 OA
ATOM     23  H   UNL     1      -0.434  -2.311   0.726  0.00  0.00    +0.210 HD
ENDBRANCH  20  22
ENDBRANCH  19  20
ENDBRANCH   7  19
BRANCH   6  24
ATOM     24  C   UNL     1      -0.485  -7.288   1.806  0.00  0.00    +0.209 C 
BRANCH  24  25
ATOM     25  O   UNL     1      -0.240  -8.665   1.510  0.00  0.00    -0.389 OA
ATOM     26  H   UNL     1      -1.024  -9.226   1.573  0.00  0.00    +0.210 HD
ENDBRANCH  24  25
ENDBRANCH   6  24
TORSDOF 8
