REMARK  Name = ZINC45166466
REMARK  5 active torsions:
REMARK  status: ('A' for Active; 'I' for Inactive)
REMARK    1  A    between atoms: C_1  and  C_2
REMARK    2  A    between atoms: C_6  and  C_21
REMARK    3  A    between atoms: N_9  and  S_10
REMARK    4  A    between atoms: S_10  and  C_13
REMARK    5  A    between atoms: C_14  and  N_20
REMARK                            x       y       z     vdW  Elec       q    Type
REMARK                         _______ _______ _______ _____ _____    ______ ____
ROOT
ATOM      1  S   UNL     1       2.521  -1.635   1.022  0.00  0.00    +0.064 S 
ATOM      2  O   UNL     1       2.699  -2.356   2.233  0.00  0.00    -0.153 OA
ATOM      3  O   UNL     1       2.724  -2.226  -0.254  0.00  0.00    -0.153 OA
ENDROOT
BRANCH   1  10
ATOM      4  C   UNL     1       0.020   0.771  -0.287  0.00  0.00    +0.026 C 
ATOM      5  C   UNL     1       0.278  -0.736  -0.219  0.00  0.00    +0.077 C 
ATOM      6  C   UNL     1      -1.057  -1.487  -0.261  0.00  0.00    +0.021 C 
ATOM      7  C   UNL     1      -1.862  -1.159   0.998  0.00  0.00    +0.015 C 
ATOM      8  C   UNL     1      -1.088  -1.619   2.235  0.00  0.00    +0.090 C 
ATOM      9  C   UNL     1       0.246  -0.870   2.306  0.00  0.00    +0.122 C 
ATOM     10  N   UNL     1       0.967  -1.061   1.037  0.00  0.00    -0.173 NA
BRANCH   8  11
ATOM     11  C   UNL     1      -1.897  -1.326   3.473  0.00  0.00    +0.215 C 
ATOM     12  O   UNL     1      -1.450  -0.592   4.329  0.00  0.00    -0.276 OA
ATOM     13  N   UNL     1      -3.116  -1.879   3.628  0.00  0.00    -0.329 N 
ATOM     14  H   UNL     1      -3.473  -2.466   2.943  0.00  0.00    +0.145 HD
ATOM     15  H   UNL     1      -3.636  -1.690   4.424  0.00  0.00    +0.145 HD
ENDBRANCH   8  11
ENDBRANCH   1  10
BRANCH   1  16
ATOM     16  C   UNL     1       3.592  -0.238   1.107  0.00  0.00    +0.144 A 
ATOM     17  C   UNL     1       3.950   0.434  -0.055  0.00  0.00    +0.053 A 
ATOM     18  C   UNL     1       4.795   1.535   0.016  0.00  0.00    +0.025 A 
ATOM     19  C   UNL     1       5.277   1.957   1.240  0.00  0.00    +0.003 A 
ATOM     20  C   UNL     1       4.919   1.286   2.394  0.00  0.00    +0.022 A 
ATOM     21  C   UNL     1       4.073   0.193   2.329  0.00  0.00    +0.069 A 
ATOM     22 CL   UNL     1       3.620  -0.642   3.782  0.00  0.00    -0.081 Cl
BRANCH  17  23
ATOM     23  N   UNL     1       3.462   0.005  -1.291  0.00  0.00    -0.356 N 
ATOM     24  H   UNL     1       2.709  -0.605  -1.330  0.00  0.00    +0.142 HD
ATOM     25  H   UNL     1       3.877   0.317  -2.111  0.00  0.00    +0.142 HD
ENDBRANCH  17  23
ENDBRANCH   1  16
TORSDOF 4
