REMARK  Name = ZINC05896087
REMARK  3 active torsions:
REMARK  status: ('A' for Active; 'I' for Inactive)
REMARK    1  A    between atoms: C_6  and  C_7
REMARK    2  A    between atoms: C_9  and  C_26
REMARK    3  A    between atoms: C_10  and  N_25
REMARK                            x       y       z     vdW  Elec       q    Type
REMARK                         _______ _______ _______ _____ _____    ______ ____
ROOT
ATOM      1  C   UNL     1      -1.699  -0.920   0.218  0.00  0.00    +0.097 C 
ATOM      2  C   UNL     1      -1.548  -1.628  -1.096  0.00  0.00    +0.077 C 
ATOM      3  C   UNL     1      -0.916  -2.828  -1.178  0.00  0.00    +0.109 C 
ATOM      4  N   UNL     1      -0.407  -3.420  -0.043  0.00  0.00    -0.229 N 
ATOM      5  C   UNL     1      -0.854  -3.044   1.199  0.00  0.00    +0.027 C 
ATOM      6  C   UNL     1      -1.483  -1.864   1.374  0.00  0.00    +0.025 C 
ATOM      7  C   UNL     1      -1.958  -1.479   2.640  0.00  0.00    +0.162 C 
ATOM      8  O   UNL     1      -2.515  -0.407   2.767  0.00  0.00    -0.292 OA
ATOM      9  C   UNL     1      -1.791  -2.370   3.841  0.00  0.00    +0.080 C 
ATOM     10  C   UNL     1      -1.748  -3.830   3.377  0.00  0.00    +0.014 C 
ATOM     11  C   UNL     1      -0.619  -3.980   2.359  0.00  0.00    +0.052 C 
ATOM     12  C   UNL     1       0.566  -4.405  -0.156  0.00  0.00    +0.223 A 
ATOM     13  H   UNL     1       1.145  -4.777   1.808  0.00  0.00    +0.192 HD
ATOM     14  N   UNL     1       0.994  -4.944  -1.276  0.00  0.00    -0.201 NA
ATOM     15  C   UNL     1       1.930  -5.854  -1.008  0.00  0.00    +0.246 A 
ATOM     16  N   UNL     1       2.114  -5.911   0.284  0.00  0.00    -0.160 NA
ATOM     17  N   UNL     1       1.243  -4.974   0.863  0.00  0.00    -0.246 N 
ENDROOT
BRANCH   1  23
ATOM     18  C   UNL     1      -1.114   1.504   0.431  0.00  0.00    +0.005 A 
ATOM     19  C   UNL     1      -0.188   2.528   0.503  0.00  0.00    +0.015 A 
ATOM     20  C   UNL     1       1.164   2.243   0.441  0.00  0.00    +0.018 A 
ATOM     21  C   UNL     1       1.589   0.933   0.307  0.00  0.00    +0.015 A 
ATOM     22  C   UNL     1       0.662  -0.090   0.235  0.00  0.00    +0.005 A 
ATOM     23  C   UNL     1      -0.689   0.196   0.297  0.00  0.00    -0.035 A 
ATOM     24 BR   UNL     1       2.431   3.643   0.539  0.00  0.00    -0.050 Br
ENDBRANCH   1  23
BRANCH   3  25
ATOM     25  N   UNL     1      -0.785  -3.452  -2.395  0.00  0.00    -0.345 N 
ATOM     26  H   UNL     1      -0.939  -2.955  -3.214  0.00  0.00    +0.144 HD
ATOM     27  H   UNL     1      -0.538  -4.389  -2.436  0.00  0.00    +0.144 HD
ENDBRANCH   3  25
BRANCH   2  28
ATOM     28  C   UNL     1      -2.079  -1.030  -2.283  0.00  0.00    +0.099 C 
ATOM     29  N   UNL     1      -2.500  -0.555  -3.225  0.00  0.00    -0.191 NA
ENDBRANCH   2  28
TORSDOF 3
