REMARK  Name = ZINC21142919
REMARK  9 active torsions:
REMARK  status: ('A' for Active; 'I' for Inactive)
REMARK    1  A    between atoms: C_1  and  C_2
REMARK    2  A    between atoms: C_2  and  C_3
REMARK    3  A    between atoms: C_3  and  C_5
REMARK    4  A    between atoms: C_3  and  C_6
REMARK    5  A    between atoms: C_6  and  C_8
REMARK    6  A    between atoms: C_6  and  N_29
REMARK    7  A    between atoms: N_10  and  C_11
REMARK    8  A    between atoms: C_14  and  C_17
REMARK    9  A    between atoms: N_25  and  C_26
REMARK                            x       y       z     vdW  Elec       q    Type
REMARK                         _______ _______ _______ _____ _____    ______ ____
ROOT
ATOM      1  C   UNL     1       1.988   6.823  -0.772  0.00  0.00    +0.033 A 
ATOM      2  C   UNL     1       0.726   6.456  -0.316  0.00  0.00    +0.024 A 
ATOM      3  C   UNL     1       0.459   5.140  -0.009  0.00  0.00    +0.013 A 
ATOM      4  C   UNL     1       1.456   4.174  -0.157  0.00  0.00    +0.018 A 
ATOM      5  C   UNL     1       2.724   4.547  -0.610  0.00  0.00    +0.013 A 
ATOM      6  C   UNL     1       2.983   5.864  -0.920  0.00  0.00    +0.024 A 
ENDROOT
BRANCH   4   7
ATOM      7  C   UNL     1       1.173   2.761   0.171  0.00  0.00    +0.146 A 
ATOM      8  N   UNL     1       1.739   1.726  -0.401  0.00  0.00    -0.227 NA
ATOM      9  C   UNL     1       1.249   0.583   0.138  0.00  0.00    +0.090 A 
ATOM     10  C   UNL     1       1.499  -0.773  -0.094  0.00  0.00    +0.030 A 
ATOM     11  C   UNL     1       0.836  -1.722   0.631  0.00  0.00    +0.002 A 
ATOM     12  C   UNL     1      -0.095  -1.355   1.592  0.00  0.00    +0.002 A 
ATOM     13  C   UNL     1      -0.358  -0.024   1.839  0.00  0.00    +0.028 A 
ATOM     14  C   UNL     1       0.310   0.955   1.116  0.00  0.00    +0.074 A 
ATOM     15  N   UNL     1       0.280   2.336   1.117  0.00  0.00    -0.267 N 
BRANCH  15  16
ATOM     16  C   UNL     1      -0.552   3.187   1.972  0.00  0.00    +0.450 C 
ATOM     17  F   UNL     1      -1.887   3.096   1.562  0.00  0.00    -0.185 F 
ATOM     18  F   UNL     1      -0.442   2.763   3.300  0.00  0.00    -0.185 F 
ENDBRANCH  15  16
ENDBRANCH   4   7
BRANCH   1  21
ATOM     19  C   UNL     1       3.462   8.688  -0.795  0.00  0.00    +0.238 C 
ATOM     20  O   UNL     1       4.341   7.984  -0.345  0.00  0.00    -0.273 OA
ATOM     21  N   UNL     1       2.255   8.159  -1.081  0.00  0.00    -0.284 N 
ATOM     22  H   UNL     1       1.482   8.778  -1.558  0.00  0.00    +0.155 HD
BRANCH  19  23
ATOM     23  C   UNL     1       3.717  10.154  -1.034  0.00  0.00    +0.163 C 
BRANCH  23  24
ATOM     24  N   UNL     1       4.867  10.585  -0.235  0.00  0.00    -0.288 N 
ATOM     25  C   UNL     1       6.091  10.079  -0.488  0.00  0.00    +0.298 C 
ATOM     26  O   UNL     1       6.257   9.336  -1.436  0.00  0.00    -0.253 OA
ATOM     27  N   UNL     1       7.130  10.398   0.309  0.00  0.00    -0.313 N 
ATOM     28  H   UNL     1       4.732  11.322   0.570  0.00  0.00    +0.151 HD
ATOM     29  H   UNL     1       8.128   9.985   0.103  0.00  0.00    +0.146 HD
ATOM     30  H   UNL     1       6.979  11.070   1.167  0.00  0.00    +0.146 HD
ENDBRANCH  23  24
BRANCH  23  31
ATOM     31  C   UNL     1       4.010  10.385  -2.517  0.00  0.00    +0.015 C 
ATOM     32  C   UNL     1       4.391  11.850  -2.739  0.00  0.00    +0.010 C 
BRANCH  31  34
ATOM     33  C   UNL     1       3.094  10.163  -4.831  0.00  0.00    +0.004 C 
ATOM     34  C   UNL     1       2.765  10.052  -3.341  0.00  0.00    +0.002 C 
ENDBRANCH  31  34
ENDBRANCH  23  31
ENDBRANCH  19  23
ENDBRANCH   1  21
TORSDOF 7
