REMARK  Name = ZINC45920477
REMARK  4 active torsions:
REMARK  status: ('A' for Active; 'I' for Inactive)
REMARK    1  A    between atoms: C_4  and  C_7
REMARK    2  A    between atoms: C_15  and  C_17
REMARK    3  A    between atoms: C_20  and  N_24
REMARK    4  A    between atoms: C_22  and  O_23
REMARK                            x       y       z     vdW  Elec       q    Type
REMARK                         _______ _______ _______ _____ _____    ______ ____
ROOT
ATOM      1  C   UNL     1       3.699  -0.689  -0.037  0.00  0.00    -0.015 A 
ATOM      2  C   UNL     1       3.719  -2.077  -0.051  0.00  0.00    +0.040 A 
ATOM      3  C   UNL     1       4.941  -2.750  -0.066  0.00  0.00    +0.112 A 
ATOM      4  C   UNL     1       6.140  -2.018  -0.069  0.00  0.00    +0.170 A 
ATOM      5  C   UNL     1       6.106  -0.631  -0.054  0.00  0.00    +0.063 A 
ATOM      6  C   UNL     1       4.897   0.030  -0.045  0.00  0.00    +0.027 A 
ATOM      7 BR   UNL     1       7.721   0.354  -0.057  0.00  0.00    -0.046 Br
ATOM      8  O   UNL     1       7.141  -2.926  -0.085  0.00  0.00    -0.434 OA
ATOM      9  C   UNL     1       6.592  -4.156  -0.093  0.00  0.00    +0.232 A 
ATOM     10  N   UNL     1       5.285  -4.064  -0.082  0.00  0.00    -0.209 NA
ENDROOT
BRANCH   1  14
ATOM     11  C   UNL     1      -0.017   1.379   0.010  0.00  0.00    +0.000 A 
ATOM     12  C   UNL     1       1.169   2.092   0.002  0.00  0.00    +0.001 A 
ATOM     13  C   UNL     1       2.377   1.426  -0.013  0.00  0.00    +0.008 A 
ATOM     14  C   UNL     1       2.402   0.033  -0.021  0.00  0.00    -0.018 A 
ATOM     15  C   UNL     1       1.205  -0.680  -0.013  0.00  0.00    +0.008 A 
ATOM     16  C   UNL     1       0.002  -0.004   0.002  0.00  0.00    +0.001 A 
ENDBRANCH   1  14
BRANCH   9  17
ATOM     17  C   UNL     1       7.351  -5.421  -0.112  0.00  0.00    +0.078 A 
ATOM     18  C   UNL     1       6.675  -6.644  -0.126  0.00  0.00    +0.019 A 
ATOM     19  C   UNL     1       7.386  -7.823  -0.144  0.00  0.00    +0.027 A 
ATOM     20  C   UNL     1       8.777  -7.801  -0.149  0.00  0.00    +0.052 A 
ATOM     21  C   UNL     1       9.457  -6.592  -0.135  0.00  0.00    +0.072 A 
ATOM     22  C   UNL     1       8.752  -5.401  -0.123  0.00  0.00    +0.131 A 
BRANCH  20  23
ATOM     23  N   UNL     1       9.493  -9.005  -0.167  0.00  0.00    -0.288 N 
ATOM     24  C   UNL     1      10.848  -9.155  -0.168  0.00  0.00    +0.229 A 
ATOM     25  N   UNL     1      11.094 -10.437  -0.187  0.00  0.00    -0.138 NA
ATOM     26  N   UNL     1       9.989 -11.095  -0.198  0.00  0.00    -0.138 NA
ATOM     27  C   UNL     1       8.980 -10.267  -0.181  0.00  0.00    +0.229 A 
ENDBRANCH  20  23
BRANCH  22  28
ATOM     28  O   UNL     1       9.416  -4.217  -0.116  0.00  0.00    -0.506 OA
ATOM     29  H   UNL     1       9.616  -3.883   0.769  0.00  0.00    +0.292 HD
ENDBRANCH  22  28
ENDBRANCH   9  17
TORSDOF 4
