REMARK  Name = ZINC27550429
REMARK  8 active torsions:
REMARK  status: ('A' for Active; 'I' for Inactive)
REMARK    1  A    between atoms: C_1  and  C_2
REMARK    2  A    between atoms: C_4  and  C_9
REMARK    3  A    between atoms: C_5  and  S_7
REMARK    4  A    between atoms: S_7  and  C_8
REMARK    5  A    between atoms: C_11  and  C_32
REMARK    6  A    between atoms: C_12  and  N_31
REMARK    7  A    between atoms: N_13  and  C_21
REMARK    8  A    between atoms: C_24  and  N_28
REMARK                            x       y       z     vdW  Elec       q    Type
REMARK                         _______ _______ _______ _____ _____    ______ ____
ROOT
ATOM      1  C   UNL     1      -2.780   2.375  -2.422  0.00  0.00    +0.099 C 
ATOM      2  C   UNL     1      -4.270   2.199  -2.370  0.00  0.00    +0.077 C 
ATOM      3  C   UNL     1      -4.909   1.970  -1.194  0.00  0.00    +0.107 C 
ATOM      4  N   UNL     1      -4.190   1.887  -0.022  0.00  0.00    -0.259 N 
ATOM      5  C   UNL     1      -2.844   1.633  -0.049  0.00  0.00    +0.025 C 
ATOM      6  C   UNL     1      -2.125   1.846  -1.171  0.00  0.00    +0.025 C 
ATOM      7  C   UNL     1      -0.744   1.586  -1.207  0.00  0.00    +0.162 C 
ATOM      8  O   UNL     1      -0.130   1.768  -2.240  0.00  0.00    -0.292 OA
ATOM      9  C   UNL     1      -0.013   1.086   0.008  0.00  0.00    +0.080 C 
ATOM     10  C   UNL     1      -0.734   1.582   1.266  0.00  0.00    +0.014 C 
ATOM     11  C   UNL     1      -2.190   1.107   1.205  0.00  0.00    +0.052 C 
ENDROOT
BRANCH   4  12
ATOM     12  C   UNL     1      -4.840   2.063   1.205  0.00  0.00    +0.058 A 
ATOM     13  C   UNL     1      -4.937   3.330   1.766  0.00  0.00    +0.027 A 
ATOM     14  C   UNL     1      -5.583   3.501   2.974  0.00  0.00    +0.034 A 
ATOM     15  C   UNL     1      -6.125   2.412   3.632  0.00  0.00    +0.128 A 
ATOM     16  C   UNL     1      -6.026   1.148   3.079  0.00  0.00    +0.054 A 
ATOM     17  C   UNL     1      -5.386   0.970   1.868  0.00  0.00    +0.065 A 
ATOM     18 CL   UNL     1      -5.263  -0.617   1.174  0.00  0.00    -0.082 Cl
BRANCH  15  19
ATOM     19  N   UNL     1      -6.811   2.599   4.930  0.00  0.00    +0.056 N 
ATOM     20  O   UNL     1      -7.288   1.640   5.510  0.00  0.00    -0.126 OA
ATOM     21  O   UNL     1      -6.898   3.711   5.418  0.00  0.00    -0.126 OA
ENDBRANCH  15  19
ENDBRANCH   4  12
BRANCH   1  25
ATOM     22  C   UNL     1      -2.834   7.214  -0.835  0.00  0.00    +0.051 C 
ATOM     23  C   UNL     1      -2.534   6.053  -1.748  0.00  0.00    -0.012 A 
ATOM     24  C   UNL     1      -2.843   4.744  -1.590  0.00  0.00    +0.016 A 
ATOM     25  C   UNL     1      -2.461   3.840  -2.566  0.00  0.00    -0.014 A 
ATOM     26  C   UNL     1      -1.794   4.301  -3.662  0.00  0.00    +0.049 A 
ATOM     27  S   UNL     1      -1.689   6.051  -3.320  0.00  0.00    -0.087 S 
BRANCH  26  28
ATOM     28  S   UNL     1      -1.194   3.405  -5.054  0.00  0.00    -0.121 S 
ATOM     29  C   UNL     1      -0.423   4.675  -6.096  0.00  0.00    +0.090 C 
ENDBRANCH  26  28
ENDBRANCH   1  25
BRANCH   3  30
ATOM     30  N   UNL     1      -6.275   1.820  -1.173  0.00  0.00    -0.345 N 
ATOM     31  H   UNL     1      -6.793   1.635  -0.221  0.00  0.00    +0.144 HD
ATOM     32  H   UNL     1      -6.850   1.886  -2.108  0.00  0.00    +0.144 HD
ENDBRANCH   3  30
BRANCH   2  33
ATOM     33  C   UNL     1      -5.030   2.274  -3.581  0.00  0.00    +0.099 C 
ATOM     34  N   UNL     1      -5.633   2.333  -4.542  0.00  0.00    -0.191 NA
ENDBRANCH   2  33
TORSDOF 6
