REMARK  Name = ZINC35990789
REMARK  13 active torsions:
REMARK  status: ('A' for Active; 'I' for Inactive)
REMARK    1  A    between atoms: C_1  and  C_2
REMARK    2  A    between atoms: C_2  and  O_3
REMARK    3  A    between atoms: O_3  and  C_4
REMARK    4  A    between atoms: C_4  and  C_6
REMARK    5  A    between atoms: C_7  and  C_27
REMARK    6  A    between atoms: N_8  and  C_24
REMARK    7  A    between atoms: C_12  and  C_14
REMARK    8  A    between atoms: C_17  and  C_20
REMARK    9  A    between atoms: C_20  and  C_21
REMARK   10  A    between atoms: C_20  and  C_22
REMARK   11  A    between atoms: C_20  and  C_23
REMARK   12  A    between atoms: C_24  and  C_25
REMARK   13  A    between atoms: C_27  and  N_28
REMARK                            x       y       z     vdW  Elec       q    Type
REMARK                         _______ _______ _______ _____ _____    ______ ____
ROOT
ATOM      1  C   UNL     1       1.464  -2.420  -2.171  0.00  0.00    +0.080 C 
ATOM      2  C   UNL     1       1.575  -3.722  -2.513  0.00  0.00    +0.041 C 
ATOM      3  N   UNL     1       2.309  -4.106  -3.599  0.00  0.00    -0.254 N 
ATOM      4  C   UNL     1       2.962  -3.249  -4.394  0.00  0.00    +0.307 C 
ATOM      5  O   UNL     1       3.590  -3.686  -5.338  0.00  0.00    -0.252 OA
ATOM      6  N   UNL     1       2.946  -1.919  -4.181  0.00  0.00    -0.288 N 
ATOM      7  C   UNL     1       2.177  -1.401  -3.037  0.00  0.00    +0.144 C 
ATOM      8  H   UNL     1       3.427  -1.316  -4.769  0.00  0.00    +0.151 HD
ENDROOT
BRANCH   7   9
ATOM      9  C   UNL     1       1.146  -0.436  -3.563  0.00  0.00    -0.022 A 
ATOM     10  C   UNL     1       0.358  -0.787  -4.642  0.00  0.00    +0.006 A 
ATOM     11  C   UNL     1      -0.588   0.098  -5.125  0.00  0.00    +0.004 A 
ATOM     12  C   UNL     1      -0.746   1.334  -4.527  0.00  0.00    -0.042 A 
ATOM     13  C   UNL     1       0.042   1.685  -3.446  0.00  0.00    +0.004 A 
ATOM     14  C   UNL     1       0.985   0.798  -2.962  0.00  0.00    +0.006 A 
BRANCH  12  15
ATOM     15  C   UNL     1      -1.777   2.300  -5.053  0.00  0.00    -0.013 C 
ATOM     16  C   UNL     1      -3.165   1.664  -4.960  0.00  0.00    +0.015 C 
ATOM     17  C   UNL     1      -1.746   3.583  -4.220  0.00  0.00    +0.015 C 
ATOM     18  C   UNL     1      -1.465   2.632  -6.514  0.00  0.00    +0.015 C 
ENDBRANCH  12  15
ENDBRANCH   7   9
BRANCH   1  19
ATOM     19  C   UNL     1       0.705  -2.021  -1.047  0.00  0.00    +0.339 C 
ATOM     20  O   UNL     1       0.031  -2.838  -0.447  0.00  0.00    -0.245 OA
BRANCH  19  21
ATOM     21  O   UNL     1       0.727  -0.735  -0.640  0.00  0.00    -0.462 OA
BRANCH  21  23
ATOM     22  C   UNL     1       0.086   1.089   0.811  0.00  0.00    +0.048 C 
ATOM     23  C   UNL     1      -0.065  -0.402   0.503  0.00  0.00    +0.229 C 
ENDBRANCH  21  23
ENDBRANCH  19  21
ENDBRANCH   1  19
BRANCH   3  24
ATOM     24  C   UNL     1       2.385  -5.535  -3.911  0.00  0.00    +0.141 C 
BRANCH  24  25
ATOM     25  C   UNL     1       1.322  -5.887  -4.919  0.00  0.00    -0.015 C 
ATOM     26  C   UNL     1       1.655  -6.449  -6.054  0.00  0.00    +0.005 C 
ENDBRANCH  24  25
ENDBRANCH   3  24
BRANCH   2  27
ATOM     27  C   UNL     1       0.878  -4.768  -1.682  0.00  0.00    +0.136 C 
BRANCH  27  28
ATOM     28  N   UNL     1      -0.401  -5.122  -2.312  0.00  0.00    -0.299 NA
ATOM     29  C   UNL     1      -1.264  -3.927  -2.472  0.00  0.00    +0.083 C 
ATOM     30  C   UNL     1      -2.233  -4.185  -3.598  0.00  0.00    -0.004 C 
ATOM     31  C   UNL     1      -3.564  -4.777  -3.108  0.00  0.00    -0.081 C 
ATOM     32  N   UNL     1      -3.380  -5.811  -2.066  0.00  0.00    +0.380 N 
ATOM     33  C   UNL     1      -2.273  -6.693  -2.361  0.00  0.00    -0.067 C 
ATOM     34  C   UNL     1      -1.023  -6.171  -1.629  0.00  0.00    +0.066 C 
ATOM     35  H   UNL     1      -3.210  -5.358  -1.181  0.00  0.00    -0.086 HD
ATOM     36  H   UNL     1      -4.224  -6.359  -1.994  0.00  0.00    -0.086 HD
ENDBRANCH  27  28
ENDBRANCH   2  27
TORSDOF 9
