REMARK  Name = ZINC06438308
REMARK  2 active torsions:
REMARK  status: ('A' for Active; 'I' for Inactive)
REMARK    1  A    between atoms: N_13  and  N_14
REMARK    2  A    between atoms: C_15  and  C_16
REMARK                            x       y       z     vdW  Elec       q    Type
REMARK                         _______ _______ _______ _____ _____    ______ ____
ROOT
ATOM      1  C   UNL     1      -0.016   1.319   0.009  0.00  0.00    +0.001 A 
ATOM      2  C   UNL     1       1.224   2.128   0.002  0.00  0.00    +0.008 A 
ATOM      3  C   UNL     1       2.377   1.504  -0.012  0.00  0.00    -0.015 A 
ATOM      4  C   UNL     1       3.712   2.127  -0.020  0.00  0.00    +0.008 A 
ATOM      5  C   UNL     1       4.768   1.333  -0.034  0.00  0.00    +0.003 A 
ATOM      6  C   UNL     1       4.704  -0.137  -0.042  0.00  0.00    +0.028 A 
ATOM      7  C   UNL     1       3.558  -0.778  -0.036  0.00  0.00    +0.074 A 
ATOM      8  C   UNL     1       2.353   0.049  -0.020  0.00  0.00    +0.018 A 
ATOM      9  C   UNL     1       1.297  -0.701  -0.015  0.00  0.00    +0.026 A 
ATOM     10  C   UNL     1       0.002  -0.004   0.002  0.00  0.00    +0.012 A 
ATOM     11  C   UNL     1       1.814  -2.073  -0.028  0.00  0.00    +0.147 C 
ATOM     12  N   UNL     1       3.105  -2.051  -0.040  0.00  0.00    -0.230 NA
ATOM     13  N   UNL     1       1.053  -3.194  -0.027  0.00  0.00    -0.220 N 
ATOM     14  H   UNL     1       0.086  -3.123  -0.018  0.00  0.00    +0.176 HD
ENDROOT
BRANCH  13  15
ATOM     15  N   UNL     1       1.663  -4.455  -0.040  0.00  0.00    -0.189 NA
ATOM     16  C   UNL     1       0.934  -5.528  -0.039  0.00  0.00    +0.139 C 
BRANCH  16  17
ATOM     17  C   UNL     1       1.577  -6.856  -0.053  0.00  0.00    +0.013 A 
ATOM     18  C   UNL     1       0.801  -8.023  -0.058  0.00  0.00    +0.012 A 
ATOM     19  C   UNL     1       1.453  -9.243  -0.071  0.00  0.00    +0.020 A 
ATOM     20  C   UNL     1       2.836  -9.272  -0.078  0.00  0.00    +0.111 A 
ATOM     21  N   UNL     1       3.541  -8.157  -0.072  0.00  0.00    -0.263 NA
ATOM     22  C   UNL     1       2.968  -6.972  -0.066  0.00  0.00    +0.120 A 
ENDBRANCH  16  17
ENDBRANCH  13  15
TORSDOF 2
