REMARK  Name = ZINC10274537
REMARK  7 active torsions:
REMARK  status: ('A' for Active; 'I' for Inactive)
REMARK    1  A    between atoms: C_4  and  C_7
REMARK    2  A    between atoms: C_7  and  N_62
REMARK    3  A    between atoms: C_10  and  N_13
REMARK    4  A    between atoms: C_14  and  C_16
REMARK    5  A    between atoms: C_16  and  C_17
REMARK    6  A    between atoms: C_17  and  C_18
REMARK    7  A    between atoms: C_18  and  N_19
REMARK                            x       y       z     vdW  Elec       q    Type
REMARK                         _______ _______ _______ _____ _____    ______ ____
ROOT
ATOM      1  C   UNL     1       2.462   0.920  -0.017  0.00  0.00    +0.097 C 
ENDROOT
BRANCH   1   3
ATOM      2  N   UNL     1      -0.011   0.966   0.007  0.00  0.00    -0.313 N 
ATOM      3  C   UNL     1       1.147   1.655   0.000  0.00  0.00    +0.213 C 
ATOM      4  O   UNL     1       1.130   2.868   0.007  0.00  0.00    -0.276 OA
ATOM      5  H   UNL     1       0.002  -0.004   0.002  0.00  0.00    +0.149 HD
BRANCH   2   8
ATOM      6  C   UNL     1      -3.722   1.521  -0.524  0.00  0.00    -0.077 C 
ATOM      7  C   UNL     1      -2.378   0.793  -0.592  0.00  0.00    +0.003 C 
ATOM      8  C   UNL     1      -1.290   1.681   0.017  0.00  0.00    +0.069 C 
ATOM      9  C   UNL     1      -1.672   2.026   1.459  0.00  0.00    +0.003 C 
ATOM     10  C   UNL     1      -3.037   2.718   1.469  0.00  0.00    -0.077 C 
ATOM     11  N   UNL     1      -4.043   1.802   0.892  0.00  0.00    +0.382 N 
ATOM     12  H   UNL     1      -4.031   0.920   1.417  0.00  0.00    -0.081 HD
BRANCH  11  13
ATOM     13  C   UNL     1      -5.389   2.403   0.994  0.00  0.00    -0.043 C 
BRANCH  13  17
ATOM     14  C   UNL     1      -6.495   2.611   5.114  0.00  0.00    +0.000 A 
ATOM     15  C   UNL     1      -5.841   3.674   4.520  0.00  0.00    +0.000 A 
ATOM     16  C   UNL     1      -5.483   3.607   3.186  0.00  0.00    +0.002 A 
ATOM     17  C   UNL     1      -5.779   2.477   2.447  0.00  0.00    -0.064 A 
ATOM     18  C   UNL     1      -6.438   1.416   3.041  0.00  0.00    +0.002 A 
ATOM     19  C   UNL     1      -6.791   1.481   4.376  0.00  0.00    +0.000 A 
ENDBRANCH  13  17
ENDBRANCH  11  13
ENDBRANCH   2   8
ENDBRANCH   1   3
BRANCH   1  20
ATOM     20  C   UNL     1       3.611   1.930  -0.022  0.00  0.00    +0.031 C 
BRANCH  20  21
ATOM     21  C   UNL     1       4.946   1.183  -0.039  0.00  0.00    +0.128 C 
BRANCH  21  22
ATOM     22  N   UNL     1       6.047   2.150  -0.044  0.00  0.00    -0.288 N 
ATOM     23  C   UNL     1       6.555   2.581   1.131  0.00  0.00    +0.262 A 
ATOM     24  O   UNL     1       6.111   2.176   2.188  0.00  0.00    -0.267 OA
ATOM     25  C   UNL     1       7.660   3.552   1.099  0.00  0.00    +0.067 A 
ATOM     26  C   UNL     1       8.238   4.042   2.271  0.00  0.00    +0.065 A 
ATOM     27  C   UNL     1       9.273   4.952   2.193  0.00  0.00    +0.167 A 
ATOM     28  C   UNL     1       9.740   5.381   0.947  0.00  0.00    +0.168 A 
ATOM     29  C   UNL     1       9.170   4.897  -0.220  0.00  0.00    +0.076 A 
ATOM     30  C   UNL     1       8.132   3.984  -0.154  0.00  0.00    +0.057 A 
ATOM     31  N   UNL     1       7.537   3.477  -1.302  0.00  0.00    -0.334 N 
ATOM     32  H   UNL     1       7.851   3.764  -2.173  0.00  0.00    +0.168 HD
ATOM     33  C   UNL     1       6.534   2.586  -1.216  0.00  0.00    +0.161 A 
ATOM     34  S   UNL     1       5.842   1.989  -2.664  0.00  0.00    -0.013 S 
ATOM     35  O   UNL     1      10.755   6.270   1.147  0.00  0.00    -0.453 OA
ATOM     36  C   UNL     1      11.179   6.071   2.509  0.00  0.00    +0.466 C 
ATOM     37  O   UNL     1       9.999   5.575   3.167  0.00  0.00    -0.453 OA
ENDBRANCH  21  22
ENDBRANCH  20  21
ENDBRANCH   1  20
TORSDOF 7
