REMARK  Name = ZINC65020772
REMARK  9 active torsions:
REMARK  status: ('A' for Active; 'I' for Inactive)
REMARK    1  A    between atoms: C_1  and  C_2
REMARK    2  A    between atoms: C_2  and  C_3
REMARK    3  A    between atoms: C_3  and  C_5
REMARK    4  A    between atoms: C_3  and  N_6
REMARK    5  A    between atoms: N_6  and  S_7
REMARK    6  A    between atoms: S_7  and  C_10
REMARK    7  A    between atoms: C_16  and  C_22
REMARK    8  A    between atoms: C_16  and  C_23
REMARK    9  A    between atoms: C_19  and  C_21
REMARK                            x       y       z     vdW  Elec       q    Type
REMARK                         _______ _______ _______ _____ _____    ______ ____
ROOT
ATOM      1  C   UNL     1       1.564  -1.139  -4.413  0.00  0.00    +0.106 A 
ATOM      2  C   UNL     1       2.859  -1.397  -4.001  0.00  0.00    +0.030 A 
ATOM      3  C   UNL     1       3.519  -2.521  -4.450  0.00  0.00    +0.026 A 
ATOM      4  C   UNL     1       2.886  -3.407  -5.324  0.00  0.00    +0.040 A 
ATOM      5  C   UNL     1       1.588  -3.141  -5.729  0.00  0.00    -0.017 A 
ATOM      6  C   UNL     1       0.928  -2.016  -5.272  0.00  0.00    +0.034 A 
ATOM      7  C   UNL     1       1.139  -4.243  -6.662  0.00  0.00    +0.008 C 
ATOM      8  C   UNL     1       2.346  -5.191  -6.750  0.00  0.00    +0.124 C 
ATOM      9  N   UNL     1       3.370  -4.590  -5.891  0.00  0.00    -0.271 N 
ATOM     10  C   UNL     1       4.599  -5.102  -5.679  0.00  0.00    +0.217 C 
ATOM     11  O   UNL     1       5.410  -4.482  -5.024  0.00  0.00    -0.276 OA
ATOM     12  C   UNL     1       4.965  -6.445  -6.257  0.00  0.00    +0.109 C 
ATOM     13  C   UNL     1       0.808  -3.672  -8.043  0.00  0.00    +0.017 C 
ATOM     14  C   UNL     1      -0.073  -4.973  -6.081  0.00  0.00    +0.017 C 
ENDROOT
BRANCH   1  15
ATOM     15  S   UNL     1       0.724   0.298  -3.837  0.00  0.00    +0.059 S 
ATOM     16  O   UNL     1      -0.284   0.591  -4.795  0.00  0.00    -0.153 OA
ATOM     17  O   UNL     1       1.727   1.238  -3.477  0.00  0.00    -0.153 OA
BRANCH  15  18
ATOM     18  N   UNL     1      -0.059  -0.119  -2.438  0.00  0.00    -0.187 NA
ATOM     19  H   UNL     1      -1.028  -0.108  -2.403  0.00  0.00    +0.148 HD
BRANCH  18  20
ATOM     20  C   UNL     1       0.713  -0.504  -1.254  0.00  0.00    +0.073 C 
ATOM     21  C   UNL     1       0.844  -2.028  -1.204  0.00  0.00    +0.025 C 
BRANCH  20  23
ATOM     22  C   UNL     1      -0.025   1.517   0.015  0.00  0.00    +0.005 C 
ATOM     23  C   UNL     1      -0.004  -0.013   0.004  0.00  0.00    +0.017 C 
ENDBRANCH  20  23
ENDBRANCH  18  20
ENDBRANCH  15  18
ENDBRANCH   1  15
TORSDOF 4
