REMARK  Name = ZINC42139072
REMARK  6 active torsions:
REMARK  status: ('A' for Active; 'I' for Inactive)
REMARK    1  A    between atoms: C_1  and  C_2
REMARK    2  A    between atoms: C_5  and  C_7
REMARK    3  A    between atoms: C_7  and  N_8
REMARK    4  A    between atoms: N_8  and  C_9
REMARK    5  A    between atoms: C_11  and  C_17
REMARK    6  A    between atoms: C_13  and  N_16
REMARK                            x       y       z     vdW  Elec       q    Type
REMARK                         _______ _______ _______ _____ _____    ______ ____
ROOT
ATOM      1  N   UNL     1       2.002  -3.619  -1.432  0.00  0.00    -0.310 N 
ATOM      2  C   UNL     1       3.192  -3.093  -2.105  0.00  0.00    +0.131 C 
ATOM      3  C   UNL     1       1.196  -4.546  -2.073  0.00  0.00    +0.134 A 
ATOM      4  C   UNL     1       1.444  -5.919  -1.905  0.00  0.00    +0.078 A 
ATOM      5  C   UNL     1       0.618  -6.839  -2.561  0.00  0.00    +0.040 A 
ATOM      6  C   UNL     1      -0.414  -6.350  -3.353  0.00  0.00    +0.044 A 
ATOM      7  C   UNL     1      -0.593  -4.978  -3.467  0.00  0.00    +0.135 A 
ATOM      8  N   UNL     1       0.196  -4.132  -2.834  0.00  0.00    -0.238 NA
ENDROOT
BRANCH   4   9
ATOM      9  C   UNL     1       2.554  -6.382  -1.052  0.00  0.00    +0.245 C 
ATOM     10  O   UNL     1       3.199  -5.580  -0.405  0.00  0.00    -0.270 OA
ATOM     11  N   UNL     1       2.854  -7.694  -0.991  0.00  0.00    -0.325 N 
ATOM     12  H   UNL     1       2.339  -8.334  -1.507  0.00  0.00    +0.145 HD
ATOM     13  H   UNL     1       3.584  -7.999  -0.430  0.00  0.00    +0.145 HD
ENDBRANCH   4   9
BRANCH   6  14
ATOM     14  N   UNL     1      -1.265  -7.234  -4.029  0.00  0.00    -0.357 N 
ATOM     15  H   UNL     1      -1.136  -8.191  -3.945  0.00  0.00    +0.142 HD
ATOM     16  H   UNL     1      -1.984  -6.888  -4.580  0.00  0.00    +0.142 HD
ENDBRANCH   6  14
BRANCH   1  17
ATOM     17  C   UNL     1       1.664  -3.164  -0.081  0.00  0.00    +0.180 C 
BRANCH  17  22
ATOM     18  C   UNL     1       0.156   1.642  -0.350  0.00  0.00    +0.086 C 
ATOM     19  C   UNL     1       0.115   0.137  -0.284  0.00  0.00    +0.102 A 
ATOM     20  C   UNL     1      -0.996  -0.621  -0.290  0.00  0.00    +0.045 A 
ATOM     21  C   UNL     1      -0.573  -1.968  -0.215  0.00  0.00    +0.046 A 
ATOM     22  C   UNL     1       0.771  -1.953  -0.168  0.00  0.00    +0.122 A 
ATOM     23  O   UNL     1       1.183  -0.676  -0.216  0.00  0.00    -0.463 OA
ENDBRANCH  17  22
ENDBRANCH   1  17
TORSDOF 4
