REMARK  Name = ZINC66616387
REMARK  11 active torsions:
REMARK  status: ('A' for Active; 'I' for Inactive)
REMARK    1  A    between atoms: C_1  and  C_2
REMARK    2  A    between atoms: C_5  and  C_12
REMARK    3  A    between atoms: C_8  and  C_10
REMARK    4  A    between atoms: C_8  and  C_11
REMARK    5  A    between atoms: C_12  and  C_13
REMARK    6  A    between atoms: C_18  and  N_21
REMARK    7  A    between atoms: C_22  and  O_24
REMARK    8  A    between atoms: O_24  and  C_25
REMARK    9  A    between atoms: C_25  and  C_26
REMARK   10  A    between atoms: C_25  and  C_27
REMARK   11  A    between atoms: C_25  and  C_28
REMARK                            x       y       z     vdW  Elec       q    Type
REMARK                         _______ _______ _______ _____ _____    ______ ____
ROOT
ATOM      1  C   UNL     1      -3.539  -2.197  -1.264  0.00  0.00    +0.216 C 
ATOM      2  O   UNL     1      -2.943  -1.554  -2.102  0.00  0.00    -0.276 OA
ATOM      3  N   UNL     1      -4.821  -2.557  -1.477  0.00  0.00    -0.301 N 
ATOM      4  C   UNL     1      -5.558  -3.330  -0.469  0.00  0.00    +0.109 C 
ATOM      5  C   UNL     1      -6.862  -2.596  -0.141  0.00  0.00    +0.041 C 
ATOM      6  C   UNL     1      -7.641  -2.345  -1.434  0.00  0.00    +0.079 C 
ATOM      7  C   UNL     1      -6.811  -1.461  -2.368  0.00  0.00    +0.041 C 
ATOM      8  C   UNL     1      -5.508  -2.178  -2.719  0.00  0.00    +0.109 C 
ENDROOT
BRANCH   6   9
ATOM      9  N   UNL     1      -8.904  -1.672  -1.121  0.00  0.00    -0.278 N 
ATOM     10  C   UNL     1      -9.955  -1.788  -1.956  0.00  0.00    +0.401 C 
ATOM     11  O   UNL     1      -9.855  -2.451  -2.970  0.00  0.00    -0.226 OA
ATOM     12  H   UNL     1      -8.984  -1.143  -0.312  0.00  0.00    +0.152 HD
BRANCH  10  13
ATOM     13  O   UNL     1     -11.116  -1.170  -1.668  0.00  0.00    -0.445 OA
BRANCH  13  14
ATOM     14  C   UNL     1     -12.188  -1.337  -2.599  0.00  0.00    +0.107 C 
ATOM     15  C   UNL     1     -12.532  -2.823  -2.719  0.00  0.00    +0.055 C 
ATOM     16  C   UNL     1     -13.415  -0.567  -2.106  0.00  0.00    +0.055 C 
ATOM     17  C   UNL     1     -11.764  -0.799  -3.967  0.00  0.00    +0.055 C 
ENDBRANCH  13  14
ENDBRANCH  10  13
ENDBRANCH   6   9
BRANCH   1  18
ATOM     18  C   UNL     1      -2.848  -2.593   0.015  0.00  0.00    +0.099 C 
BRANCH  18  22
ATOM     19  C   UNL     1      -0.019   1.526   0.010  0.00  0.00    +0.007 C 
ATOM     20  C   UNL     1       0.002  -0.004   0.002  0.00  0.00    -0.013 C 
ATOM     21  C   UNL     1      -1.433  -0.534   0.013  0.00  0.00    +0.007 C 
ATOM     22  C   UNL     1      -1.413  -2.063   0.004  0.00  0.00    -0.002 C 
ATOM     23  C   UNL     1      -0.673  -2.570   1.244  0.00  0.00    +0.010 C 
ATOM     24  C   UNL     1       0.763  -2.041   1.233  0.00  0.00    -0.034 C 
ATOM     25  C   UNL     1       0.742  -0.511   1.242  0.00  0.00    +0.009 C 
ATOM     26  C   UNL     1       1.479  -2.534  -0.026  0.00  0.00    +0.011 C 
ATOM     27  C   UNL     1       1.503  -2.548   2.473  0.00  0.00    +0.011 C 
ENDBRANCH  18  22
ENDBRANCH   1  18
TORSDOF 5
