REMARK  Name = ZINC05936365
REMARK  4 active torsions:
REMARK  status: ('A' for Active; 'I' for Inactive)
REMARK    1  A    between atoms: C_2  and  N_17
REMARK    2  A    between atoms: C_4  and  S_10
REMARK    3  A    between atoms: C_6  and  N_7
REMARK    4  A    between atoms: S_10  and  C_11
REMARK                            x       y       z     vdW  Elec       q    Type
REMARK                         _______ _______ _______ _____ _____    ______ ____
ROOT
ATOM      1  C   UNL     1      -6.943  -0.685  -2.701  0.00  0.00    +0.055 A 
ATOM      2  C   UNL     1      -6.057  -0.818  -1.639  0.00  0.00    +0.028 A 
ATOM      3  C   UNL     1      -4.867  -0.105  -1.637  0.00  0.00    +0.037 A 
ATOM      4  C   UNL     1      -4.572   0.750  -2.691  0.00  0.00    +0.012 A 
ATOM      5  C   UNL     1      -5.463   0.878  -3.750  0.00  0.00    +0.047 A 
ATOM      6  C   UNL     1      -6.644   0.161  -3.751  0.00  0.00    +0.129 A 
ENDROOT
BRANCH   6   7
ATOM      7  N   UNL     1      -7.591   0.300  -4.880  0.00  0.00    +0.057 N 
ATOM      8  O   UNL     1      -7.329   1.047  -5.807  0.00  0.00    -0.126 OA
ATOM      9  O   UNL     1      -8.633  -0.331  -4.883  0.00  0.00    -0.126 OA
ENDBRANCH   6   7
BRANCH   2  10
ATOM     10  N   UNL     1      -6.361  -1.674  -0.578  0.00  0.00    -0.358 N 
ATOM     11  H   UNL     1      -7.191  -2.175  -0.582  0.00  0.00    +0.142 HD
ATOM     12  H   UNL     1      -5.742  -1.766   0.164  0.00  0.00    +0.142 HD
ENDBRANCH   2  10
BRANCH   4  13
ATOM     13  S   UNL     1      -3.065   1.664  -2.690  0.00  0.00    -0.122 S 
BRANCH  13  14
ATOM     14  C   UNL     1      -2.351   1.331  -1.057  0.00  0.00    +0.051 C 
ATOM     15  C   UNL     1      -0.920   1.871  -1.006  0.00  0.00    +0.014 C 
ATOM     16  C   UNL     1      -0.317   1.590   0.372  0.00  0.00    +0.001 C 
ATOM     17  C   UNL     1      -1.161   2.277   1.448  0.00  0.00    +0.000 C 
ATOM     18  C   UNL     1      -2.591   1.737   1.397  0.00  0.00    +0.001 C 
ATOM     19  C   UNL     1      -3.194   2.018   0.019  0.00  0.00    +0.014 C 
ENDBRANCH  13  14
ENDBRANCH   4  13
TORSDOF 4
