REMARK  Name = ZINC39631531
REMARK  12 active torsions:
REMARK  status: ('A' for Active; 'I' for Inactive)
REMARK    1  A    between atoms: C_1  and  C_2
REMARK    2  A    between atoms: C_2  and  C_3
REMARK    3  A    between atoms: C_7  and  C_16
REMARK    4  A    between atoms: N_18  and  C_19
REMARK    5  A    between atoms: C_19  and  C_21
REMARK    6  A    between atoms: C_19  and  C_22
REMARK    7  A    between atoms: C_22  and  C_23
REMARK    8  A    between atoms: C_23  and  C_24
REMARK    9  A    between atoms: C_24  and  C_25
REMARK   10  A    between atoms: C_25  and  C_26
REMARK   11  A    between atoms: C_25  and  C_27
REMARK   12  A    between atoms: C_25  and  O_28
REMARK                            x       y       z     vdW  Elec       q    Type
REMARK                         _______ _______ _______ _____ _____    ______ ____
ROOT
ATOM      1  C   UNL     1       0.809  -0.506  -1.351  0.00  0.00    +0.215 C 
ATOM      2  O   UNL     1       1.216   0.270  -2.189  0.00  0.00    -0.276 OA
ATOM      3  N   UNL     1       0.903  -1.834  -1.559  0.00  0.00    -0.300 N 
ATOM      4  C   UNL     1       0.460  -2.928  -0.664  0.00  0.00    +0.121 C 
ATOM      5  C   UNL     1      -0.137  -3.992  -1.612  0.00  0.00    +0.100 C 
ATOM      6  C   UNL     1       0.534  -3.727  -2.970  0.00  0.00    -0.004 C 
ATOM      7  C   UNL     1       1.469  -2.530  -2.740  0.00  0.00    +0.115 C 
ATOM      8  C   UNL     1      -0.516  -3.373  -4.019  0.00  0.00    -0.010 C 
ATOM      9  C   UNL     1       0.169  -3.170  -5.373  0.00  0.00    -0.082 C 
ATOM     10  N   UNL     1       0.876  -4.399  -5.755  0.00  0.00    +0.379 N 
ATOM     11  C   UNL     1       1.946  -4.681  -4.790  0.00  0.00    -0.082 C 
ATOM     12  C   UNL     1       1.336  -4.947  -3.411  0.00  0.00    -0.010 C 
ATOM     13  H   UNL     1       0.226  -5.170  -5.768  0.00  0.00    -0.086 HD
ATOM     14  H   UNL     1       1.276  -4.284  -6.674  0.00  0.00    -0.086 HD
ENDROOT
BRANCH   5  15
ATOM     15  C   UNL     1       0.195  -5.377  -1.122  0.00  0.00    +0.218 C 
ATOM     16  O   UNL     1       1.227  -5.576  -0.517  0.00  0.00    -0.275 OA
ATOM     17  N   UNL     1      -0.656  -6.396  -1.355  0.00  0.00    -0.312 N 
ATOM     18  H   UNL     1      -1.482  -6.238  -1.839  0.00  0.00    +0.149 HD
BRANCH  17  19
ATOM     19  C   UNL     1      -0.334  -7.744  -0.878  0.00  0.00    +0.070 C 
ATOM     20  C   UNL     1       0.559  -8.447  -1.903  0.00  0.00    +0.028 C 
BRANCH  19  21
ATOM     21  C   UNL     1      -1.626  -8.542  -0.693  0.00  0.00    +0.022 C 
BRANCH  21  22
ATOM     22  C   UNL     1      -2.462  -7.908   0.420  0.00  0.00    +0.005 C 
BRANCH  22  23
ATOM     23  C   UNL     1      -3.754  -8.706   0.605  0.00  0.00    +0.034 C 
BRANCH  23  24
ATOM     24  C   UNL     1      -4.590  -8.072   1.718  0.00  0.00    +0.061 C 
ATOM     25  C   UNL     1      -5.821  -8.940   1.989  0.00  0.00    +0.041 C 
ATOM     26  C   UNL     1      -3.749  -7.969   2.992  0.00  0.00    +0.041 C 
BRANCH  24  27
ATOM     27  O   UNL     1      -5.007  -6.766   1.316  0.00  0.00    -0.389 OA
ATOM     28  H   UNL     1      -5.543  -6.304   1.975  0.00  0.00    +0.210 HD
ENDBRANCH  24  27
ENDBRANCH  23  24
ENDBRANCH  22  23
ENDBRANCH  21  22
ENDBRANCH  19  21
ENDBRANCH  17  19
ENDBRANCH   5  15
BRANCH   1  30
ATOM     29  C   UNL     1       0.211   1.545  -0.091  0.00  0.00    +0.013 C 
ATOM     30  C   UNL     1       0.197   0.015  -0.076  0.00  0.00    +0.092 C 
ENDBRANCH   1  30
TORSDOF 8
