REMARK  Name = ZINC37064141
REMARK  6 active torsions:
REMARK  status: ('A' for Active; 'I' for Inactive)
REMARK    1  A    between atoms: C_1  and  C_2
REMARK    2  A    between atoms: C_5  and  N_21
REMARK    3  A    between atoms: C_6  and  S_9
REMARK    4  A    between atoms: C_7  and  C_8
REMARK    5  A    between atoms: S_9  and  N_12
REMARK    6  A    between atoms: C_16  and  C_18
REMARK                            x       y       z     vdW  Elec       q    Type
REMARK                         _______ _______ _______ _____ _____    ______ ____
ROOT
ATOM      1  S   UNL     1      -0.846  -2.996   2.556  0.00  0.00    +0.064 S 
ATOM      2  O   UNL     1      -1.789  -2.187   3.245  0.00  0.00    -0.153 OA
ATOM      3  O   UNL     1      -1.145  -4.316   2.123  0.00  0.00    -0.153 OA
ENDROOT
BRANCH   1   9
ATOM      4  C   UNL     1      -0.163   1.497  -0.023  0.00  0.00    +0.044 C 
ATOM      5  C   UNL     1      -0.067  -0.007  -0.014  0.00  0.00    -0.046 A 
ATOM      6  C   UNL     1       0.401  -0.675  -1.131  0.00  0.00    +0.005 A 
ATOM      7  C   UNL     1       0.490  -2.053  -1.126  0.00  0.00    +0.025 A 
ATOM      8  C   UNL     1       0.109  -2.768   0.003  0.00  0.00    +0.052 A 
ATOM      9  C   UNL     1      -0.360  -2.094   1.122  0.00  0.00    +0.129 A 
ATOM     10  C   UNL     1      -0.442  -0.715   1.113  0.00  0.00    -0.019 A 
ATOM     11  C   UNL     1      -0.945   0.018   2.330  0.00  0.00    +0.046 C 
BRANCH   8  12
ATOM     12  N   UNL     1       0.198  -4.162   0.011  0.00  0.00    -0.356 N 
ATOM     13  H   UNL     1       0.184  -4.654  -0.825  0.00  0.00    +0.142 HD
ATOM     14  H   UNL     1       0.273  -4.638   0.852  0.00  0.00    +0.142 HD
ENDBRANCH   8  12
ENDBRANCH   1   9
BRANCH   1  15
ATOM     15  N   UNL     1       0.484  -3.110   3.536  0.00  0.00    -0.165 NA
ATOM     16  C   UNL     1       1.488  -4.190   3.501  0.00  0.00    +0.110 C 
ATOM     17  C   UNL     1       2.769  -3.560   4.101  0.00  0.00    +0.019 C 
ATOM     18  C   UNL     1       2.179  -2.652   5.212  0.00  0.00    +0.031 C 
ATOM     19  C   UNL     1       0.864  -2.148   4.581  0.00  0.00    +0.165 C 
BRANCH  19  20
ATOM     20  C   UNL     1      -0.214  -2.082   5.633  0.00  0.00    +0.229 C 
ATOM     21  O   UNL     1      -1.207  -2.770   5.527  0.00  0.00    -0.274 OA
ATOM     22  N   UNL     1      -0.074  -1.259   6.691  0.00  0.00    -0.328 N 
ATOM     23  H   UNL     1       0.721  -0.709   6.775  0.00  0.00    +0.145 HD
ATOM     24  H   UNL     1      -0.767  -1.217   7.367  0.00  0.00    +0.145 HD
ENDBRANCH  19  20
ENDBRANCH   1  15
TORSDOF 4
