REMARK  Name = ZINC02123969
REMARK  13 active torsions:
REMARK  status: ('A' for Active; 'I' for Inactive)
REMARK    1  A    between atoms: C_1  and  C_2
REMARK    2  A    between atoms: C_2  and  C_36
REMARK    3  A    between atoms: C_6  and  C_22
REMARK    4  A    between atoms: N_9  and  C_10
REMARK    5  A    between atoms: C_10  and  C_11
REMARK    6  A    between atoms: C_11  and  C_12
REMARK    7  A    between atoms: C_12  and  O_13
REMARK    8  A    between atoms: O_13  and  C_14
REMARK    9  A    between atoms: C_16  and  C_20
REMARK   10  A    between atoms: C_16  and  C_21
REMARK   11  A    between atoms: C_27  and  O_28
REMARK   12  A    between atoms: O_28  and  C_29
REMARK   13  A    between atoms: C_29  and  C_30
REMARK                            x       y       z     vdW  Elec       q    Type
REMARK                         _______ _______ _______ _____ _____    ______ ____
ROOT
ATOM      1  C   UNL     1       3.328   2.212   3.614  0.00  0.00    +0.011 C 
ATOM      2  C   UNL     1       4.480   3.218   3.604  0.00  0.00    -0.023 C 
ATOM      3  C   UNL     1       5.264   3.089   2.297  0.00  0.00    +0.058 C 
ATOM      4  C   UNL     1       4.362   3.406   1.131  0.00  0.00    +0.019 C 
ATOM      5  C   UNL     1       3.341   4.279   1.257  0.00  0.00    +0.024 C 
ATOM      6  C   UNL     1       2.451   4.590   0.083  0.00  0.00    +0.092 C 
ATOM      7  C   UNL     1       3.112   4.215  -1.218  0.00  0.00    +0.024 C 
ATOM      8  C   UNL     1       4.142   3.343  -1.236  0.00  0.00    +0.019 C 
ATOM      9  N   UNL     1       4.598   2.793  -0.070  0.00  0.00    -0.306 N 
ATOM     10  C   UNL     1       4.815   2.960  -2.530  0.00  0.00    +0.058 C 
ATOM     11  C   UNL     1       3.802   3.026  -3.676  0.00  0.00    -0.023 C 
ATOM     12  C   UNL     1       3.232   4.446  -3.740  0.00  0.00    +0.086 C 
ATOM     13  C   UNL     1       2.629   4.792  -2.405  0.00  0.00    +0.162 C 
ATOM     14  O   UNL     1       1.709   5.584  -2.353  0.00  0.00    -0.292 OA
ATOM     15  C   UNL     1       2.670   2.029  -3.419  0.00  0.00    +0.011 C 
ATOM     16  C   UNL     1       4.497   2.690  -4.997  0.00  0.00    +0.011 C 
ATOM     17  C   UNL     1       3.081   4.919   2.482  0.00  0.00    +0.162 C 
ATOM     18  O   UNL     1       2.161   5.709   2.559  0.00  0.00    -0.292 OA
ATOM     19  C   UNL     1       3.922   4.642   3.698  0.00  0.00    +0.086 C 
ATOM     20  C   UNL     1       5.410   2.952   4.790  0.00  0.00    +0.011 C 
ENDROOT
BRANCH   6  21
ATOM     21  C   UNL     1       1.163   3.821   0.222  0.00  0.00    +0.008 A 
ATOM     22  C   UNL     1       1.184   2.441   0.275  0.00  0.00    +0.028 A 
ATOM     23  C   UNL     1       0.001   1.734   0.402  0.00  0.00    +0.041 A 
ATOM     24  C   UNL     1      -1.205   2.408   0.471  0.00  0.00    +0.023 A 
ATOM     25  C   UNL     1      -1.230   3.788   0.425  0.00  0.00    +0.047 A 
ATOM     26  C   UNL     1      -0.045   4.499   0.297  0.00  0.00    +0.125 A 
ATOM     27 CL   UNL     1       0.031  -0.000   0.467  0.00  0.00    -0.084 Cl
BRANCH  26  28
ATOM     28  O   UNL     1      -0.068   5.857   0.246  0.00  0.00    -0.480 OA
BRANCH  28  29
ATOM     29  C   UNL     1      -1.348   6.487   0.329  0.00  0.00    +0.353 C 
BRANCH  29  30
ATOM     30  C   UNL     1      -1.177   7.983   0.257  0.00  0.00    +0.393 C 
ATOM     31  O   UNL     1      -0.072   8.460   0.145  0.00  0.00    -0.243 OA
ATOM     32  O   UNL     1      -2.251   8.785   0.316  0.00  0.00    -0.243 OA
ENDBRANCH  29  30
ENDBRANCH  28  29
ENDBRANCH  26  28
ENDBRANCH   6  21
BRANCH   9  33
ATOM     33  C   UNL     1       5.345   1.534  -0.106  0.00  0.00    +0.112 C 
BRANCH  33  34
ATOM     34  C   UNL     1       6.839   1.831  -0.253  0.00  0.00    +0.047 C 
BRANCH  34  35
ATOM     35  C   UNL     1       7.620   0.516  -0.291  0.00  0.00    +0.161 C 
BRANCH  35  36
ATOM     36  O   UNL     1       9.015   0.794  -0.428  0.00  0.00    -0.383 OA
ATOM     37  C   UNL     1       9.838  -0.372  -0.474  0.00  0.00    +0.193 C 
ENDBRANCH  35  36
ENDBRANCH  34  35
ENDBRANCH  33  34
ENDBRANCH   9  33
TORSDOF 8
