REMARK  Name = ZINC67390586
REMARK  5 active torsions:
REMARK  status: ('A' for Active; 'I' for Inactive)
REMARK    1  A    between atoms: C_5  and  C_7
REMARK    2  A    between atoms: N_16  and  C_17
REMARK    3  A    between atoms: C_17  and  C_18
REMARK    4  A    between atoms: C_21  and  S_23
REMARK    5  A    between atoms: S_23  and  N_26
REMARK                            x       y       z     vdW  Elec       q    Type
REMARK                         _______ _______ _______ _____ _____    ______ ____
ROOT
ATOM      1  C   UNL     1       1.231  -2.186  -0.021  0.00  0.00    +0.168 C 
ATOM      2  C   UNL     1       1.345  -2.688  -1.465  0.00  0.00    +0.145 C 
ATOM      3  N   UNL     1       1.175  -4.150  -1.463  0.00  0.00    -0.281 N 
ATOM      4  C   UNL     1       0.009  -4.709  -0.760  0.00  0.00    +0.137 C 
ATOM      5  C   UNL     1      -0.040  -4.109   0.650  0.00  0.00    +0.179 C 
ATOM      6  O   UNL     1       0.022  -2.683   0.557  0.00  0.00    -0.369 OA
ATOM      7  C   UNL     1       2.059  -4.953  -2.086  0.00  0.00    +0.303 C 
ATOM      8  O   UNL     1       2.965  -4.469  -2.738  0.00  0.00    -0.253 OA
ATOM      9  N   UNL     1       1.941  -6.292  -1.988  0.00  0.00    -0.295 N 
ATOM     10  H   UNL     1       1.178  -6.678  -1.530  0.00  0.00    +0.151 HD
ENDROOT
BRANCH   1  15
ATOM     11  C   UNL     1      -0.013   1.378   0.013  0.00  0.00    +0.001 A 
ATOM     12  C   UNL     1       1.174   2.087   0.003  0.00  0.00    +0.003 A 
ATOM     13  C   UNL     1       2.381   1.414  -0.014  0.00  0.00    +0.039 A 
ATOM     14  C   UNL     1       2.401   0.029  -0.021  0.00  0.00    +0.129 A 
ATOM     15  C   UNL     1       1.211  -0.679  -0.012  0.00  0.00    +0.018 A 
ATOM     16  C   UNL     1       0.005  -0.004   0.005  0.00  0.00    +0.009 A 
ATOM     17  F   UNL     1       3.580  -0.630  -0.038  0.00  0.00    -0.205 F 
ENDBRANCH   1  15
BRANCH   9  18
ATOM     18  C   UNL     1       2.964  -7.163  -2.571  0.00  0.00    +0.148 C 
BRANCH  18  19
ATOM     19  C   UNL     1       2.597  -8.603  -2.325  0.00  0.00    +0.009 A 
ATOM     20  C   UNL     1       1.860  -9.440  -3.095  0.00  0.00    +0.015 A 
ATOM     21  C   UNL     1       1.650 -10.737  -2.665  0.00  0.00    +0.036 A 
ATOM     22  C   UNL     1       2.188 -11.133  -1.485  0.00  0.00    +0.142 A 
ATOM     23  S   UNL     1       3.027  -9.653  -0.946  0.00  0.00    -0.072 S 
BRANCH  22  24
ATOM     24  S   UNL     1       2.090 -12.704  -0.693  0.00  0.00    +0.062 S 
ATOM     25  O   UNL     1       2.302 -12.474   0.693  0.00  0.00    -0.153 OA
ATOM     26  O   UNL     1       0.918 -13.337  -1.189  0.00  0.00    -0.153 OA
BRANCH  24  27
ATOM     27  N   UNL     1       3.374 -13.603  -1.226  0.00  0.00    -0.203 NA
ATOM     28  H   UNL     1       4.002 -13.223  -1.861  0.00  0.00    +0.144 HD
ATOM     29  H   UNL     1       3.500 -14.509  -0.903  0.00  0.00    +0.144 HD
ENDBRANCH  24  27
ENDBRANCH  22  24
ENDBRANCH  18  19
ENDBRANCH   9  18
TORSDOF 5
