REMARK  Name = ZINC61630811
REMARK  4 active torsions:
REMARK  status: ('A' for Active; 'I' for Inactive)
REMARK    1  A    between atoms: C_4  and  N_7
REMARK    2  A    between atoms: N_10  and  C_13
REMARK    3  A    between atoms: C_13  and  C_14
REMARK    4  A    between atoms: C_18  and  N_20
REMARK                            x       y       z     vdW  Elec       q    Type
REMARK                         _______ _______ _______ _____ _____    ______ ____
ROOT
ATOM      1  N   UNL     1       3.620  -0.649  -0.036  0.00  0.00    -0.327 N 
ATOM      2  C   UNL     1       4.891   0.083  -0.149  0.00  0.00    +0.120 C 
ATOM      3  C   UNL     1       5.711  -0.538  -1.285  0.00  0.00    +0.103 C 
ATOM      4  N   UNL     1       5.844  -1.983  -1.055  0.00  0.00    -0.294 NA
ATOM      5  C   UNL     1       4.536  -2.651  -1.085  0.00  0.00    +0.103 C 
ATOM      6  C   UNL     1       3.668  -2.116   0.065  0.00  0.00    +0.120 C 
ENDROOT
BRANCH   1  10
ATOM      7  C   UNL     1      -0.017   1.379   0.011  0.00  0.00    +0.000 A 
ATOM      8  C   UNL     1       0.002  -0.004  -0.011  0.00  0.00    +0.002 A 
ATOM      9  C   UNL     1       1.206  -0.680  -0.027  0.00  0.00    +0.023 A 
ATOM     10  C   UNL     1       2.400   0.031  -0.021  0.00  0.00    +0.030 A 
ATOM     11  C   UNL     1       2.377   1.420   0.002  0.00  0.00    +0.023 A 
ATOM     12  C   UNL     1       1.170   2.089   0.018  0.00  0.00    +0.002 A 
ENDBRANCH   1  10
BRANCH   4  13
ATOM     13  C   UNL     1       6.766  -2.588  -2.026  0.00  0.00    +0.141 C 
BRANCH  13  14
ATOM     14  C   UNL     1       7.068  -4.006  -1.615  0.00  0.00    +0.076 A 
ATOM     15  C   UNL     1       8.138  -4.260  -0.778  0.00  0.00    +0.064 A 
ATOM     16  C   UNL     1       8.412  -5.569  -0.403  0.00  0.00    +0.025 A 
ATOM     17  C   UNL     1       7.598  -6.578  -0.886  0.00  0.00    +0.045 A 
ATOM     18  C   UNL     1       6.538  -6.250  -1.725  0.00  0.00    +0.117 A 
ATOM     19  N   UNL     1       6.306  -4.989  -2.056  0.00  0.00    -0.235 NA
ATOM     20 CL   UNL     1       9.129  -2.957  -0.201  0.00  0.00    -0.082 Cl
BRANCH  18  21
ATOM     21  N   UNL     1       5.712  -7.254  -2.218  0.00  0.00    -0.343 N 
ATOM     22  H   UNL     1       5.876  -8.179  -1.976  0.00  0.00    +0.144 HD
ATOM     23  H   UNL     1       4.972  -7.030  -2.803  0.00  0.00    +0.144 HD
ENDBRANCH  18  21
ENDBRANCH  13  14
ENDBRANCH   4  13
TORSDOF 4
