REMARK  Name = ZINC47251325
REMARK  6 active torsions:
REMARK  status: ('A' for Active; 'I' for Inactive)
REMARK    1  A    between atoms: C_3  and  N_19
REMARK    2  A    between atoms: C_6  and  N_7
REMARK    3  A    between atoms: N_7  and  C_8
REMARK    4  A    between atoms: C_8  and  C_9
REMARK    5  A    between atoms: C_9  and  N_10
REMARK    6  A    between atoms: C_11  and  C_13
REMARK                            x       y       z     vdW  Elec       q    Type
REMARK                         _______ _______ _______ _____ _____    ______ ____
ROOT
ATOM      1  C   UNL     1      -1.175  -2.185   0.002  0.00  0.00    +0.120 C 
ENDROOT
BRANCH   1   2
ATOM      2  N   UNL     1      -1.197  -0.720   0.010  0.00  0.00    -0.342 N 
ATOM      3  H   UNL     1      -2.044  -0.248   0.021  0.00  0.00    +0.146 HD
BRANCH   2   9
ATOM      4  C   UNL     1      -0.017   1.385   0.010  0.00  0.00    +0.025 A 
ATOM      5  C   UNL     1       1.171   2.090   0.002  0.00  0.00    +0.034 A 
ATOM      6  C   UNL     1       2.377   1.415  -0.013  0.00  0.00    +0.126 A 
ATOM      7  C   UNL     1       2.400   0.032  -0.022  0.00  0.00    +0.034 A 
ATOM      8  C   UNL     1       1.216  -0.679  -0.014  0.00  0.00    +0.025 A 
ATOM      9  C   UNL     1       0.002  -0.004   0.002  0.00  0.00    +0.027 A 
BRANCH   6  10
ATOM     10  N   UNL     1       3.648   2.174  -0.022  0.00  0.00    +0.056 N 
ATOM     11  O   UNL     1       3.630   3.383  -0.015  0.00  0.00    -0.126 OA
ATOM     12  O   UNL     1       4.704   1.585  -0.036  0.00  0.00    -0.126 OA
ENDBRANCH   6  10
ENDBRANCH   2   9
ENDBRANCH   1   2
BRANCH   1  13
ATOM     13  C   UNL     1      -2.610  -2.717   0.013  0.00  0.00    +0.123 C 
BRANCH  13  14
ATOM     14  N   UNL     1      -2.588  -4.181   0.005  0.00  0.00    -0.309 N 
ATOM     15  C   UNL     1      -3.745  -4.873   0.013  0.00  0.00    +0.254 C 
ATOM     16  O   UNL     1      -4.808  -4.280   0.027  0.00  0.00    -0.270 OA
ATOM     17  H   UNL     1      -1.741  -4.654  -0.006  0.00  0.00    +0.149 HD
BRANCH  15  18
ATOM     18  C   UNL     1      -3.723  -6.338   0.005  0.00  0.00    +0.112 A 
ATOM     19  C   UNL     1      -4.778  -7.242   0.005  0.00  0.00    +0.148 A 
ATOM     20  N   UNL     1      -4.452  -8.512  -0.003  0.00  0.00    -0.235 NA
ATOM     21  C   UNL     1      -3.199  -8.902  -0.011  0.00  0.00    +0.158 A 
ATOM     22  S   UNL     1      -2.334  -7.459  -0.015  0.00  0.00    -0.069 S 
ATOM     23 CL   UNL     1      -6.433  -6.719   0.016  0.00  0.00    -0.061 Cl
ENDBRANCH  15  18
ENDBRANCH  13  14
ENDBRANCH   1  13
TORSDOF 6
