REMARK  Name = ZINC40325378
REMARK  5 active torsions:
REMARK  status: ('A' for Active; 'I' for Inactive)
REMARK    1  A    between atoms: C_1  and  N_2
REMARK    2  A    between atoms: C_3  and  C_5
REMARK    3  A    between atoms: C_12  and  C_14
REMARK    4  A    between atoms: C_16  and  N_20
REMARK    5  A    between atoms: N_18  and  C_19
REMARK                            x       y       z     vdW  Elec       q    Type
REMARK                         _______ _______ _______ _____ _____    ______ ____
ROOT
ATOM      1  C   UNL     1      -1.212  -2.272  -0.488  0.00  0.00    +0.162 C 
ATOM      2  C   UNL     1      -0.306  -3.234   0.287  0.00  0.00    +0.032 C 
ATOM      3  C   UNL     1      -0.549  -4.663  -0.202  0.00  0.00    +0.004 C 
ATOM      4  C   UNL     1      -2.006  -5.053   0.059  0.00  0.00    +0.019 C 
ATOM      5  C   UNL     1      -2.930  -4.112  -0.719  0.00  0.00    +0.109 C 
ATOM      6  N   UNL     1      -2.604  -2.724  -0.363  0.00  0.00    -0.285 N 
ATOM      7  C   UNL     1      -3.563  -1.883   0.072  0.00  0.00    +0.264 C 
ATOM      8  O   UNL     1      -3.308  -0.704   0.239  0.00  0.00    -0.268 OA
ENDROOT
BRANCH   7   9
ATOM      9  C   UNL     1      -4.912  -2.387   0.344  0.00  0.00    +0.106 A 
ATOM     10  C   UNL     1      -5.241  -3.675   0.715  0.00  0.00    +0.055 A 
ATOM     11  C   UNL     1      -6.633  -3.717   0.872  0.00  0.00    +0.043 A 
ATOM     12  C   UNL     1      -7.119  -2.477   0.599  0.00  0.00    +0.108 A 
ATOM     13  N   UNL     1      -6.079  -1.660   0.282  0.00  0.00    -0.344 N 
ATOM     14  C   UNL     1      -6.184  -0.242  -0.070  0.00  0.00    +0.149 C 
BRANCH  11  15
ATOM     15  N   UNL     1      -7.393  -4.841   1.245  0.00  0.00    -0.357 N 
ATOM     16  H   UNL     1      -6.952  -5.688   1.419  0.00  0.00    +0.142 HD
ATOM     17  H   UNL     1      -8.356  -4.770   1.327  0.00  0.00    +0.142 HD
ENDBRANCH  11  15
ENDBRANCH   7   9
BRANCH   1  20
ATOM     18  C   UNL     1      -0.518   1.478  -0.146  0.00  0.00    +0.128 C 
ATOM     19  N   UNL     1      -0.648   0.128  -0.700  0.00  0.00    -0.317 N 
ATOM     20  C   UNL     1      -1.079  -0.883   0.081  0.00  0.00    +0.233 C 
ATOM     21  O   UNL     1      -1.359  -0.674   1.243  0.00  0.00    -0.274 OA
ATOM     22  H   UNL     1      -0.424  -0.039  -1.629  0.00  0.00    +0.148 HD
ENDBRANCH   1  20
TORSDOF 3
