REMARK  Name = ZINC36923105
REMARK  5 active torsions:
REMARK  status: ('A' for Active; 'I' for Inactive)
REMARK    1  A    between atoms: C_1  and  C_2
REMARK    2  A    between atoms: C_5  and  C_7
REMARK    3  A    between atoms: C_10  and  C_12
REMARK    4  A    between atoms: C_12  and  N_13
REMARK    5  A    between atoms: N_13  and  C_14
REMARK                            x       y       z     vdW  Elec       q    Type
REMARK                         _______ _______ _______ _____ _____    ______ ____
ROOT
ATOM      1  N   UNL     1       1.294  -6.343   0.787  0.00  0.00    -0.334 N 
ATOM      2  H   UNL     1       1.215  -5.993   1.688  0.00  0.00    +0.147 HD
ENDROOT
BRANCH   1   3
ATOM      3  C   UNL     1       0.952  -7.671   0.520  0.00  0.00    +0.073 A 
ATOM      4  C   UNL     1       0.832  -8.567   1.560  0.00  0.00    +0.064 A 
ATOM      5  C   UNL     1       0.495  -9.894   1.335  0.00  0.00    +0.023 A 
ATOM      6  C   UNL     1       0.274 -10.329   0.042  0.00  0.00    +0.019 A 
ATOM      7  C   UNL     1       0.390  -9.444  -1.003  0.00  0.00    +0.041 A 
ATOM      8  C   UNL     1       0.726  -8.084  -0.819  0.00  0.00    +0.100 A 
ATOM      9  N   UNL     1       0.795  -7.342  -1.945  0.00  0.00    -0.246 NA
ATOM     10  C   UNL     1       0.564  -7.836  -3.131  0.00  0.00    +0.157 A 
ATOM     11  S   UNL     1       0.206  -9.549  -2.768  0.00  0.00    -0.075 S 
ATOM     12 CL   UNL     1       1.109  -8.024   3.185  0.00  0.00    -0.082 Cl
ENDBRANCH   1   3
BRANCH   1  13
ATOM     13  C   UNL     1       1.770  -5.477  -0.295  0.00  0.00    +0.176 C 
BRANCH  13  17
ATOM     14  C   UNL     1       2.131  -2.071   0.970  0.00  0.00    +0.109 A 
ATOM     15  C   UNL     1       3.391  -2.503   1.157  0.00  0.00    +0.045 A 
ATOM     16  C   UNL     1       3.435  -3.843   0.709  0.00  0.00    +0.046 A 
ATOM     17  C   UNL     1       2.200  -4.150   0.275  0.00  0.00    +0.122 A 
ATOM     18  O   UNL     1       1.412  -3.075   0.441  0.00  0.00    -0.463 OA
BRANCH  14  22
ATOM     19  C   UNL     1       1.260   1.651   0.202  0.00  0.00    +0.008 C 
ATOM     20  C   UNL     1       1.034   0.138   0.158  0.00  0.00    -0.003 C 
ATOM     21  C   UNL     1       0.101  -0.469   1.208  0.00  0.00    +0.015 C 
ATOM     22  C   UNL     1       1.612  -0.696   1.303  0.00  0.00    +0.058 C 
ENDBRANCH  14  22
ENDBRANCH  13  17
ENDBRANCH   1  13
TORSDOF 4
