REMARK  Name = ZINC55169613
REMARK  2 active torsions:
REMARK  status: ('A' for Active; 'I' for Inactive)
REMARK    1  A    between atoms: C_4  and  C_6
REMARK    2  A    between atoms: C_12  and  C_14
REMARK                            x       y       z     vdW  Elec       q    Type
REMARK                         _______ _______ _______ _____ _____    ______ ____
ROOT
ATOM      1  C   UNL     1       1.697  -1.663   0.852  0.00  0.00    +0.080 C 
ATOM      2  C   UNL     1       0.943  -2.865   0.246  0.00  0.00    +0.024 C 
ATOM      3  C   UNL     1       0.406  -3.606   1.499  0.00  0.00    +0.021 C 
ATOM      4  C   UNL     1       0.081  -2.422   2.444  0.00  0.00    +0.108 C 
ATOM      5  N   UNL     1       1.153  -1.436   2.199  0.00  0.00    -0.292 N 
ATOM      6  C   UNL     1       1.566  -0.488   3.063  0.00  0.00    +0.286 C 
ATOM      7  O   UNL     1       2.401   0.326   2.720  0.00  0.00    -0.267 OA
ENDROOT
BRANCH   6   8
ATOM      8  C   UNL     1       1.003  -0.438   4.429  0.00  0.00    +0.238 A 
ATOM      9  N   UNL     1       1.327   0.459   5.376  0.00  0.00    -0.190 NA
ATOM     10  C   UNL     1       0.641   0.215   6.468  0.00  0.00    +0.209 A 
ATOM     11  N   UNL     1      -0.149  -0.858   6.237  0.00  0.00    -0.246 N 
ATOM     12  H   UNL     1      -0.767  -1.269   6.862  0.00  0.00    +0.192 HD
ATOM     13  N   UNL     1       0.097  -1.259   4.915  0.00  0.00    -0.146 NA
ATOM     14  N   UNL     1       0.713   0.932   7.648  0.00  0.00    -0.328 N 
ATOM     15  H   UNL     1       1.313   1.691   7.719  0.00  0.00    +0.145 HD
ATOM     16  H   UNL     1       0.164   0.675   8.406  0.00  0.00    +0.145 HD
ENDBRANCH   6   8
BRANCH   1  20
ATOM     17  C   UNL     1       0.851   0.034  -2.361  0.00  0.00    +0.000 C 
ATOM     18  C   UNL     1      -0.130   0.741  -1.403  0.00  0.00    +0.000 C 
ATOM     19  C   UNL     1      -0.032  -0.073  -0.089  0.00  0.00    +0.005 C 
ATOM     20  C   UNL     1       1.476  -0.420  -0.014  0.00  0.00    +0.010 C 
ATOM     21  C   UNL     1       1.872  -0.705  -1.478  0.00  0.00    +0.005 C 
ENDBRANCH   1  20
TORSDOF 2
