REMARK  Name = ZINC01813704
REMARK  10 active torsions:
REMARK  status: ('A' for Active; 'I' for Inactive)
REMARK    1  A    between atoms: C_1  and  C_2
REMARK    2  A    between atoms: C_3  and  C_33
REMARK    3  A    between atoms: C_4  and  C_26
REMARK    4  A    between atoms: N_17  and  C_20
REMARK    5  A    between atoms: C_20  and  C_21
REMARK    6  A    between atoms: C_33  and  O_35
REMARK    7  A    between atoms: O_35  and  C_36
REMARK    8  A    between atoms: C_36  and  C_37
REMARK    9  A    between atoms: C_37  and  O_38
REMARK   10  A    between atoms: O_38  and  C_39
REMARK                            x       y       z     vdW  Elec       q    Type
REMARK                         _______ _______ _______ _____ _____    ______ ____
ROOT
ATOM      1  C   UNL     1      -0.436   1.899  -0.409  0.00  0.00    +0.066 C 
ATOM      2  C   UNL     1      -0.255   0.404  -0.467  0.00  0.00    +0.053 C 
ATOM      3  C   UNL     1      -1.339  -0.414  -0.333  0.00  0.00    +0.085 C 
ATOM      4  C   UNL     1      -1.115  -1.907  -0.397  0.00  0.00    +0.163 C 
ATOM      5  N   UNL     1       0.283  -2.377  -0.604  0.00  0.00    -0.275 N 
ATOM      6  C   UNL     1       0.678  -3.654  -0.688  0.00  0.00    +0.269 A 
ATOM      7  O   UNL     1      -0.119  -4.566  -0.596  0.00  0.00    -0.266 OA
ATOM      8  C   UNL     1       2.121  -3.916  -0.897  0.00  0.00    +0.093 A 
ATOM      9  C   UNL     1       2.787  -5.121  -1.018  0.00  0.00    +0.065 C 
ATOM     10  C   UNL     1       2.192  -6.468  -1.141  0.00  0.00    +0.010 A 
ATOM     11  C   UNL     1       0.880  -6.932  -1.173  0.00  0.00    +0.010 A 
ATOM     12  C   UNL     1       0.635  -8.284  -1.300  0.00  0.00    +0.001 A 
ATOM     13  C   UNL     1       1.692  -9.175  -1.395  0.00  0.00    +0.002 A 
ATOM     14  C   UNL     1       2.997  -8.726  -1.364  0.00  0.00    +0.024 A 
ATOM     15  C   UNL     1       3.264  -7.367  -1.237  0.00  0.00    +0.045 A 
ATOM     16  N   UNL     1       4.461  -6.663  -1.181  0.00  0.00    -0.263 N 
ATOM     17  C   UNL     1       4.247  -5.341  -1.060  0.00  0.00    +0.253 C 
ATOM     18  O   UNL     1       5.104  -4.480  -0.992  0.00  0.00    -0.270 OA
ATOM     19  S   UNL     1       2.767  -2.252  -0.952  0.00  0.00    -0.045 S 
ATOM     20  C   UNL     1       1.229  -1.383  -0.715  0.00  0.00    +0.178 A 
ATOM     21  N   UNL     1       0.957  -0.106  -0.655  0.00  0.00    -0.228 NA
ENDROOT
BRANCH   4  22
ATOM     22  C   UNL     1      -1.619  -2.507   0.891  0.00  0.00    -0.002 A 
ATOM     23  C   UNL     1      -0.759  -2.671   1.960  0.00  0.00    +0.007 A 
ATOM     24  C   UNL     1      -1.220  -3.221   3.141  0.00  0.00    +0.000 A 
ATOM     25  C   UNL     1      -2.543  -3.608   3.253  0.00  0.00    +0.001 A 
ATOM     26  C   UNL     1      -3.404  -3.445   2.185  0.00  0.00    +0.020 A 
ATOM     27  C   UNL     1      -2.944  -2.889   1.004  0.00  0.00    +0.046 A 
ATOM     28 CL   UNL     1      -4.026  -2.678  -0.336  0.00  0.00    -0.083 Cl
ENDBRANCH   4  22
BRANCH   3  29
ATOM     29  C   UNL     1      -2.628   0.117  -0.139  0.00  0.00    +0.339 C 
ATOM     30  O   UNL     1      -3.399   0.201  -1.078  0.00  0.00    -0.245 OA
BRANCH  29  31
ATOM     31  O   UNL     1      -3.009   0.535   1.087  0.00  0.00    -0.459 OA
BRANCH  31  32
ATOM     32  C   UNL     1      -4.287   1.166   1.190  0.00  0.00    +0.260 C 
BRANCH  32  33
ATOM     33  C   UNL     1      -4.490   1.677   2.617  0.00  0.00    +0.200 C 
BRANCH  33  34
ATOM     34  O   UNL     1      -3.543   2.711   2.892  0.00  0.00    -0.380 OA
ATOM     35  C   UNL     1      -3.648   3.261   4.207  0.00  0.00    +0.194 C 
ENDBRANCH  33  34
ENDBRANCH  32  33
ENDBRANCH  31  32
ENDBRANCH  29  31
ENDBRANCH   3  29
BRANCH  16  36
ATOM     36  C   UNL     1       5.788  -7.281  -1.253  0.00  0.00    +0.140 C 
BRANCH  36  37
ATOM     37  C   UNL     1       6.229  -7.358  -2.692  0.00  0.00    -0.015 C 
ATOM     38  C   UNL     1       7.373  -6.833  -3.055  0.00  0.00    +0.005 C 
ENDBRANCH  36  37
ENDBRANCH  16  36
TORSDOF 8
