REMARK  Name = ZINC36722168
REMARK  4 active torsions:
REMARK  status: ('A' for Active; 'I' for Inactive)
REMARK    1  A    between atoms: C_1  and  C_2
REMARK    2  A    between atoms: C_4  and  C_16
REMARK    3  A    between atoms: C_5  and  C_9
REMARK    4  A    between atoms: C_6  and  C_8
REMARK                            x       y       z     vdW  Elec       q    Type
REMARK                         _______ _______ _______ _____ _____    ______ ____
ROOT
ATOM      1  C   UNL     1      -0.884   1.331   0.370  0.00  0.00    +0.044 C 
ATOM      2  C   UNL     1      -0.411  -0.086   0.174  0.00  0.00    -0.050 A 
ATOM      3  C   UNL     1      -0.355  -0.623  -1.099  0.00  0.00    +0.007 A 
ATOM      4  C   UNL     1       0.078  -1.921  -1.285  0.00  0.00    -0.041 A 
ATOM      5  C   UNL     1       0.458  -2.690  -0.186  0.00  0.00    +0.008 A 
ATOM      6  C   UNL     1       0.398  -2.143   1.094  0.00  0.00    -0.041 A 
ATOM      7  C   UNL     1      -0.031  -0.843   1.267  0.00  0.00    +0.007 A 
ATOM      8  C   UNL     1       0.808  -2.968   2.287  0.00  0.00    +0.044 C 
ATOM      9  C   UNL     1       0.139  -2.505  -2.673  0.00  0.00    +0.044 C 
ENDROOT
BRANCH   5  10
ATOM     10  C   UNL     1       0.923  -4.085  -0.380  0.00  0.00    +0.095 A 
ATOM     11  C   UNL     1       1.983  -4.370  -1.246  0.00  0.00    +0.163 A 
ATOM     12  N   UNL     1       2.372  -5.623  -1.395  0.00  0.00    -0.152 NA
ATOM     13  N   UNL     1       1.786  -6.572  -0.752  0.00  0.00    -0.113 NA
ATOM     14  C   UNL     1       0.778  -6.329   0.076  0.00  0.00    +0.233 A 
ATOM     15  N   UNL     1       0.343  -5.091   0.273  0.00  0.00    -0.212 NA
ATOM     16  N   UNL     1       0.175  -7.380   0.746  0.00  0.00    -0.326 N 
ATOM     17  H   UNL     1       0.491  -8.287   0.610  0.00  0.00    +0.145 HD
ATOM     18  H   UNL     1      -0.562  -7.209   1.353  0.00  0.00    +0.145 HD
ENDBRANCH   5  10
TORSDOF 1
