REMARK  Name = ZINC36500890
REMARK  16 active torsions:
REMARK  status: ('A' for Active; 'I' for Inactive)
REMARK    1  A    between atoms: C_1  and  C_2
REMARK    2  A    between atoms: C_2  and  C_3
REMARK    3  A    between atoms: C_2  and  C_4
REMARK    4  A    between atoms: C_2  and  C_5
REMARK    5  A    between atoms: C_5  and  C_6
REMARK    6  A    between atoms: C_6  and  C_7
REMARK    7  A    between atoms: C_6  and  C_8
REMARK    8  A    between atoms: C_6  and  N_9
REMARK    9  A    between atoms: C_10  and  C_12
REMARK   10  A    between atoms: C_12  and  C_14
REMARK   11  A    between atoms: C_12  and  N_21
REMARK   12  A    between atoms: N_21  and  C_22
REMARK   13  A    between atoms: C_22  and  C_23
REMARK   14  A    between atoms: C_28  and  C_30
REMARK   15  A    between atoms: C_34  and  O_37
REMARK   16  A    between atoms: C_35  and  O_36
REMARK                            x       y       z     vdW  Elec       q    Type
REMARK                         _______ _______ _______ _____ _____    ______ ____
ROOT
ATOM      1  C   UNL     1       5.672  -1.199  -3.443  0.00  0.00    +0.193 C 
ENDROOT
BRANCH   1   2
ATOM      2  C   UNL     1       4.772  -0.685  -4.537  0.00  0.00    -0.018 A 
ATOM      3  C   UNL     1       4.580   0.675  -4.691  0.00  0.00    +0.007 A 
ATOM      4  C   UNL     1       3.755   1.148  -5.694  0.00  0.00    +0.020 A 
ATOM      5  C   UNL     1       3.120   0.259  -6.543  0.00  0.00    +0.041 A 
ATOM      6  C   UNL     1       3.312  -1.102  -6.388  0.00  0.00    +0.020 A 
ATOM      7  C   UNL     1       4.143  -1.573  -5.389  0.00  0.00    +0.007 A 
ATOM      8 CL   UNL     1       2.083   0.852  -7.803  0.00  0.00    -0.084 Cl
ENDBRANCH   1   2
BRANCH   1  10
ATOM      9  N   UNL     1       3.828  -2.239  -2.164  0.00  0.00    -0.308 N 
ATOM     10  C   UNL     1       4.872  -1.386  -2.180  0.00  0.00    +0.239 C 
ATOM     11  O   UNL     1       5.167  -0.770  -1.178  0.00  0.00    -0.273 OA
ATOM     12  H   UNL     1       3.592  -2.732  -2.965  0.00  0.00    +0.149 HD
BRANCH   9  13
ATOM     13  C   UNL     1       3.050  -2.421  -0.936  0.00  0.00    +0.030 C 
ATOM     14  C   UNL     1       2.606  -1.055  -0.406  0.00  0.00    +0.031 C 
ATOM     15  C   UNL     1       3.913  -3.120   0.116  0.00  0.00    +0.031 C 
BRANCH  13  16
ATOM     16  C   UNL     1       1.817  -3.277  -1.235  0.00  0.00    +0.031 C 
BRANCH  16  18
ATOM     17  C   UNL     1       1.797  -3.011  -3.719  0.00  0.00    +0.010 C 
ATOM     18  C   UNL     1       1.058  -2.680  -2.421  0.00  0.00    -0.036 C 
ATOM     19  C   UNL     1       0.969  -1.161  -2.259  0.00  0.00    +0.010 C 
ATOM     20  C   UNL     1      -0.353  -3.270  -2.473  0.00  0.00    +0.010 C 
ENDBRANCH  16  18
ENDBRANCH  13  16
ENDBRANCH   9  13
ENDBRANCH   1  10
BRANCH   1  21
ATOM     21  N   UNL     1       6.748  -0.234  -3.201  0.00  0.00    -0.275 N 
ATOM     22  C   UNL     1       7.693  -0.030  -4.140  0.00  0.00    +0.252 C 
ATOM     23  O   UNL     1       8.598   0.755  -3.931  0.00  0.00    -0.270 OA
BRANCH  22  24
ATOM     24  C   UNL     1       7.631  -0.760  -5.421  0.00  0.00    +0.082 A 
ATOM     25  C   UNL     1       6.594  -1.665  -5.664  0.00  0.00    +0.017 A 
ATOM     26  C   UNL     1       6.539  -2.344  -6.862  0.00  0.00    +0.005 A 
ATOM     27  C   UNL     1       7.508  -2.136  -7.829  0.00  0.00    +0.049 A 
ATOM     28  C   UNL     1       8.542  -1.244  -7.603  0.00  0.00    +0.159 A 
ATOM     29  C   UNL     1       8.608  -0.546  -6.400  0.00  0.00    +0.171 A 
BRANCH  29  30
ATOM     30  O   UNL     1       9.617   0.335  -6.177  0.00  0.00    -0.503 OA
ATOM     31  H   UNL     1      10.399  -0.059  -5.766  0.00  0.00    +0.292 HD
ENDBRANCH  29  30
BRANCH  28  32
ATOM     32  O   UNL     1       9.490  -1.045  -8.557  0.00  0.00    -0.503 OA
ATOM     33  H   UNL     1       9.279  -0.336  -9.180  0.00  0.00    +0.292 HD
ENDBRANCH  28  32
ENDBRANCH  22  24
BRANCH  21  34
ATOM     34  C   UNL     1       6.795   0.509  -1.940  0.00  0.00    +0.183 C 
BRANCH  34  35
ATOM     35  C   UNL     1       7.388  -0.365  -0.864  0.00  0.00    +0.122 A 
ATOM     36  C   UNL     1       8.679  -0.382  -0.488  0.00  0.00    +0.046 A 
ATOM     37  C   UNL     1       8.792  -1.342   0.544  0.00  0.00    +0.041 A 
ATOM     38  C   UNL     1       7.562  -1.853   0.737  0.00  0.00    +0.195 A 
ATOM     39  O   UNL     1       6.715  -1.253  -0.115  0.00  0.00    -0.466 OA
ENDBRANCH  34  35
ENDBRANCH  21  34
ENDBRANCH   1  21
TORSDOF 11
