REMARK  Name = ZINC04784486
REMARK  9 active torsions:
REMARK  status: ('A' for Active; 'I' for Inactive)
REMARK    1  A    between atoms: C_1  and  C_2
REMARK    2  A    between atoms: C_2  and  C_3
REMARK    3  A    between atoms: C_3  and  C_5
REMARK    4  A    between atoms: C_3  and  C_6
REMARK    5  A    between atoms: C_9  and  O_12
REMARK    6  A    between atoms: O_12  and  C_13
REMARK    7  A    between atoms: C_13  and  C_14
REMARK    8  A    between atoms: N_16  and  N_17
REMARK    9  A    between atoms: C_18  and  C_19
REMARK                            x       y       z     vdW  Elec       q    Type
REMARK                         _______ _______ _______ _____ _____    ______ ____
ROOT
ATOM      1  C   UNL     1       2.403   5.479  -0.292  0.00  0.00    +0.270 C 
ATOM      2  O   UNL     1       3.444   6.094  -0.390  0.00  0.00    -0.270 OA
ATOM      3  N   UNL     1       2.424   4.145  -0.097  0.00  0.00    -0.204 N 
ATOM      4  H   UNL     1       1.595   3.664   0.054  0.00  0.00    +0.177 HD
ENDROOT
BRANCH   3   5
ATOM      5  N   UNL     1       3.643   3.454  -0.112  0.00  0.00    -0.187 NA
ATOM      6  C   UNL     1       3.655   2.159  -0.027  0.00  0.00    +0.142 C 
BRANCH   6   7
ATOM      7  C   UNL     1       2.388   1.406  -0.058  0.00  0.00    +0.048 A 
ATOM      8  C   UNL     1       1.502   1.563  -1.129  0.00  0.00    +0.133 A 
ATOM      9  C   UNL     1       0.317   0.853  -1.150  0.00  0.00    +0.039 A 
ATOM     10  C   UNL     1       0.007  -0.011  -0.115  0.00  0.00    +0.004 A 
ATOM     11  C   UNL     1       0.878  -0.172   0.947  0.00  0.00    +0.021 A 
ATOM     12  C   UNL     1       2.067   0.530   0.983  0.00  0.00    +0.052 A 
ATOM     13 CL   UNL     1       3.158   0.327   2.318  0.00  0.00    -0.083 Cl
ATOM     14  F   UNL     1       1.804   2.408  -2.139  0.00  0.00    -0.205 F 
ENDBRANCH   6   7
ENDBRANCH   3   5
BRANCH   1  15
ATOM     15  C   UNL     1       1.086   6.205  -0.389  0.00  0.00    +0.326 C 
BRANCH  15  16
ATOM     16  O   UNL     1       1.325   7.599  -0.595  0.00  0.00    -0.483 OA
BRANCH  16  20
ATOM     17  C   UNL     1      -1.985  10.038  -0.928  0.00  0.00    -0.044 A 
ATOM     18  C   UNL     1      -0.717  10.580  -1.017  0.00  0.00    +0.007 A 
ATOM     19  C   UNL     1       0.394   9.766  -0.906  0.00  0.00    +0.046 A 
ATOM     20  C   UNL     1       0.235   8.402  -0.705  0.00  0.00    +0.121 A 
ATOM     21  C   UNL     1      -1.039   7.860  -0.622  0.00  0.00    +0.046 A 
ATOM     22  C   UNL     1      -2.146   8.679  -0.728  0.00  0.00    +0.007 A 
BRANCH  17  23
ATOM     23  C   UNL     1      -3.195  10.929  -1.049  0.00  0.00    +0.016 C 
ATOM     24  C   UNL     1      -4.025  10.839   0.233  0.00  0.00    +0.012 C 
BRANCH  23  26
ATOM     25  C   UNL     1      -5.203  11.455  -2.439  0.00  0.00    +0.004 C 
ATOM     26  C   UNL     1      -4.044  10.477  -2.239  0.00  0.00    +0.004 C 
ENDBRANCH  23  26
ENDBRANCH  17  23
ENDBRANCH  16  20
ENDBRANCH  15  16
ENDBRANCH   1  15
TORSDOF 7
