REMARK  Name = ZINC62038809
REMARK  8 active torsions:
REMARK  status: ('A' for Active; 'I' for Inactive)
REMARK    1  A    between atoms: C_1  and  C_2
REMARK    2  A    between atoms: C_14  and  S_16
REMARK    3  A    between atoms: S_16  and  C_17
REMARK    4  A    between atoms: C_17  and  C_19
REMARK    5  A    between atoms: C_17  and  C_20
REMARK    6  A    between atoms: N_22  and  C_23
REMARK    7  A    between atoms: C_25  and  C_30
REMARK    8  A    between atoms: C_28  and  O_29
REMARK                            x       y       z     vdW  Elec       q    Type
REMARK                         _______ _______ _______ _____ _____    ______ ____
ROOT
ATOM      1  S   UNL     1      -0.328  -8.465   2.295  0.00  0.00    -0.075 S 
ENDROOT
BRANCH   1  14
ATOM      2  C   UNL     1      -0.054   1.544   0.108  0.00  0.00    +0.008 C 
ATOM      3  C   UNL     1      -0.029   0.015   0.088  0.00  0.00    -0.009 C 
ATOM      4  C   UNL     1      -1.463  -0.523   0.102  0.00  0.00    +0.008 C 
ATOM      5  C   UNL     1      -1.455  -2.028  -0.166  0.00  0.00    +0.037 C 
ATOM      6  C   UNL     1      -0.496  -2.700   0.812  0.00  0.00    -0.023 A 
ATOM      7  C   UNL     1       0.449  -1.975   1.456  0.00  0.00    -0.004 A 
ATOM      8  S   UNL     1       1.316  -3.145   2.470  0.00  0.00    -0.075 S 
ATOM      9  C   UNL     1       0.412  -4.592   2.029  0.00  0.00    +0.092 A 
ATOM     10  C   UNL     1      -0.537  -4.122   1.107  0.00  0.00    +0.075 A 
ATOM     11  C   UNL     1      -1.470  -5.126   0.538  0.00  0.00    +0.282 A 
ATOM     12  O   UNL     1      -2.332  -4.822  -0.272  0.00  0.00    -0.265 OA
ATOM     13  N   UNL     1      -1.312  -6.390   0.968  0.00  0.00    -0.185 NA
ATOM     14  C   UNL     1      -0.400  -6.765   1.837  0.00  0.00    +0.171 A 
ATOM     15  N   UNL     1       0.498  -5.897   2.405  0.00  0.00    -0.328 N 
ATOM     16  C   UNL     1       0.707  -0.505   1.332  0.00  0.00    +0.046 C 
ATOM     17  H   UNL     1       1.162  -6.199   3.044  0.00  0.00    +0.168 HD
ENDBRANCH   1  14
BRANCH   1  18
ATOM     18  C   UNL     1      -1.658  -9.236   1.333  0.00  0.00    +0.137 C 
ATOM     19  C   UNL     1      -1.332  -9.138  -0.159  0.00  0.00    +0.029 C 
BRANCH  18  20
ATOM     20  C   UNL     1      -1.787 -10.685   1.725  0.00  0.00    +0.230 C 
ATOM     21  O   UNL     1      -0.864 -11.249   2.274  0.00  0.00    -0.274 OA
ATOM     22  N   UNL     1      -2.928 -11.354   1.466  0.00  0.00    -0.282 N 
ATOM     23  H   UNL     1      -3.689 -10.887   1.087  0.00  0.00    +0.155 HD
BRANCH  22  24
ATOM     24  C   UNL     1      -3.015 -12.725   1.745  0.00  0.00    +0.076 A 
ATOM     25  C   UNL     1      -2.357 -13.251   2.841  0.00  0.00    +0.038 A 
ATOM     26  C   UNL     1      -2.446 -14.620   3.115  0.00  0.00    +0.016 A 
ATOM     27  C   UNL     1      -3.202 -15.450   2.278  0.00  0.00    +0.015 A 
ATOM     28  C   UNL     1      -3.855 -14.919   1.189  0.00  0.00    +0.048 A 
ATOM     29  C   UNL     1      -3.771 -13.559   0.919  0.00  0.00    +0.138 A 
BRANCH  29  30
ATOM     30  O   UNL     1      -4.421 -13.040  -0.154  0.00  0.00    -0.505 OA
ATOM     31  H   UNL     1      -3.898 -13.038  -0.967  0.00  0.00    +0.292 HD
ENDBRANCH  29  30
BRANCH  26  32
ATOM     32  C   UNL     1      -1.749 -15.185   4.278  0.00  0.00    +0.258 C 
ATOM     33  O   UNL     1      -1.828 -16.372   4.514  0.00  0.00    -0.296 OA
ENDBRANCH  26  32
ENDBRANCH  22  24
ENDBRANCH  18  20
ENDBRANCH   1  18
TORSDOF 6
