REMARK  Name = ZINC63151327
REMARK  3 active torsions:
REMARK  status: ('A' for Active; 'I' for Inactive)
REMARK    1  A    between atoms: C_5  and  C_6
REMARK    2  A    between atoms: C_6  and  N_7
REMARK    3  A    between atoms: C_9  and  N_15
REMARK                            x       y       z     vdW  Elec       q    Type
REMARK                         _______ _______ _______ _____ _____    ______ ____
ROOT
ATOM      1  N   UNL     1      -1.717  -1.032  -1.368  0.00  0.00    -0.323 N 
ATOM      2  C   UNL     1      -2.884  -1.738  -1.613  0.00  0.00    +0.154 A 
ATOM      3  C   UNL     1      -3.302  -1.984  -2.922  0.00  0.00    +0.202 A 
ATOM      4  C   UNL     1      -4.473  -2.693  -3.114  0.00  0.00    +0.164 A 
ATOM      5  N   UNL     1      -5.156  -3.113  -2.057  0.00  0.00    -0.222 NA
ATOM      6  C   UNL     1      -4.734  -2.864  -0.834  0.00  0.00    +0.225 A 
ATOM      7  N   UNL     1      -3.620  -2.197  -0.605  0.00  0.00    -0.219 NA
ATOM      8 CL   UNL     1      -5.044  -3.029  -4.719  0.00  0.00    -0.059 Cl
ATOM      9  H   UNL     1      -1.186  -0.701  -2.109  0.00  0.00    +0.148 HD
ENDROOT
BRANCH   3  10
ATOM     10  N   UNL     1      -2.511  -1.498  -4.075  0.00  0.00    +0.063 N 
ATOM     11  O   UNL     1      -1.645  -2.194  -4.551  0.00  0.00    -0.126 OA
ATOM     12  O   UNL     1      -2.731  -0.404  -4.540  0.00  0.00    -0.126 OA
ENDBRANCH   3  10
BRANCH   1  13
ATOM     13  C   UNL     1      -1.286  -0.786   0.011  0.00  0.00    +0.138 C 
BRANCH  13  18
ATOM     14  C   UNL     1      -0.017   1.378   0.010  0.00  0.00    +0.013 A 
ATOM     15  C   UNL     1       1.160   2.051   0.002  0.00  0.00    +0.045 A 
ATOM     16  S   UNL     1       2.348   0.719  -0.017  0.00  0.00    -0.105 S 
ATOM     17  C   UNL     1       1.196  -0.645  -0.013  0.00  0.00    +0.050 A 
ATOM     18  C   UNL     1       0.002  -0.004   0.002  0.00  0.00    -0.023 A 
ENDBRANCH  13  18
ENDBRANCH   1  13
TORSDOF 3
