REMARK  Name = ZINC51289497
REMARK  9 active torsions:
REMARK  status: ('A' for Active; 'I' for Inactive)
REMARK    1  A    between atoms: C_1  and  C_2
REMARK    2  A    between atoms: C_2  and  C_3
REMARK    3  A    between atoms: C_2  and  C_4
REMARK    4  A    between atoms: C_7  and  C_10
REMARK    5  A    between atoms: C_10  and  C_12
REMARK    6  A    between atoms: C_10  and  O_26
REMARK    7  A    between atoms: C_12  and  N_13
REMARK    8  A    between atoms: C_15  and  N_23
REMARK    9  A    between atoms: C_17  and  C_20
REMARK                            x       y       z     vdW  Elec       q    Type
REMARK                         _______ _______ _______ _____ _____    ______ ____
ROOT
ATOM      1  N   UNL     1       2.892  -3.756  -6.307  0.00  0.00    -0.310 N 
ATOM      2  C   UNL     1       2.362  -3.486  -7.524  0.00  0.00    +0.122 A 
ATOM      3  C   UNL     1       2.974  -3.895  -8.665  0.00  0.00    +0.143 A 
ATOM      4  C   UNL     1       4.172  -4.607  -8.600  0.00  0.00    +0.052 A 
ATOM      5  C   UNL     1       4.723  -4.888  -7.351  0.00  0.00    +0.103 A 
ATOM      6  C   UNL     1       4.048  -4.435  -6.188  0.00  0.00    +0.264 A 
ATOM      7  O   UNL     1       4.512  -4.664  -5.084  0.00  0.00    -0.267 OA
ENDROOT
BRANCH   5   8
ATOM      8  C   UNL     1       5.984  -5.637  -7.241  0.00  0.00    +0.247 C 
ATOM      9  O   UNL     1       6.500  -6.109  -8.236  0.00  0.00    -0.270 OA
ATOM     10  N   UNL     1       6.567  -5.801  -6.037  0.00  0.00    -0.325 N 
ATOM     11  H   UNL     1       6.119  -5.490  -5.235  0.00  0.00    +0.145 HD
ATOM     12  H   UNL     1       7.435  -6.230  -5.973  0.00  0.00    +0.145 HD
ENDBRANCH   5   8
BRANCH   3  13
ATOM     13  N   UNL     1       2.369  -3.585  -9.979  0.00  0.00    +0.058 N 
ATOM     14  O   UNL     1       1.331  -2.968 -10.037  0.00  0.00    -0.126 OA
ATOM     15  O   UNL     1       2.914  -3.949 -10.996  0.00  0.00    -0.126 OA
ENDBRANCH   3  13
BRANCH   1  16
ATOM     16  C   UNL     1       2.198  -3.296  -5.101  0.00  0.00    +0.161 C 
BRANCH  16  17
ATOM     17  C   UNL     1       2.691  -1.895  -4.732  0.00  0.00    +0.164 C 
BRANCH  17  21
ATOM     18  C   UNL     1       0.667  -0.557  -1.216  0.00  0.00    -0.045 A 
ATOM     19  C   UNL     1       0.191  -0.203  -2.465  0.00  0.00    +0.004 A 
ATOM     20  C   UNL     1       0.846  -0.636  -3.603  0.00  0.00    +0.006 A 
ATOM     21  C   UNL     1       1.977  -1.423  -3.492  0.00  0.00    -0.017 A 
ATOM     22  C   UNL     1       2.454  -1.775  -2.243  0.00  0.00    +0.006 A 
ATOM     23  C   UNL     1       1.802  -1.339  -1.105  0.00  0.00    +0.004 A 
BRANCH  18  25
ATOM     24  C   UNL     1      -0.067   1.445   0.050  0.00  0.00    +0.012 C 
ATOM     25  C   UNL     1      -0.047  -0.085   0.024  0.00  0.00    +0.013 C 
ATOM     26  C   UNL     1      -1.482  -0.614   0.019  0.00  0.00    +0.012 C 
ENDBRANCH  18  25
ENDBRANCH  17  21
BRANCH  17  27
ATOM     27  O   UNL     1       4.098  -1.935  -4.487  0.00  0.00    -0.385 OA
ATOM     28  H   UNL     1       4.355  -2.526  -3.767  0.00  0.00    +0.210 HD
ENDBRANCH  17  27
ENDBRANCH  16  17
ENDBRANCH   1  16
TORSDOF 7
