REMARK  Name = ZINC18055229
REMARK  8 active torsions:
REMARK  status: ('A' for Active; 'I' for Inactive)
REMARK    1  A    between atoms: C_1  and  C_2
REMARK    2  A    between atoms: C_2  and  C_37
REMARK    3  A    between atoms: C_6  and  C_18
REMARK    4  A    between atoms: C_21  and  O_26
REMARK    5  A    between atoms: C_22  and  O_24
REMARK    6  A    between atoms: O_24  and  C_25
REMARK    7  A    between atoms: O_26  and  C_27
REMARK    8  A    between atoms: C_27  and  C_28
REMARK                            x       y       z     vdW  Elec       q    Type
REMARK                         _______ _______ _______ _____ _____    ______ ____
ROOT
ATOM      1  C   UNL     1      -0.809   3.145   2.211  0.00  0.00    +0.011 C 
ATOM      2  C   UNL     1      -1.229   3.398   0.761  0.00  0.00    -0.023 C 
ATOM      3  C   UNL     1      -1.354   2.064   0.020  0.00  0.00    +0.058 C 
ATOM      4  C   UNL     1      -0.017   1.365   0.009  0.00  0.00    +0.017 C 
ATOM      5  C   UNL     1       1.135   2.068   0.002  0.00  0.00    +0.024 C 
ATOM      6  C   UNL     1       2.470   1.368  -0.014  0.00  0.00    +0.093 C 
ATOM      7  C   UNL     1       2.329  -0.063  -0.443  0.00  0.00    +0.069 A 
ATOM      8  C   UNL     1       1.118  -0.686  -0.415  0.00  0.00    +0.135 A 
ATOM      9  N   UNL     1       1.021  -1.999  -0.805  0.00  0.00    -0.207 NA
ATOM     10  C   UNL     1       2.113  -2.668  -1.218  0.00  0.00    +0.182 A 
ATOM     11  S   UNL     1       1.969  -4.304  -1.700  0.00  0.00    -0.011 S 
ATOM     12  N   UNL     1       3.318  -2.070  -1.256  0.00  0.00    -0.301 N 
ATOM     13  H   UNL     1       4.200  -2.631  -1.597  0.00  0.00    +0.171 HD
ATOM     14  C   UNL     1       3.456  -0.783  -0.880  0.00  0.00    +0.258 A 
ATOM     15  O   UNL     1       4.550  -0.247  -0.919  0.00  0.00    -0.267 OA
ATOM     16  N   UNL     1       0.002  -0.004   0.002  0.00  0.00    -0.302 N 
ATOM     17  C   UNL     1       1.126   3.474   0.014  0.00  0.00    +0.162 C 
ATOM     18  O   UNL     1       2.180   4.077  -0.010  0.00  0.00    -0.292 OA
ATOM     19  C   UNL     1      -0.165   4.245   0.057  0.00  0.00    +0.086 C 
ATOM     20  C   UNL     1      -2.571   4.132   0.736  0.00  0.00    +0.011 C 
ATOM     21  H   UNL     1      -0.883  -0.568   0.332  0.00  0.00    +0.153 HD
ENDROOT
BRANCH   6  22
ATOM     22  C   UNL     1       3.068   1.413   1.369  0.00  0.00    -0.032 A 
ATOM     23  C   UNL     1       2.409   0.810   2.424  0.00  0.00    +0.008 A 
ATOM     24  C   UNL     1       2.956   0.843   3.694  0.00  0.00    +0.050 A 
ATOM     25  C   UNL     1       4.161   1.491   3.912  0.00  0.00    +0.162 A 
ATOM     26  C   UNL     1       4.821   2.103   2.851  0.00  0.00    +0.162 A 
ATOM     27  C   UNL     1       4.270   2.061   1.580  0.00  0.00    +0.054 A 
BRANCH  26  28
ATOM     28  O   UNL     1       6.004   2.740   3.060  0.00  0.00    -0.491 OA
ATOM     29  C   UNL     1       6.625   3.345   1.924  0.00  0.00    +0.277 C 
ENDBRANCH  26  28
BRANCH  25  30
ATOM     30  O   UNL     1       4.698   1.529   5.161  0.00  0.00    -0.484 OA
BRANCH  30  31
ATOM     31  C   UNL     1       3.965   0.880   6.202  0.00  0.00    +0.264 C 
BRANCH  31  32
ATOM     32  C   UNL     1       4.708   1.026   7.505  0.00  0.00    -0.010 A 
ATOM     33  C   UNL     1       5.633   0.070   7.884  0.00  0.00    +0.007 A 
ATOM     34  C   UNL     1       6.318   0.206   9.077  0.00  0.00    +0.000 A 
ATOM     35  C   UNL     1       6.071   1.292   9.896  0.00  0.00    +0.000 A 
ATOM     36  C   UNL     1       5.142   2.244   9.520  0.00  0.00    +0.000 A 
ATOM     37  C   UNL     1       4.461   2.111   8.324  0.00  0.00    +0.007 A 
ENDBRANCH  31  32
ENDBRANCH  30  31
ENDBRANCH  25  30
ENDBRANCH   6  22
TORSDOF 5
