REMARK  Name = ZINC47285501
REMARK  5 active torsions:
REMARK  status: ('A' for Active; 'I' for Inactive)
REMARK    1  A    between atoms: C_1  and  C_2
REMARK    2  A    between atoms: C_2  and  C_27
REMARK    3  A    between atoms: C_7  and  N_11
REMARK    4  A    between atoms: C_12  and  C_14
REMARK    5  A    between atoms: N_20  and  C_21
REMARK                            x       y       z     vdW  Elec       q    Type
REMARK                         _______ _______ _______ _____ _____    ______ ____
ROOT
ATOM      1  N   UNL     1      -0.407  -4.573   3.832  0.00  0.00    -0.280 N 
ATOM      2  C   UNL     1      -1.173  -5.680   3.901  0.00  0.00    +0.267 C 
ATOM      3  O   UNL     1      -2.258  -5.705   3.350  0.00  0.00    -0.268 OA
ATOM      4  H   UNL     1       0.486  -4.577   4.211  0.00  0.00    +0.155 HD
ENDROOT
BRANCH   1  11
ATOM      5  C   UNL     1      -4.978   0.424   1.408  0.00  0.00    +0.104 C 
ATOM      6  C   UNL     1      -3.800  -0.035   2.270  0.00  0.00    +0.248 C 
ATOM      7  O   UNL     1      -2.590  -0.077   1.491  0.00  0.00    -0.448 OA
ATOM      8  C   UNL     1      -1.874  -1.129   1.988  0.00  0.00    +0.167 A 
ATOM      9  C   UNL     1      -0.535  -1.466   1.867  0.00  0.00    +0.051 A 
ATOM     10  C   UNL     1      -0.049  -2.606   2.478  0.00  0.00    +0.027 A 
ATOM     11  C   UNL     1      -0.901  -3.418   3.214  0.00  0.00    +0.037 A 
ATOM     12  C   UNL     1      -2.243  -3.084   3.338  0.00  0.00    +0.073 A 
ATOM     13  C   UNL     1      -2.731  -1.941   2.726  0.00  0.00    +0.169 A 
ATOM     14  O   UNL     1      -3.983  -1.399   2.692  0.00  0.00    -0.448 OA
ATOM     15  C   UNL     1      -3.632   0.885   3.481  0.00  0.00    +0.104 C 
ENDBRANCH   1  11
BRANCH   2  16
ATOM     16  C   UNL     1      -0.699  -6.855   4.639  0.00  0.00    +0.127 A 
ATOM     17  C   UNL     1       0.455  -6.951   5.339  0.00  0.00    +0.116 A 
ATOM     18  N   UNL     1       0.518  -8.209   5.875  0.00  0.00    -0.339 N 
ATOM     19  H   UNL     1       1.239  -8.554   6.425  0.00  0.00    +0.167 HD
ATOM     20  C   UNL     1      -0.586  -8.889   5.512  0.00  0.00    +0.163 A 
ATOM     21  S   UNL     1      -0.951 -10.505   5.944  0.00  0.00    -0.013 S 
ATOM     22  N   UNL     1      -1.358  -8.083   4.757  0.00  0.00    -0.284 N 
BRANCH  22  23
ATOM     23  C   UNL     1      -2.594  -8.416   4.189  0.00  0.00    +0.049 A 
ATOM     24  C   UNL     1      -2.727  -8.492   2.809  0.00  0.00    +0.026 A 
ATOM     25  C   UNL     1      -3.948  -8.821   2.253  0.00  0.00    +0.002 A 
ATOM     26  C   UNL     1      -5.036  -9.073   3.068  0.00  0.00    +0.000 A 
ATOM     27  C   UNL     1      -4.906  -8.997   4.443  0.00  0.00    +0.002 A 
ATOM     28  C   UNL     1      -3.687  -8.675   5.006  0.00  0.00    +0.026 A 
ENDBRANCH  22  23
ENDBRANCH   2  16
TORSDOF 3
