REMARK  Name = ZINC05215348
REMARK  8 active torsions:
REMARK  status: ('A' for Active; 'I' for Inactive)
REMARK    1  A    between atoms: C_2  and  C_23
REMARK    2  A    between atoms: N_9  and  C1*_10
REMARK    3  A    between atoms: C2*_12  and  O2*_22
REMARK    4  A    between atoms: C3*_14  and  O3*_21
REMARK    5  A    between atoms: C4*_16  and  C5*_19
REMARK    6  A    between atoms: C5*_19  and  O5*_20
REMARK    7  A    between atoms: C_23  and  C_24
REMARK    8  A    between atoms: C_24  and  C_25
REMARK                            x       y       z     vdW  Elec       q    Type
REMARK                         _______ _______ _______ _____ _____    ______ ____
ROOT
ATOM      1  C   UNL     1      -2.142   3.164  -2.738  0.00  0.00    +0.102 A 
ATOM      2  C   UNL     1      -2.775   4.023  -3.566  0.00  0.00    +0.039 A 
ATOM      3  C   UNL     1      -4.094   4.433  -3.255  0.00  0.00    +0.257 A 
ATOM      4  O   UNL     1      -4.683   5.212  -3.983  0.00  0.00    -0.267 OA
ATOM      5  N   UNL     1      -4.691   3.954  -2.145  0.00  0.00    -0.275 N 
ATOM      6  H   UNL     1      -5.623   4.239  -1.919  0.00  0.00    +0.173 HD
ATOM      7  C   UNL     1      -4.039   3.094  -1.341  0.00  0.00    +0.331 A 
ATOM      8  O   UNL     1      -4.591   2.670  -0.344  0.00  0.00    -0.246 OA
ATOM      9  N   UNL     1      -2.786   2.697  -1.625  0.00  0.00    -0.271 N 
ENDROOT
BRANCH   9  10
ATOM     10  C1* UNL     1      -2.102   1.760  -0.730  0.00  0.00    +0.255 C 
ATOM     11  C2* UNL     1      -1.975   2.358   0.694  0.00  0.00    +0.195 C 
ATOM     12  C3* UNL     1      -0.754   1.593   1.260  0.00  0.00    +0.178 C 
ATOM     13  C4* UNL     1      -0.013   1.086   0.008  0.00  0.00    +0.177 C 
ATOM     14  O4* UNL     1      -0.727   1.571  -1.141  0.00  0.00    -0.346 OA
BRANCH  12  15
ATOM     15  O3* UNL     1       0.083   2.470   2.016  0.00  0.00    -0.386 OA
ATOM     16  H3* UNL     1       0.891   2.055   2.346  0.00  0.00    +0.210 HD
ENDBRANCH  12  15
BRANCH  11  17
ATOM     17  O2* UNL     1      -3.148   2.090   1.465  0.00  0.00    -0.385 OA
ATOM     18  H2* UNL     1      -3.082   2.365   2.390  0.00  0.00    +0.210 HD
ENDBRANCH  11  17
BRANCH  13  19
ATOM     19  C5* UNL     1       1.419   1.625  -0.003  0.00  0.00    +0.190 C 
BRANCH  19  20
ATOM     20  O5* UNL     1       2.131   1.063  -1.107  0.00  0.00    -0.392 OA
ATOM     21  H5* UNL     1       3.049   1.362  -1.176  0.00  0.00    +0.210 HD
ENDBRANCH  19  20
ENDBRANCH  13  19
ENDBRANCH   9  10
BRANCH   2  22
ATOM     22  C   UNL     1      -2.084   4.544  -4.799  0.00  0.00    +0.127 C 
BRANCH  22  23
ATOM     23  C   UNL     1      -2.474   3.684  -6.003  0.00  0.00    +0.346 C 
ATOM     24  F   UNL     1      -2.086   2.359  -5.776  0.00  0.00    -0.195 F 
ATOM     25  F   UNL     1      -3.860   3.739  -6.187  0.00  0.00    -0.195 F 
BRANCH  23  26
ATOM     26  C   UNL     1      -1.772   4.213  -7.256  0.00  0.00    +0.454 C 
ATOM     27  F   UNL     1      -0.386   4.158  -7.073  0.00  0.00    -0.165 F 
ATOM     28  F   UNL     1      -2.129   3.426  -8.357  0.00  0.00    -0.165 F 
ATOM     29  F   UNL     1      -2.160   5.537  -7.484  0.00  0.00    -0.165 F 
ENDBRANCH  23  26
ENDBRANCH  22  23
ENDBRANCH   2  22
TORSDOF 8
