REMARK  Name = ZINC43303630
REMARK  10 active torsions:
REMARK  status: ('A' for Active; 'I' for Inactive)
REMARK    1  A    between atoms: C_1  and  C_2
REMARK    2  A    between atoms: C_2  and  C_4
REMARK    3  A    between atoms: C_2  and  N_17
REMARK    4  A    between atoms: C_4  and  C_6
REMARK    5  A    between atoms: C_7  and  N_16
REMARK    6  A    between atoms: N_8  and  C_15
REMARK    7  A    between atoms: N_11  and  C_14
REMARK    8  A    between atoms: N_17  and  C_18
REMARK    9  A    between atoms: C_22  and  C_24
REMARK   10  A    between atoms: N_26  and  C_27
REMARK                            x       y       z     vdW  Elec       q    Type
REMARK                         _______ _______ _______ _____ _____    ______ ____
ROOT
ATOM      1  C   UNL     1      -0.059   1.561  -0.009  0.00  0.00    +0.036 C 
ATOM      2  C   UNL     1      -0.011   0.032  -0.007  0.00  0.00    +0.139 C 
ENDROOT
BRANCH   2   3
ATOM      3  C   UNL     1      -1.415  -0.515   0.010  0.00  0.00    +0.191 C 
ATOM      4  O   UNL     1      -1.894  -0.990  -1.000  0.00  0.00    -0.290 OA
BRANCH   3   5
ATOM      5  C   UNL     1      -2.174  -0.474   1.200  0.00  0.00    +0.122 A 
ATOM      6  C   UNL     1      -3.524  -0.863   1.212  0.00  0.00    +0.116 A 
ATOM      7  N   UNL     1      -4.217  -0.806   2.388  0.00  0.00    -0.284 N 
ATOM      8  C   UNL     1      -3.634  -0.389   3.522  0.00  0.00    +0.333 A 
ATOM      9  O   UNL     1      -4.293  -0.357   4.542  0.00  0.00    -0.246 OA
ATOM     10  N   UNL     1      -2.347  -0.006   3.571  0.00  0.00    -0.263 N 
ATOM     11  C   UNL     1      -1.575  -0.030   2.465  0.00  0.00    +0.269 A 
ATOM     12  O   UNL     1      -0.408   0.313   2.514  0.00  0.00    -0.267 OA
ATOM     13  C   UNL     1      -1.774   0.439   4.844  0.00  0.00    +0.157 C 
ATOM     14  C   UNL     1      -5.625  -1.209   2.411  0.00  0.00    +0.155 C 
BRANCH   6  15
ATOM     15  N   UNL     1      -4.132  -1.287   0.071  0.00  0.00    -0.344 N 
ATOM     16  H   UNL     1      -3.615  -1.397  -0.742  0.00  0.00    +0.144 HD
ATOM     17  H   UNL     1      -5.083  -1.480   0.071  0.00  0.00    +0.144 HD
ENDBRANCH   6  15
ENDBRANCH   3   5
ENDBRANCH   2   3
BRANCH   2  18
ATOM     18  N   UNL     1       0.681  -0.436  -1.210  0.00  0.00    -0.334 N 
ATOM     19  H   UNL     1       0.171  -0.684  -1.997  0.00  0.00    +0.147 HD
BRANCH  18  20
ATOM     20  C   UNL     1       2.075  -0.526  -1.224  0.00  0.00    +0.028 A 
ATOM     21  C   UNL     1       2.806  -0.176  -0.095  0.00  0.00    +0.023 A 
ATOM     22  C   UNL     1       4.185  -0.263  -0.103  0.00  0.00    +0.003 A 
ATOM     23  C   UNL     1       4.846  -0.698  -1.234  0.00  0.00    +0.013 A 
ATOM     24  C   UNL     1       4.122  -1.052  -2.374  0.00  0.00    +0.038 A 
ATOM     25  C   UNL     1       2.730  -0.969  -2.363  0.00  0.00    +0.036 A 
BRANCH  24  26
ATOM     26  C   UNL     1       4.829  -1.518  -3.587  0.00  0.00    +0.244 C 
ATOM     27  O   UNL     1       4.196  -1.825  -4.578  0.00  0.00    -0.270 OA
ATOM     28  N   UNL     1       6.174  -1.601  -3.593  0.00  0.00    -0.314 N 
ATOM     29  C   UNL     1       6.873  -2.063  -4.794  0.00  0.00    +0.128 C 
ATOM     30  H   UNL     1       6.678  -1.356  -2.801  0.00  0.00    +0.149 HD
ENDBRANCH  24  26
ENDBRANCH  18  20
ENDBRANCH   2  18
TORSDOF 6
