REMARK  Name = ZINC20467475
REMARK  10 active torsions:
REMARK  status: ('A' for Active; 'I' for Inactive)
REMARK    1  A    between atoms: C_1  and  C_2
REMARK    2  A    between atoms: C_2  and  C_3
REMARK    3  A    between atoms: C_2  and  C_4
REMARK    4  A    between atoms: C_2  and  C_5
REMARK    5  A    between atoms: C_7  and  N_21
REMARK    6  A    between atoms: C_11  and  C_15
REMARK    7  A    between atoms: N_21  and  C_22
REMARK    8  A    between atoms: C_22  and  C_23
REMARK    9  A    between atoms: C_22  and  C_24
REMARK   10  A    between atoms: C_22  and  C_25
REMARK                            x       y       z     vdW  Elec       q    Type
REMARK                         _______ _______ _______ _____ _____    ______ ____
ROOT
ATOM      1  C   UNL     1       2.920  -0.420   2.271  0.00  0.00    -0.002 C 
ATOM      2  C   UNL     1       2.174   0.548   1.838  0.00  0.00    +0.025 C 
ATOM      3  C   UNL     1       1.286   1.451   2.620  0.00  0.00    +0.182 C 
ATOM      4  N   UNL     1       1.622   1.490   4.038  0.00  0.00    -0.305 N 
ATOM      5  C   UNL     1       1.268   2.458   4.943  0.00  0.00    +0.118 A 
ATOM      6  C   UNL     1       1.786   2.086   6.141  0.00  0.00    +0.090 A 
ATOM      7  N   UNL     1       2.444   0.912   5.966  0.00  0.00    -0.222 NA
ATOM      8  C   UNL     1       2.352   0.555   4.711  0.00  0.00    +0.175 A 
ATOM      9  S   UNL     1       3.045  -0.883   3.963  0.00  0.00    -0.056 S 
ENDROOT
BRANCH   6  10
ATOM     10  C   UNL     1       1.655   2.830   7.418  0.00  0.00    +0.002 A 
ATOM     11  C   UNL     1       0.952   4.033   7.457  0.00  0.00    +0.010 A 
ATOM     12  C   UNL     1       0.829   4.719   8.648  0.00  0.00    +0.001 A 
ATOM     13  C   UNL     1       1.410   4.220   9.800  0.00  0.00    +0.000 A 
ATOM     14  C   UNL     1       2.113   3.029   9.766  0.00  0.00    +0.001 A 
ATOM     15  C   UNL     1       2.238   2.332   8.581  0.00  0.00    +0.010 A 
ENDBRANCH   6  10
BRANCH   1  17
ATOM     16  C   UNL     1       3.474  -0.634  -0.136  0.00  0.00    +0.016 C 
ATOM     17  C   UNL     1       3.729  -1.196   1.264  0.00  0.00    -0.007 C 
ATOM     18  C   UNL     1       5.216  -1.073   1.601  0.00  0.00    +0.016 C 
ATOM     19  C   UNL     1       3.317  -2.669   1.305  0.00  0.00    +0.016 C 
ENDBRANCH   1  17
BRANCH   3  20
ATOM     20  N   UNL     1      -0.102   0.992   2.475  0.00  0.00    -0.288 NA
ATOM     21  H   UNL     1      -0.110  -0.025   2.055  0.00  0.00    +0.125 HD
BRANCH  20  22
ATOM     22  C   UNL     1      -0.859   1.877   1.580  0.00  0.00    +0.013 C 
ATOM     23  C   UNL     1      -0.141   1.976   0.233  0.00  0.00    +0.027 C 
ATOM     24  C   UNL     1      -0.961   3.270   2.206  0.00  0.00    +0.027 C 
ATOM     25  C   UNL     1      -2.264   1.309   1.369  0.00  0.00    +0.027 C 
ENDBRANCH  20  22
ENDBRANCH   3  20
TORSDOF 4
