REMARK  Name = ZINC61843556
REMARK  3 active torsions:
REMARK  status: ('A' for Active; 'I' for Inactive)
REMARK    1  A    between atoms: C_6  and  N_10
REMARK    2  A    between atoms: C_13  and  C_15
REMARK    3  A    between atoms: C_15  and  N_17
REMARK                            x       y       z     vdW  Elec       q    Type
REMARK                         _______ _______ _______ _____ _____    ______ ____
ROOT
ATOM      1  N   UNL     1      -2.394  -0.473   0.022  0.00  0.00    -0.201 N 
ATOM      2  C   UNL     1      -3.484  -1.137  -0.424  0.00  0.00    +0.227 A 
ATOM      3  N   UNL     1      -4.529  -0.380  -0.236  0.00  0.00    -0.213 NA
ATOM      4  C   UNL     1      -4.157   0.779   0.328  0.00  0.00    +0.203 A 
ATOM      5  N   UNL     1      -2.852   0.761   0.510  0.00  0.00    -0.142 NA
ENDROOT
BRANCH   1  11
ATOM      6  C   UNL     1      -0.018   1.448   0.010  0.00  0.00    +0.021 A 
ATOM      7  C   UNL     1       1.144   2.119   0.003  0.00  0.00    +0.048 A 
ATOM      8  S   UNL     1       2.373   0.827  -0.016  0.00  0.00    -0.077 S 
ATOM      9  C   UNL     1       1.294  -0.580  -0.013  0.00  0.00    +0.113 A 
ATOM     10  C   UNL     1       0.002  -0.004   0.002  0.00  0.00    +0.052 A 
ATOM     11  C   UNL     1      -1.076  -0.928   0.007  0.00  0.00    +0.167 A 
ATOM     12  N   UNL     1      -0.815  -2.223  -0.003  0.00  0.00    -0.216 NA
ATOM     13  C   UNL     1       0.419  -2.693  -0.017  0.00  0.00    +0.224 A 
ATOM     14  N   UNL     1       1.463  -1.886  -0.022  0.00  0.00    -0.228 NA
ENDBRANCH   1  11
BRANCH   4  15
ATOM     15  C   UNL     1      -5.060   1.889   0.691  0.00  0.00    +0.116 C 
ATOM     16  S   UNL     1      -4.427   3.310   1.406  0.00  0.00    -0.032 S 
BRANCH  15  17
ATOM     17  N   UNL     1      -6.383   1.784   0.458  0.00  0.00    -0.349 N 
ATOM     18  H   UNL     1      -6.742   0.980   0.052  0.00  0.00    +0.143 HD
ATOM     19  H   UNL     1      -6.977   2.514   0.696  0.00  0.00    +0.143 HD
ENDBRANCH  15  17
ENDBRANCH   4  15
TORSDOF 3
