REMARK  Name = ZINC39542989
REMARK  7 active torsions:
REMARK  status: ('A' for Active; 'I' for Inactive)
REMARK    1  A    between atoms: C_1  and  C_2
REMARK    2  A    between atoms: C_2  and  C_3
REMARK    3  A    between atoms: C_3  and  C_4
REMARK    4  A    between atoms: C_3  and  N_6
REMARK    5  A    between atoms: C_4  and  C_5
REMARK    6  A    between atoms: C_11  and  C_14
REMARK    7  A    between atoms: N_17  and  C_19
REMARK                            x       y       z     vdW  Elec       q    Type
REMARK                         _______ _______ _______ _____ _____    ______ ____
ROOT
ATOM      1  N   UNL     1      -2.082  -0.162   1.273  0.00  0.00    -0.229 N 
ATOM      2  C   UNL     1      -3.285   0.651   1.455  0.00  0.00    +0.212 C 
ATOM      3  C   UNL     1      -2.983   1.327   2.791  0.00  0.00    +0.094 C 
ATOM      4  N   UNL     1      -3.457   2.524   2.753  0.00  0.00    -0.258 NA
ATOM      5  C   UNL     1      -4.017   2.810   1.422  0.00  0.00    +0.227 C 
ATOM      6  N   UNL     1      -3.446   1.761   0.509  0.00  0.00    -0.266 NA
ATOM      7  C   UNL     1      -2.152   0.331   3.466  0.00  0.00    +0.156 C 
ATOM      8  N   UNL     1      -1.688  -0.512   2.583  0.00  0.00    -0.189 NA
ATOM      9  H   UNL     1      -2.553   2.053   0.139  0.00  0.00    +0.126 HD
ENDROOT
BRANCH   5  10
ATOM     10  C   UNL     1      -5.520   2.695   1.452  0.00  0.00    +0.120 A 
ATOM     11  C   UNL     1      -6.343   2.984   2.546  0.00  0.00    +0.085 A 
ATOM     12  C   UNL     1      -7.625   2.756   2.174  0.00  0.00    +0.128 A 
ATOM     13  N   UNL     1      -7.612   2.338   0.889  0.00  0.00    -0.273 N 
ATOM     14  N   UNL     1      -6.280   2.313   0.457  0.00  0.00    -0.171 NA
ATOM     15  C   UNL     1      -8.785   1.980   0.088  0.00  0.00    +0.172 C 
ATOM     16 CL   UNL     1      -5.814   3.535   4.104  0.00  0.00    -0.080 Cl
ENDBRANCH   5  10
BRANCH   1  17
ATOM     17  C   UNL     1      -1.433  -0.534   0.013  0.00  0.00    +0.094 C 
BRANCH  17  19
ATOM     18  C   UNL     1      -0.019   1.526   0.010  0.00  0.00    +0.006 C 
ATOM     19  C   UNL     1       0.002  -0.004   0.002  0.00  0.00    +0.021 C 
ENDBRANCH  17  19
BRANCH  17  20
ATOM     20  C   UNL     1      -1.416  -2.058  -0.121  0.00  0.00    +0.021 C 
ATOM     21  C   UNL     1      -2.850  -2.576  -0.236  0.00  0.00    +0.006 C 
ENDBRANCH  17  20
ENDBRANCH   1  17
TORSDOF 4
