REMARK  Name = ZINC16958625
REMARK  8 active torsions:
REMARK  status: ('A' for Active; 'I' for Inactive)
REMARK    1  A    between atoms: C_1  and  C_2
REMARK    2  A    between atoms: C_5  and  S_8
REMARK    3  A    between atoms: S_8  and  N_11
REMARK    4  A    between atoms: N_11  and  N_12
REMARK    5  A    between atoms: N_12  and  C_13
REMARK    6  A    between atoms: C_15  and  C_36
REMARK    7  A    between atoms: C_17  and  C_29
REMARK    8  A    between atoms: C_34  and  O_35
REMARK                            x       y       z     vdW  Elec       q    Type
REMARK                         _______ _______ _______ _____ _____    ______ ____
ROOT
ATOM      1  C   UNL     1       1.880   1.554   0.702  0.00  0.00    +0.261 C 
ATOM      2  C   UNL     1       1.137   1.870   2.006  0.00  0.00    +0.055 C 
ATOM      3  C   UNL     1       2.163   1.928   3.141  0.00  0.00    +0.064 C 
ATOM      4  C   UNL     1       3.061   0.718   3.077  0.00  0.00    +0.006 A 
ATOM      5  C   UNL     1       3.803   0.380   4.198  0.00  0.00    +0.057 A 
ATOM      6  C   UNL     1       4.643  -0.719   4.177  0.00  0.00    +0.167 A 
ATOM      7  C   UNL     1       4.741  -1.492   3.022  0.00  0.00    +0.170 A 
ATOM      8  C   UNL     1       3.999  -1.155   1.904  0.00  0.00    +0.095 A 
ATOM      9  C   UNL     1       3.155  -0.049   1.930  0.00  0.00    +0.130 A 
ATOM     10  O   UNL     1       2.442   0.245   0.811  0.00  0.00    -0.472 OA
ATOM     11  O   UNL     1       5.624  -2.508   3.251  0.00  0.00    -0.452 OA
ATOM     12  C   UNL     1       6.372  -2.112   4.416  0.00  0.00    +0.466 C 
ATOM     13  O   UNL     1       5.464  -1.252   5.129  0.00  0.00    -0.453 OA
ATOM     14  C   UNL     1       0.430   3.221   1.882  0.00  0.00    +0.013 C 
ENDROOT
BRANCH   3  15
ATOM     15  C   UNL     1       1.444   1.949   4.465  0.00  0.00    +0.002 A 
ATOM     16  C   UNL     1       0.612   0.903   4.817  0.00  0.00    +0.008 A 
ATOM     17  C   UNL     1      -0.044   0.919   6.034  0.00  0.00    +0.001 A 
ATOM     18  C   UNL     1       0.121   1.987   6.897  0.00  0.00    +0.004 A 
ATOM     19  C   UNL     1       0.948   3.037   6.548  0.00  0.00    +0.046 A 
ATOM     20  C   UNL     1       1.612   3.021   5.329  0.00  0.00    +0.121 A 
BRANCH  20  21
ATOM     21  O   UNL     1       2.425   4.053   4.983  0.00  0.00    -0.506 OA
ATOM     22  H   UNL     1       1.976   4.764   4.505  0.00  0.00    +0.292 HD
ENDBRANCH  20  21
ENDBRANCH   3  15
BRANCH   1  23
ATOM     23  N   UNL     1       0.940   1.597  -0.426  0.00  0.00    -0.200 NA
ATOM     24  H   UNL     1       1.428   1.536  -1.306  0.00  0.00    +0.146 HD
BRANCH  23  25
ATOM     25  N   UNL     1       0.001   0.611  -0.318  0.00  0.00    -0.122 NA
ATOM     26  H   UNL     1       0.277  -0.314  -0.222  0.00  0.00    +0.168 HD
BRANCH  25  27
ATOM     27  S   UNL     1      -1.610   0.993  -0.358  0.00  0.00    +0.071 S 
ATOM     28  O   UNL     1      -2.315  -0.232  -0.503  0.00  0.00    -0.152 OA
ATOM     29  O   UNL     1      -1.843   1.883   0.724  0.00  0.00    -0.152 OA
BRANCH  27  34
ATOM     30  C   UNL     1      -2.570   4.141  -5.416  0.00  0.00    +0.044 C 
ATOM     31  C   UNL     1      -2.330   3.355  -4.153  0.00  0.00    -0.050 A 
ATOM     32  C   UNL     1      -2.447   1.977  -4.163  0.00  0.00    +0.005 A 
ATOM     33  C   UNL     1      -2.227   1.256  -3.005  0.00  0.00    +0.029 A 
ATOM     34  C   UNL     1      -1.890   1.912  -1.835  0.00  0.00    +0.107 A 
ATOM     35  C   UNL     1      -1.779   3.290  -1.824  0.00  0.00    +0.029 A 
ATOM     36  C   UNL     1      -1.994   4.011  -2.984  0.00  0.00    +0.005 A 
ENDBRANCH  27  34
ENDBRANCH  25  27
ENDBRANCH  23  25
ENDBRANCH   1  23
TORSDOF 6
