REMARK  Name = ZINC26991263
REMARK  11 active torsions:
REMARK  status: ('A' for Active; 'I' for Inactive)
REMARK    1  A    between atoms: C_1  and  C_2
REMARK    2  A    between atoms: C_2  and  C_3
REMARK    3  A    between atoms: C_3  and  C_4
REMARK    4  A    between atoms: C_3  and  C_5
REMARK    5  A    between atoms: C_3  and  C_6
REMARK    6  A    between atoms: N_14  and  C_18
REMARK    7  A    between atoms: C_18  and  C_19
REMARK    8  A    between atoms: N_21  and  N_22
REMARK    9  A    between atoms: C_23  and  C_25
REMARK   10  A    between atoms: C_27  and  C_31
REMARK   11  A    between atoms: C_29  and  C_30
REMARK                            x       y       z     vdW  Elec       q    Type
REMARK                         _______ _______ _______ _____ _____    ______ ____
ROOT
ATOM      1  C   UNL     1       9.764   7.649   3.058  0.00  0.00    -0.005 C 
ATOM      2  C   UNL     1       8.326   7.396   2.601  0.00  0.00    +0.006 C 
ATOM      3  C   UNL     1       8.281   7.336   1.072  0.00  0.00    +0.035 C 
ATOM      4  C   UNL     1       9.193   6.217   0.579  0.00  0.00    +0.113 C 
ATOM      5  C   UNL     1      10.627   6.445   1.046  0.00  0.00    +0.035 C 
ATOM      6  C   UNL     1      10.663   6.509   2.575  0.00  0.00    +0.006 C 
ATOM      7  C   UNL     1       8.689   4.876   1.062  0.00  0.00    +0.247 C 
ATOM      8  O   UNL     1       8.563   4.510   2.211  0.00  0.00    -0.273 OA
ATOM      9  N   UNL     1       8.409   4.173  -0.055  0.00  0.00    -0.215 N 
ATOM     10  C   UNL     1       8.671   4.880  -1.161  0.00  0.00    +0.310 C 
ATOM     11  O   UNL     1       8.505   4.457  -2.288  0.00  0.00    -0.252 OA
ATOM     12  N   UNL     1       9.137   6.113  -0.884  0.00  0.00    -0.285 N 
ATOM     13  H   UNL     1       9.449   6.964  -1.508  0.00  0.00    +0.151 HD
ENDROOT
BRANCH   1  14
ATOM     14  C   UNL     1       9.809   7.721   4.585  0.00  0.00    -0.032 C 
ATOM     15  C   UNL     1       8.912   8.862   5.069  0.00  0.00    +0.011 C 
ATOM     16  C   UNL     1       9.312   6.398   5.173  0.00  0.00    +0.011 C 
BRANCH  14  18
ATOM     17  C   UNL     1      11.291   8.045   6.570  0.00  0.00    +0.004 C 
ATOM     18  C   UNL     1      11.247   7.973   5.043  0.00  0.00    +0.003 C 
ENDBRANCH  14  18
ENDBRANCH   1  14
BRANCH   9  19
ATOM     19  C   UNL     1       7.889   2.804  -0.057  0.00  0.00    +0.215 C 
BRANCH  19  20
ATOM     20  C   UNL     1       6.382   2.839  -0.043  0.00  0.00    +0.247 C 
ATOM     21  O   UNL     1       5.801   3.903  -0.032  0.00  0.00    -0.273 OA
ATOM     22  N   UNL     1       5.681   1.688  -0.042  0.00  0.00    -0.233 N 
ATOM     23  H   UNL     1       6.209   0.722  -0.052  0.00  0.00    +0.173 HD
BRANCH  22  24
ATOM     24  N   UNL     1       4.281   1.720  -0.029  0.00  0.00    -0.230 N 
ATOM     25  C   UNL     1       3.580   0.569  -0.029  0.00  0.00    +0.263 C 
ATOM     26  O   UNL     1       4.163  -0.498  -0.040  0.00  0.00    -0.269 OA
ATOM     27  H   UNL     1       3.753   2.685  -0.019  0.00  0.00    +0.173 HD
BRANCH  25  28
ATOM     28  C   UNL     1       2.107   0.603  -0.015  0.00  0.00    +0.079 A 
ATOM     29  C   UNL     1       1.246   1.795  -0.000  0.00  0.00    +0.057 A 
ATOM     30  C   UNL     1      -0.016   1.338   0.009  0.00  0.00    +0.103 A 
ATOM     31  O   UNL     1       0.002  -0.004   0.002  0.00  0.00    -0.464 OA
ATOM     32  C   UNL     1       1.257  -0.464  -0.012  0.00  0.00    +0.114 A 
ATOM     33  C   UNL     1       1.664  -1.915  -0.024  0.00  0.00    +0.087 C 
ATOM     34  C   UNL     1      -1.256   2.195   0.020  0.00  0.00    +0.086 C 
ENDBRANCH  25  28
ENDBRANCH  22  24
ENDBRANCH  19  20
ENDBRANCH   9  19
TORSDOF 6
