REMARK  Name = ZINC47807198
REMARK  6 active torsions:
REMARK  status: ('A' for Active; 'I' for Inactive)
REMARK    1  A    between atoms: C_1  and  C_2
REMARK    2  A    between atoms: N_5  and  C_11
REMARK    3  A    between atoms: C_7  and  C_10
REMARK    4  A    between atoms: C_16  and  N_17
REMARK    5  A    between atoms: N_20  and  C_21
REMARK    6  A    between atoms: C_21  and  C_22
REMARK                            x       y       z     vdW  Elec       q    Type
REMARK                         _______ _______ _______ _____ _____    ______ ____
ROOT
ATOM      1  N   UNL     1      -4.019  -2.731   0.810  0.00  0.00    -0.268 N 
ATOM      2  C   UNL     1      -5.336  -2.446   0.808  0.00  0.00    +0.304 C 
ATOM      3  O   UNL     1      -6.011  -2.695  -0.172  0.00  0.00    -0.253 OA
ATOM      4  N   UNL     1      -5.906  -1.885   1.894  0.00  0.00    -0.296 N 
ATOM      5  H   UNL     1      -3.494  -2.593   1.614  0.00  0.00    +0.156 HD
ATOM      6  H   UNL     1      -5.367  -1.687   2.676  0.00  0.00    +0.150 HD
ENDROOT
BRANCH   1  12
ATOM      7  C   UNL     1      -2.096  -2.869  -0.657  0.00  0.00    +0.051 A 
ATOM      8  C   UNL     1      -1.495  -3.369  -1.803  0.00  0.00    +0.025 A 
ATOM      9  C   UNL     1      -2.198  -4.214  -2.640  0.00  0.00    +0.002 A 
ATOM     10  C   UNL     1      -3.502  -4.565  -2.338  0.00  0.00    +0.002 A 
ATOM     11  C   UNL     1      -4.108  -4.071  -1.198  0.00  0.00    +0.025 A 
ATOM     12  C   UNL     1      -3.408  -3.228  -0.350  0.00  0.00    +0.056 A 
BRANCH   7  16
ATOM     13  C   UNL     1       0.003   1.500  -0.017  0.00  0.00    +0.039 C 
ATOM     14  C   UNL     1       0.016  -0.030  -0.015  0.00  0.00    +0.133 C 
ATOM     15  C   UNL     1      -1.424  -0.554   0.002  0.00  0.00    +0.136 C 
ATOM     16  N   UNL     1      -1.385  -2.013   0.192  0.00  0.00    -0.324 N 
ATOM     17  C   UNL     1      -0.577  -2.544   1.301  0.00  0.00    +0.136 C 
ATOM     18  C   UNL     1       0.822  -1.923   1.221  0.00  0.00    +0.133 C 
ATOM     19  O   UNL     1       0.703  -0.501   1.147  0.00  0.00    -0.371 OA
ATOM     20  C   UNL     1       1.623  -2.306   2.467  0.00  0.00    +0.039 C 
ENDBRANCH   7  16
ENDBRANCH   1  12
BRANCH   4  21
ATOM     21  C   UNL     1      -7.338  -1.575   1.892  0.00  0.00    +0.153 C 
BRANCH  21  22
ATOM     22  C   UNL     1      -7.726  -0.950   3.233  0.00  0.00    +0.228 C 
ATOM     23  C   UNL     1      -9.243  -0.725   3.280  0.00  0.00    +0.275 C 
ATOM     24  O   UNL     1      -9.569  -0.128   4.539  0.00  0.00    -0.485 OA
ATOM     25  C   UNL     1      -8.789   0.911   4.944  0.00  0.00    +0.162 A 
ATOM     26  C   UNL     1      -9.246   1.758   5.943  0.00  0.00    +0.049 A 
ATOM     27  C   UNL     1      -8.464   2.815   6.367  0.00  0.00    +0.004 A 
ATOM     28  C   UNL     1      -7.223   3.032   5.797  0.00  0.00    +0.004 A 
ATOM     29  C   UNL     1      -6.762   2.193   4.800  0.00  0.00    +0.049 A 
ATOM     30  C   UNL     1      -7.543   1.131   4.369  0.00  0.00    +0.163 A 
ATOM     31  O   UNL     1      -7.078   0.318   3.381  0.00  0.00    -0.480 OA
ENDBRANCH  21  22
ENDBRANCH   4  21
TORSDOF 4
