REMARK  Name = ZINC44981205
REMARK  5 active torsions:
REMARK  status: ('A' for Active; 'I' for Inactive)
REMARK    1  A    between atoms: C_1  and  C_2
REMARK    2  A    between atoms: C_7  and  C_8
REMARK    3  A    between atoms: N_10  and  N_11
REMARK    4  A    between atoms: C_12  and  C_14
REMARK    5  A    between atoms: C_15  and  C_20
REMARK                            x       y       z     vdW  Elec       q    Type
REMARK                         _______ _______ _______ _____ _____    ______ ____
ROOT
ATOM      1  C   UNL     1       0.242   0.021   2.481  0.00  0.00    +0.260 C 
ATOM      2  O   UNL     1       0.135   1.232   2.503  0.00  0.00    -0.269 OA
ATOM      3  N   UNL     1       0.465  -0.656   3.625  0.00  0.00    -0.230 N 
ATOM      4  H   UNL     1       0.550  -1.622   3.607  0.00  0.00    +0.173 HD
ENDROOT
BRANCH   1  11
ATOM      5  C   UNL     1      -0.511   1.452   0.082  0.00  0.00    +0.044 C 
ATOM      6  C   UNL     1      -0.235  -0.028   0.036  0.00  0.00    -0.038 A 
ATOM      7  C   UNL     1      -0.334  -0.714  -1.157  0.00  0.00    +0.004 A 
ATOM      8  C   UNL     1      -0.079  -2.073  -1.200  0.00  0.00    +0.000 A 
ATOM      9  C   UNL     1       0.275  -2.754  -0.049  0.00  0.00    +0.001 A 
ATOM     10  C   UNL     1       0.378  -2.080   1.150  0.00  0.00    +0.013 A 
ATOM     11  C   UNL     1       0.128  -0.708   1.200  0.00  0.00    +0.041 A 
ENDBRANCH   1  11
BRANCH   3  12
ATOM     12  N   UNL     1       0.573   0.035   4.838  0.00  0.00    -0.228 N 
ATOM     13  C   UNL     1       0.796  -0.642   5.982  0.00  0.00    +0.296 C 
ATOM     14  O   UNL     1       0.903  -1.854   5.960  0.00  0.00    -0.265 OA
ATOM     15  H   UNL     1       0.487   1.001   4.856  0.00  0.00    +0.173 HD
BRANCH  13  16
ATOM     16  C   UNL     1       0.909   0.081   7.252  0.00  0.00    +0.195 A 
ATOM     17  C   UNL     1       1.138  -0.479   8.477  0.00  0.00    +0.001 A 
ATOM     18  C   UNL     1       1.171   0.574   9.402  0.00  0.00    +0.061 A 
ATOM     19  C   UNL     1       0.963   1.718   8.711  0.00  0.00    +0.171 A 
ATOM     20  O   UNL     1       0.811   1.417   7.415  0.00  0.00    -0.443 OA
ATOM     21 BR   UNL     1       0.903   3.457   9.452  0.00  0.00    -0.008 Br
ATOM     22  C   UNL     1       1.320  -1.945   8.775  0.00  0.00    +0.048 C 
ENDBRANCH  13  16
ENDBRANCH   3  12
TORSDOF 3
