REMARK  Name = ZINC10961288
REMARK  8 active torsions:
REMARK  status: ('A' for Active; 'I' for Inactive)
REMARK    1  A    between atoms: C_6  and  N_7
REMARK    2  A    between atoms: C_8  and  C_10
REMARK    3  A    between atoms: C_10  and  N_11
REMARK    4  A    between atoms: C_12  and  C_14
REMARK    5  A    between atoms: C_14  and  O_15
REMARK    6  A    between atoms: O_15  and  C_16
REMARK    7  A    between atoms: C_16  and  C_18
REMARK    8  A    between atoms: C_23  and  N_24
REMARK                            x       y       z     vdW  Elec       q    Type
REMARK                         _______ _______ _______ _____ _____    ______ ____
ROOT
ATOM      1  N   UNL     1      -0.763   0.791   0.793  0.00  0.00    -0.304 N 
ATOM      2  C   UNL     1      -0.859   2.127   0.947  0.00  0.00    +0.251 C 
ATOM      3  O   UNL     1      -0.407   2.869   0.100  0.00  0.00    -0.272 OA
ATOM      4  H   UNL     1      -1.125   0.198   1.470  0.00  0.00    +0.149 HD
ENDROOT
BRANCH   1   5
ATOM      5  C   UNL     1      -0.114   0.236  -0.397  0.00  0.00    +0.200 C 
BRANCH   5   7
ATOM      6  N   UNL     1       0.407  -2.000  -1.318  0.00  0.00    -0.282 N 
ATOM      7  C   UNL     1      -0.138  -1.269  -0.325  0.00  0.00    +0.234 C 
ATOM      8  O   UNL     1      -0.648  -1.823   0.626  0.00  0.00    -0.274 OA
ATOM      9  H   UNL     1       0.765  -1.559  -2.105  0.00  0.00    +0.155 HD
BRANCH   6  15
ATOM     10  C   UNL     1      -0.566  -4.083  -0.575  0.00  0.00    +0.029 A 
ATOM     11  C   UNL     1      -0.519  -5.461  -0.478  0.00  0.00    +0.043 A 
ATOM     12  C   UNL     1       0.553  -6.158  -1.008  0.00  0.00    +0.161 A 
ATOM     13  C   UNL     1       1.580  -5.476  -1.642  0.00  0.00    +0.195 A 
ATOM     14  C   UNL     1       1.534  -4.096  -1.746  0.00  0.00    +0.182 A 
ATOM     15  C   UNL     1       0.457  -3.397  -1.214  0.00  0.00    +0.072 A 
ATOM     16  F   UNL     1       2.534  -3.430  -2.365  0.00  0.00    -0.200 F 
ATOM     17  F   UNL     1       2.626  -6.158  -2.158  0.00  0.00    -0.199 F 
ATOM     18  F   UNL     1       0.599  -7.504  -0.906  0.00  0.00    -0.202 F 
ENDBRANCH   6  15
ENDBRANCH   5   7
ENDBRANCH   1   5
BRANCH   2  19
ATOM     19  C   UNL     1      -1.528   2.699   2.170  0.00  0.00    +0.328 C 
BRANCH  19  20
ATOM     20  O   UNL     1      -1.504   4.149   2.102  0.00  0.00    -0.452 OA
BRANCH  20  21
ATOM     21  C   UNL     1      -2.066   4.819   3.127  0.00  0.00    +0.342 C 
ATOM     22  O   UNL     1      -2.562   4.208   4.053  0.00  0.00    -0.245 OA
BRANCH  21  23
ATOM     23  C   UNL     1      -2.079   6.292   3.125  0.00  0.00    +0.082 A 
ATOM     24  C   UNL     1      -1.600   6.998   2.017  0.00  0.00    +0.037 A 
ATOM     25  C   UNL     1      -1.615   8.376   2.022  0.00  0.00    +0.043 A 
ATOM     26  C   UNL     1      -2.104   9.068   3.120  0.00  0.00    +0.042 A 
ATOM     27  C   UNL     1      -2.579   8.386   4.221  0.00  0.00    +0.064 A 
ATOM     28  C   UNL     1      -2.577   6.995   4.233  0.00  0.00    +0.057 A 
ATOM     29 CL   UNL     1      -3.188   9.263   5.590  0.00  0.00    -0.082 Cl
ATOM     30 CL   UNL     1      -1.020   9.251   0.645  0.00  0.00    -0.083 Cl
BRANCH  28  31
ATOM     31  N   UNL     1      -3.061   6.305   5.338  0.00  0.00    -0.356 N 
ATOM     32  H   UNL     1      -2.952   6.677   6.228  0.00  0.00    +0.142 HD
ATOM     33  H   UNL     1      -3.506   5.452   5.220  0.00  0.00    +0.142 HD
ENDBRANCH  28  31
ENDBRANCH  21  23
ENDBRANCH  20  21
ENDBRANCH  19  20
ENDBRANCH   2  19
TORSDOF 8
