REMARK  Name = ZINC20598401
REMARK  6 active torsions:
REMARK  status: ('A' for Active; 'I' for Inactive)
REMARK    1  A    between atoms: C_6  and  C_7
REMARK    2  A    between atoms: C_8  and  C_13
REMARK    3  A    between atoms: C_13  and  N_14
REMARK    4  A    between atoms: C_17  and  N_23
REMARK    5  A    between atoms: C_19  and  O_22
REMARK    6  A    between atoms: C_26  and  O_29
REMARK                            x       y       z     vdW  Elec       q    Type
REMARK                         _______ _______ _______ _____ _____    ______ ____
ROOT
ATOM      1  N   UNL     1       0.350  -3.618  -0.328  0.00  0.00    -0.296 NA
ATOM      2  C   UNL     1       1.011  -2.779   0.680  0.00  0.00    +0.083 C 
ATOM      3  C   UNL     1       1.654  -3.671   1.746  0.00  0.00    +0.003 C 
ATOM      4  C   UNL     1       2.673  -4.599   1.079  0.00  0.00    -0.037 C 
ATOM      5  C   UNL     1       1.969  -5.427   0.001  0.00  0.00    +0.115 C 
ATOM      6  C   UNL     1       1.317  -4.484  -1.014  0.00  0.00    +0.114 C 
ENDROOT
BRANCH   4   7
ATOM      7  N   UNL     1       3.252  -5.496   2.088  0.00  0.00    +0.383 N 
ATOM      8  C   UNL     1       4.032  -4.709   3.051  0.00  0.00    -0.076 C 
ATOM      9  C   UNL     1       4.704  -5.647   4.056  0.00  0.00    +0.013 C 
ATOM     10  C   UNL     1       3.629  -6.444   4.800  0.00  0.00    +0.111 C 
ATOM     11  C   UNL     1       2.774  -7.203   3.780  0.00  0.00    +0.013 C 
ATOM     12  C   UNL     1       2.174  -6.208   2.785  0.00  0.00    -0.076 C 
ATOM     13  H   UNL     1       3.857  -6.165   1.635  0.00  0.00    -0.081 HD
BRANCH  10  14
ATOM     14  O   UNL     1       4.252  -7.375   5.687  0.00  0.00    -0.392 OA
ATOM     15  H   UNL     1       3.629  -7.915   6.192  0.00  0.00    +0.210 HD
ENDBRANCH  10  14
ENDBRANCH   4   7
BRANCH   5  16
ATOM     16  O   UNL     1       2.924  -6.257  -0.663  0.00  0.00    -0.392 OA
ATOM     17  H   UNL     1       2.547  -6.810  -1.361  0.00  0.00    +0.210 HD
ENDBRANCH   5  16
BRANCH   1  18
ATOM     18  C   UNL     1      -0.395  -2.795  -1.290  0.00  0.00    +0.123 C 
BRANCH  18  20
ATOM     19  C   UNL     1      -2.706  -2.627  -0.112  0.00  0.00    +0.097 A 
ATOM     20  C   UNL     1      -1.501  -2.063  -0.575  0.00  0.00    +0.012 A 
ATOM     21  C   UNL     1      -1.512  -0.749  -0.262  0.00  0.00    +0.110 A 
ATOM     22  N   UNL     1      -2.674  -0.481   0.373  0.00  0.00    -0.284 N 
ATOM     23  H   UNL     1      -2.951   0.384   0.712  0.00  0.00    +0.188 HD
ATOM     24  N   UNL     1      -3.411  -1.670   0.453  0.00  0.00    -0.174 NA
BRANCH  19  30
ATOM     25  C   UNL     1      -3.704  -4.709   0.830  0.00  0.00    +0.011 A 
ATOM     26  C   UNL     1      -4.081  -6.030   0.701  0.00  0.00    +0.020 A 
ATOM     27  C   UNL     1      -3.870  -6.700  -0.492  0.00  0.00    +0.041 A 
ATOM     28  C   UNL     1      -3.281  -6.048  -1.562  0.00  0.00    +0.020 A 
ATOM     29  C   UNL     1      -2.902  -4.726  -1.444  0.00  0.00    +0.011 A 
ATOM     30  C   UNL     1      -3.112  -4.048  -0.245  0.00  0.00    +0.002 A 
ATOM     31 CL   UNL     1      -4.344  -8.363  -0.647  0.00  0.00    -0.084 Cl
ENDBRANCH  19  30
ENDBRANCH  18  20
ENDBRANCH   1  18
TORSDOF 6
