REMARK  Name = ZINC43090839
REMARK  9 active torsions:
REMARK  status: ('A' for Active; 'I' for Inactive)
REMARK    1  A    between atoms: C_1  and  C_2
REMARK    2  A    between atoms: C_2  and  C_3
REMARK    3  A    between atoms: C_3  and  C_5
REMARK    4  A    between atoms: C_3  and  N_24
REMARK    5  A    between atoms: C_5  and  C_7
REMARK    6  A    between atoms: C_5  and  N_14
REMARK    7  A    between atoms: C_19  and  C_21
REMARK    8  A    between atoms: C_21  and  C_22
REMARK    9  A    between atoms: C_22  and  O_23
REMARK                            x       y       z     vdW  Elec       q    Type
REMARK                         _______ _______ _______ _____ _____    ______ ____
ROOT
ATOM      1  C   UNL     1      -1.639  -2.151  -0.527  0.00  0.00    +0.074 C 
ENDROOT
BRANCH   1   2
ATOM      2  C   UNL     1      -3.091  -2.438  -0.810  0.00  0.00    -0.018 A 
ATOM      3  C   UNL     1      -3.994  -1.396  -0.918  0.00  0.00    +0.006 A 
ATOM      4  C   UNL     1      -5.325  -1.659  -1.178  0.00  0.00    +0.000 A 
ATOM      5  C   UNL     1      -5.756  -2.964  -1.331  0.00  0.00    +0.001 A 
ATOM      6  C   UNL     1      -4.855  -4.006  -1.223  0.00  0.00    +0.015 A 
ATOM      7  C   UNL     1      -3.521  -3.743  -0.968  0.00  0.00    +0.022 A 
ATOM      8 BR   UNL     1      -2.286  -5.168  -0.828  0.00  0.00    -0.050 Br
ENDBRANCH   1   2
BRANCH   1   9
ATOM      9  N   UNL     1      -0.869  -2.248  -1.774  0.00  0.00    -0.294 NA
ATOM     10  C   UNL     1      -0.960  -1.003  -2.547  0.00  0.00    +0.085 C 
ATOM     11  C   UNL     1      -0.271  -1.189  -3.901  0.00  0.00    +0.015 C 
ATOM     12  C   UNL     1       1.197  -1.563  -3.673  0.00  0.00    +0.003 C 
ATOM     13  C   UNL     1       1.264  -2.836  -2.825  0.00  0.00    +0.019 C 
ATOM     14  C   UNL     1       0.530  -2.602  -1.502  0.00  0.00    +0.059 C 
BRANCH  14  15
ATOM     15  C   UNL     1       0.578  -3.879  -0.660  0.00  0.00    +0.046 C 
BRANCH  15  16
ATOM     16  C   UNL     1       2.033  -4.221  -0.335  0.00  0.00    +0.157 C 
BRANCH  16  17
ATOM     17  O   UNL     1       2.086  -5.469   0.359  0.00  0.00    -0.395 OA
ATOM     18  H   UNL     1       2.970  -5.712   0.665  0.00  0.00    +0.209 HD
ENDBRANCH  16  17
ENDBRANCH  15  16
ENDBRANCH  14  15
ENDBRANCH   1   9
BRANCH   1  19
ATOM     19  C   UNL     1      -1.501  -0.741   0.050  0.00  0.00    -0.053 C 
BRANCH  19  20
ATOM     20  N   UNL     1      -2.205  -0.667   1.337  0.00  0.00    +0.381 N 
ATOM     21  H   UNL     1      -2.190   0.284   1.674  0.00  0.00    -0.090 HD
ATOM     22  H   UNL     1      -3.161  -0.965   1.214  0.00  0.00    -0.090 HD
ATOM     23  H   UNL     1      -1.748  -1.269   2.005  0.00  0.00    -0.090 HD
ENDBRANCH  19  20
BRANCH  19  25
ATOM     24  C   UNL     1       0.115   0.961   0.906  0.00  0.00    +0.002 C 
ATOM     25  C   UNL     1      -0.020  -0.419   0.260  0.00  0.00    -0.018 C 
ENDBRANCH  19  25
ENDBRANCH   1  19
TORSDOF 8
