REMARK  Name = ZINC45047506
REMARK  7 active torsions:
REMARK  status: ('A' for Active; 'I' for Inactive)
REMARK    1  A    between atoms: CG2_1  and  CB_2
REMARK    2  A    between atoms: CB_2  and  CA_4
REMARK    3  A    between atoms: CB_2  and  OG1_20
REMARK    4  A    between atoms: CA_4  and  C_6
REMARK    5  A    between atoms: CA_4  and  N_9
REMARK    6  A    between atoms: N_12  and  C_13
REMARK    7  A    between atoms: C_13  and  C_19
REMARK                            x       y       z     vdW  Elec       q    Type
REMARK                         _______ _______ _______ _____ _____    ______ ____
ROOT
ATOM      1  N   THR A   1       2.077   0.091   1.294  0.00  0.00    -0.284 N 
ATOM      2  C   UNK A   0       2.712   0.220   2.475  0.00  0.00    +0.301 C 
ATOM      3  O   UNK A   0       2.178  -0.164   3.498  0.00  0.00    -0.253 OA
ATOM      4  N   UNK A   0       3.940   0.774   2.523  0.00  0.00    -0.294 N 
ATOM      5  H   THR A   1       2.503   0.397   0.478  0.00  0.00    +0.151 HD
ATOM      6  H   UNK A   0       4.366   1.080   1.708  0.00  0.00    +0.151 HD
ENDROOT
BRANCH   4   7
ATOM      7  C   UNK A   0       4.631   0.913   3.808  0.00  0.00    +0.033 C 
ATOM      8  C   UNK A   0       4.824  -0.468   4.436  0.00  0.00    +0.025 C 
ATOM      9  C   UNK A   0       5.660  -1.342   3.500  0.00  0.00    +0.002 C 
ATOM     10  C   UNK A   0       7.025  -0.688   3.276  0.00  0.00    +0.000 C 
ATOM     11  C   UNK A   0       6.832   0.693   2.647  0.00  0.00    +0.002 C 
ATOM     12  C   UNK A   0       5.996   1.567   3.584  0.00  0.00    +0.025 C 
ATOM     13  C   UNK A   0       3.794   1.788   4.744  0.00  0.00    +0.031 C 
ENDBRANCH   4   7
BRANCH   1  14
ATOM     14  CA  THR A   1       0.742  -0.511   1.242  0.00  0.00    +0.216 C 
BRANCH  14  15
ATOM     15  C   THR A   1       0.870  -2.011   1.172  0.00  0.00    +0.378 C 
ATOM     16  O   THR A   1       1.961  -2.522   0.983  0.00  0.00    -0.244 OA
ATOM     17  OXT THR A   1      -0.117  -2.714   1.304  0.00  0.00    -0.244 OA
ENDBRANCH  14  15
BRANCH  14  19
ATOM     18  CG2 THR A   1      -0.019   1.526   0.010  0.00  0.00    +0.040 C 
ATOM     19  CB  THR A   1       0.002  -0.004   0.002  0.00  0.00    +0.143 C 
BRANCH  19  20
ATOM     20  OG1 THR A   1       0.671  -0.465  -1.174  0.00  0.00    -0.390 OA
ATOM     21  HG1 THR A   1       1.588  -0.167  -1.247  0.00  0.00    +0.210 HD
ENDBRANCH  19  20
ENDBRANCH  14  19
ENDBRANCH   1  14
TORSDOF 5
