REMARK  Name = ZINC13074816
REMARK  12 active torsions:
REMARK  status: ('A' for Active; 'I' for Inactive)
REMARK    1  A    between atoms: C_1  and  C_2
REMARK    2  A    between atoms: C_2  and  C_24
REMARK    3  A    between atoms: N_5  and  C_9
REMARK    4  A    between atoms: C_9  and  C_10
REMARK    5  A    between atoms: C_10  and  C_12
REMARK    6  A    between atoms: C_15  and  N_18
REMARK    7  A    between atoms: N_18  and  C_19
REMARK    8  A    between atoms: N_18  and  S_20
REMARK    9  A    between atoms: S_20  and  C_23
REMARK   10  A    between atoms: C_24  and  C_25
REMARK   11  A    between atoms: C_30  and  O_31
REMARK   12  A    between atoms: O_31  and  C_32
REMARK                            x       y       z     vdW  Elec       q    Type
REMARK                         _______ _______ _______ _____ _____    ______ ____
ROOT
ATOM      1  C   UNL     1      -0.036   1.050   0.120  0.00  0.00    +0.042 C 
ATOM      2  C   UNL     1      -0.779   1.582   1.347  0.00  0.00    +0.114 C 
ATOM      3  C   UNL     1      -0.686   3.094   1.412  0.00  0.00    +0.247 C 
ATOM      4  O   UNL     1      -1.103   3.889   0.597  0.00  0.00    -0.273 OA
ATOM      5  N   UNL     1      -0.044   3.370   2.565  0.00  0.00    -0.217 N 
ATOM      6  C   UNL     1       0.279   2.254   3.229  0.00  0.00    +0.310 C 
ATOM      7  O   UNL     1       0.863   2.248   4.295  0.00  0.00    -0.252 OA
ATOM      8  N   UNL     1      -0.116   1.140   2.586  0.00  0.00    -0.285 N 
ATOM      9  H   UNL     1       0.011   0.225   2.881  0.00  0.00    +0.151 HD
ENDROOT
BRANCH   5  10
ATOM     10  C   UNL     1       0.264   4.724   3.031  0.00  0.00    +0.197 C 
BRANCH  10  11
ATOM     11  C   UNL     1       1.614   5.141   2.508  0.00  0.00    +0.181 C 
ATOM     12  O   UNL     1       2.256   4.381   1.814  0.00  0.00    -0.290 OA
BRANCH  11  13
ATOM     13  C   UNL     1       2.152   6.466   2.839  0.00  0.00    +0.019 A 
ATOM     14  C   UNL     1       1.409   7.346   3.636  0.00  0.00    +0.013 A 
ATOM     15  C   UNL     1       1.915   8.576   3.945  0.00  0.00    +0.025 A 
ATOM     16  C   UNL     1       3.164   8.960   3.461  0.00  0.00    +0.051 A 
ATOM     17  C   UNL     1       3.904   8.089   2.663  0.00  0.00    +0.025 A 
ATOM     18  C   UNL     1       3.407   6.855   2.354  0.00  0.00    +0.013 A 
BRANCH  16  19
ATOM     19  N   UNL     1       3.673  10.214   3.773  0.00  0.00    -0.211 N 
ATOM     20  C   UNL     1       2.925  11.419   3.409  0.00  0.00    +0.157 C 
BRANCH  19  21
ATOM     21  S   UNL     1       5.125  10.346   4.558  0.00  0.00    +0.042 S 
ATOM     22  O   UNL     1       5.003  11.518   5.352  0.00  0.00    -0.155 OA
ATOM     23  O   UNL     1       5.326   9.077   5.165  0.00  0.00    -0.155 OA
ATOM     24  C   UNL     1       6.344  10.609   3.240  0.00  0.00    +0.218 C 
ENDBRANCH  19  21
ENDBRANCH  16  19
ENDBRANCH  11  13
ENDBRANCH  10  11
ENDBRANCH   5  10
BRANCH   2  25
ATOM     25  C   UNL     1      -2.240   1.129   1.328  0.00  0.00    +0.073 C 
BRANCH  25  26
ATOM     26  C   UNL     1      -2.302  -0.372   1.441  0.00  0.00    -0.003 A 
ATOM     27  C   UNL     1      -2.391  -1.149   0.302  0.00  0.00    +0.007 A 
ATOM     28  C   UNL     1      -2.448  -2.526   0.406  0.00  0.00    +0.000 A 
ATOM     29  C   UNL     1      -2.416  -3.130   1.649  0.00  0.00    +0.004 A 
ATOM     30  C   UNL     1      -2.326  -2.359   2.791  0.00  0.00    +0.046 A 
ATOM     31  C   UNL     1      -2.265  -0.976   2.690  0.00  0.00    +0.123 A 
BRANCH  31  32
ATOM     32  O   UNL     1      -2.172  -0.215   3.812  0.00  0.00    -0.495 OA
ATOM     33  C   UNL     1      -2.138  -0.904   5.063  0.00  0.00    +0.277 C 
ENDBRANCH  31  32
ENDBRANCH  25  26
ENDBRANCH   2  25
TORSDOF 8
