REMARK  Name = ZINC56950295
REMARK  9 active torsions:
REMARK  status: ('A' for Active; 'I' for Inactive)
REMARK    1  A    between atoms: C_1  and  C_2
REMARK    2  A    between atoms: C_10  and  C_11
REMARK    3  A    between atoms: N_13  and  N_14
REMARK    4  A    between atoms: N_17  and  C_18
REMARK    5  A    between atoms: C_18  and  C_19
REMARK    6  A    between atoms: C_19  and  C_21
REMARK    7  A    between atoms: C_19  and  N_28
REMARK    8  A    between atoms: N_28  and  C_29
REMARK    9  A    between atoms: N_28  and  C_30
REMARK                            x       y       z     vdW  Elec       q    Type
REMARK                         _______ _______ _______ _____ _____    ______ ____
ROOT
ATOM      1  N   UNL     1       0.687  -1.361   3.921  0.00  0.00    -0.218 N 
ATOM      2  C   UNL     1       0.472  -2.077   5.043  0.00  0.00    +0.316 C 
ATOM      3  O   UNL     1       0.286  -1.507   6.101  0.00  0.00    -0.251 OA
ATOM      4  N   UNL     1       0.464  -3.423   4.993  0.00  0.00    -0.299 N 
ATOM      5  H   UNL     1       0.693  -0.392   3.958  0.00  0.00    +0.174 HD
ATOM      6  H   UNL     1       0.613  -3.878   4.149  0.00  0.00    +0.150 HD
ENDROOT
BRANCH   1   9
ATOM      7  C   UNL     1       1.116  -1.303   1.580  0.00  0.00    +0.296 C 
ATOM      8  O   UNL     1       1.123  -0.087   1.626  0.00  0.00    -0.265 OA
ATOM      9  N   UNL     1       0.901  -2.018   2.702  0.00  0.00    -0.227 N 
ATOM     10  H   UNL     1       0.896  -2.987   2.666  0.00  0.00    +0.173 HD
BRANCH   7  20
ATOM     11  C   UNL     1       1.632   0.107  -1.143  0.00  0.00    +0.048 C 
ATOM     12  C   UNL     1       1.567  -1.376  -0.888  0.00  0.00    +0.008 A 
ATOM     13  C   UNL     1       1.739  -2.446  -1.871  0.00  0.00    +0.024 A 
ATOM     14  C   UNL     1       1.997  -2.475  -3.243  0.00  0.00    +0.012 A 
ATOM     15  C   UNL     1       2.104  -3.675  -3.887  0.00  0.00    +0.001 A 
ATOM     16  C   UNL     1       1.958  -4.865  -3.186  0.00  0.00    +0.004 A 
ATOM     17  C   UNL     1       1.703  -4.858  -1.832  0.00  0.00    +0.047 A 
ATOM     18  C   UNL     1       1.590  -3.649  -1.155  0.00  0.00    +0.136 A 
ATOM     19  O   UNL     1       1.351  -3.330   0.132  0.00  0.00    -0.450 OA
ATOM     20  C   UNL     1       1.341  -1.991   0.301  0.00  0.00    +0.195 A 
ENDBRANCH   7  20
ENDBRANCH   1   9
BRANCH   4  21
ATOM     21  C   UNL     1       0.231  -4.201   6.212  0.00  0.00    +0.095 C 
BRANCH  21  22
ATOM     22  C   UNL     1       0.145  -5.687   5.861  0.00  0.00    -0.021 C 
BRANCH  22  23
ATOM     23  C   UNL     1      -1.068  -5.930   4.999  0.00  0.00    -0.059 A 
ATOM     24  C   UNL     1      -2.319  -6.024   5.579  0.00  0.00    +0.005 A 
ATOM     25  C   UNL     1      -3.432  -6.246   4.790  0.00  0.00    +0.038 A 
ATOM     26  C   UNL     1      -3.293  -6.374   3.419  0.00  0.00    +0.123 A 
ATOM     27  C   UNL     1      -2.039  -6.280   2.839  0.00  0.00    +0.038 A 
ATOM     28  C   UNL     1      -0.929  -6.053   3.630  0.00  0.00    +0.005 A 
ATOM     29  F   UNL     1      -4.380  -6.592   2.647  0.00  0.00    -0.205 F 
ENDBRANCH  22  23
BRANCH  22  30
ATOM     30  N   UNL     1       0.035  -6.477   7.095  0.00  0.00    +0.382 N 
ATOM     31  C   UNL     1      -0.099  -7.900   6.755  0.00  0.00    -0.096 C 
ATOM     32  C   UNL     1       1.240  -6.279   7.911  0.00  0.00    -0.096 C 
ATOM     33  H   UNL     1      -0.777  -6.177   7.614  0.00  0.00    -0.082 HD
ENDBRANCH  22  30
ENDBRANCH  21  22
ENDBRANCH   4  21
TORSDOF 6
