REMARK  Name = ZINC00584376
REMARK  4 active torsions:
REMARK  status: ('A' for Active; 'I' for Inactive)
REMARK    1  A    between atoms: C_3  and  C_9
REMARK    2  A    between atoms: C_4  and  O_8
REMARK    3  A    between atoms: C_6  and  O_7
REMARK    4  A    between atoms: N_10  and  C_11
REMARK                            x       y       z     vdW  Elec       q    Type
REMARK                         _______ _______ _______ _____ _____    ______ ____
ROOT
ATOM      1  C   UNL     1       3.645   2.164  -0.081  0.00  0.00    +0.123 C 
ATOM      2  N   UNL     1       4.786   1.534  -0.036  0.00  0.00    -0.253 NA
ENDROOT
BRANCH   2   3
ATOM      3  C   UNL     1       5.958   2.231  -0.147  0.00  0.00    +0.084 A 
ATOM      4  C   UNL     1       6.165   3.382   0.617  0.00  0.00    +0.050 A 
ATOM      5  C   UNL     1       7.349   4.081   0.501  0.00  0.00    +0.061 A 
ATOM      6  C   UNL     1       8.333   3.643  -0.372  0.00  0.00    +0.061 A 
ATOM      7  C   UNL     1       8.134   2.504  -1.133  0.00  0.00    +0.043 A 
ATOM      8  C   UNL     1       6.956   1.793  -1.022  0.00  0.00    +0.068 A 
ATOM      9 CL   UNL     1       6.712   0.360  -1.971  0.00  0.00    -0.081 Cl
ATOM     10 CL   UNL     1       9.820   4.528  -0.513  0.00  0.00    -0.082 Cl
ATOM     11 CL   UNL     1       7.608   5.511   1.450  0.00  0.00    -0.082 Cl
ENDBRANCH   2   3
BRANCH   1  14
ATOM     12  C   UNL     1      -0.004   1.417   0.324  0.00  0.00    +0.046 A 
ATOM     13  C   UNL     1       1.167   2.106   0.105  0.00  0.00    +0.016 A 
ATOM     14  C   UNL     1       2.393   1.433   0.153  0.00  0.00    +0.035 A 
ATOM     15  C   UNL     1       2.420   0.056   0.425  0.00  0.00    +0.129 A 
ATOM     16  C   UNL     1       1.235  -0.625   0.644  0.00  0.00    +0.091 A 
ATOM     17  C   UNL     1       0.025   0.053   0.594  0.00  0.00    +0.120 A 
BRANCH  17  18
ATOM     18  O   UNL     1      -1.135  -0.619   0.809  0.00  0.00    -0.507 OA
ATOM     19  H   UNL     1      -1.531  -0.985   0.007  0.00  0.00    +0.292 HD
ENDBRANCH  17  18
BRANCH  15  20
ATOM     20  O   UNL     1       3.604  -0.606   0.473  0.00  0.00    -0.506 OA
ATOM     21  H   UNL     1       4.008  -0.626   1.351  0.00  0.00    +0.292 HD
ENDBRANCH  15  20
ENDBRANCH   1  14
TORSDOF 4
