REMARK  Name = ZINC31667593
REMARK  4 active torsions:
REMARK  status: ('A' for Active; 'I' for Inactive)
REMARK    1  A    between atoms: C_1  and  N_2
REMARK    2  A    between atoms: N_7  and  S_8
REMARK    3  A    between atoms: S_8  and  C_11
REMARK    4  A    between atoms: C_16  and  C_17
REMARK                            x       y       z     vdW  Elec       q    Type
REMARK                         _______ _______ _______ _____ _____    ______ ____
ROOT
ATOM      1  S   UNL     1       0.733   2.618   5.141  0.00  0.00    +0.075 S 
ATOM      2  O   UNL     1       0.475   2.951   6.498  0.00  0.00    -0.150 OA
ATOM      3  O   UNL     1       1.430   1.438   4.765  0.00  0.00    -0.150 OA
ENDROOT
BRANCH   1  10
ATOM      4  C   UNL     1      -2.727   6.888   5.617  0.00  0.00    +0.172 C 
ATOM      5  N   UNL     1      -2.559   5.546   5.054  0.00  0.00    -0.273 N 
ATOM      6  C   UNL     1      -3.491   4.853   4.365  0.00  0.00    +0.110 A 
ATOM      7  C   UNL     1      -2.949   3.664   4.016  0.00  0.00    +0.066 A 
ATOM      8  C   UNL     1      -1.639   3.623   4.519  0.00  0.00    +0.160 A 
ATOM      9  N   UNL     1      -1.407   4.755   5.142  0.00  0.00    -0.155 NA
ATOM     10  N   UNL     1      -0.738   2.561   4.380  0.00  0.00    -0.198 N 
ATOM     11  H   UNL     1      -1.006   1.689   3.767  0.00  0.00    +0.175 HD
ENDBRANCH   1  10
BRANCH   1  12
ATOM     12  C   UNL     1       1.624   3.972   4.450  0.00  0.00    +0.127 A 
ATOM     13  C   UNL     1       1.958   5.053   5.238  0.00  0.00    +0.050 A 
ATOM     14  C   UNL     1       2.663   6.116   4.698  0.00  0.00    +0.043 A 
ATOM     15  C   UNL     1       3.029   6.104   3.362  0.00  0.00    +0.021 A 
ATOM     16  C   UNL     1       2.696   5.032   2.563  0.00  0.00    +0.022 A 
ATOM     17  C   UNL     1       1.989   3.955   3.103  0.00  0.00    +0.078 A 
ATOM     18 CL   UNL     1       3.086   7.470   5.699  0.00  0.00    -0.083 Cl
BRANCH  17  19
ATOM     19  C   UNL     1       1.641   2.837   2.278  0.00  0.00    +0.101 C 
ATOM     20  N   UNL     1       1.365   1.951   1.623  0.00  0.00    -0.191 NA
ENDBRANCH  17  19
ENDBRANCH   1  12
TORSDOF 3
