REMARK  Name = ZINC65510122
REMARK  9 active torsions:
REMARK  status: ('A' for Active; 'I' for Inactive)
REMARK    1  A    between atoms: C_1  and  C_2
REMARK    2  A    between atoms: N_5  and  C_8
REMARK    3  A    between atoms: C_8  and  C_9
REMARK    4  A    between atoms: C_9  and  C_10
REMARK    5  A    between atoms: C_10  and  C_11
REMARK    6  A    between atoms: C_11  and  N_12
REMARK    7  A    between atoms: N_15  and  C_16
REMARK    8  A    between atoms: C_16  and  C_17
REMARK    9  A    between atoms: C_22  and  N_23
REMARK                            x       y       z     vdW  Elec       q    Type
REMARK                         _______ _______ _______ _____ _____    ______ ____
ROOT
ATOM      1  N   UNL     1       3.762  -7.752   2.306  0.00  0.00    -0.299 N 
ATOM      2  C   UNL     1       4.499  -8.360   3.256  0.00  0.00    +0.300 C 
ATOM      3  O   UNL     1       5.041  -7.699   4.121  0.00  0.00    -0.253 OA
ATOM      4  N   UNL     1       4.635  -9.701   3.248  0.00  0.00    -0.295 N 
ATOM      5  H   UNL     1       3.329  -8.279   1.616  0.00  0.00    +0.150 HD
ATOM      6  H   UNL     1       4.202 -10.228   2.558  0.00  0.00    +0.151 HD
ENDROOT
BRANCH   1   7
ATOM      7  C   UNL     1       3.614  -6.294   2.315  0.00  0.00    +0.105 C 
BRANCH   7   8
ATOM      8  C   UNL     1       2.736  -5.863   1.138  0.00  0.00    +0.017 C 
BRANCH   8   9
ATOM      9  C   UNL     1       2.582  -4.341   1.147  0.00  0.00    -0.017 C 
BRANCH   9  10
ATOM     10  C   UNL     1       1.704  -3.911  -0.029  0.00  0.00    -0.079 C 
BRANCH  10  15
ATOM     11  C   UNL     1      -0.019   1.526   0.010  0.00  0.00    +0.007 C 
ATOM     12  C   UNL     1       0.002  -0.004   0.002  0.00  0.00    -0.018 C 
ATOM     13  C   UNL     1       0.727  -0.499  -1.252  0.00  0.00    -0.016 C 
ATOM     14  C   UNL     1       0.814  -2.027  -1.215  0.00  0.00    -0.079 C 
ATOM     15  N   UNL     1       1.556  -2.449  -0.021  0.00  0.00    +0.380 N 
ATOM     16  C   UNL     1       0.829  -2.040   1.187  0.00  0.00    -0.079 C 
ATOM     17  C   UNL     1       0.743  -0.513   1.242  0.00  0.00    -0.016 C 
ATOM     18  H   UNL     1       2.469  -2.020  -0.024  0.00  0.00    -0.082 HD
ENDBRANCH  10  15
ENDBRANCH   9  10
ENDBRANCH   8   9
ENDBRANCH   7   8
ENDBRANCH   1   7
BRANCH   4  19
ATOM     19  C   UNL     1       5.436 -10.362   4.282  0.00  0.00    +0.143 C 
BRANCH  19  20
ATOM     20  C   UNL     1       5.427 -11.851   4.047  0.00  0.00    -0.005 A 
ATOM     21  C   UNL     1       4.582 -12.661   4.780  0.00  0.00    +0.007 A 
ATOM     22  C   UNL     1       4.574 -14.027   4.566  0.00  0.00    +0.000 A 
ATOM     23  C   UNL     1       5.411 -14.586   3.618  0.00  0.00    +0.002 A 
ATOM     24  C   UNL     1       6.258 -13.781   2.882  0.00  0.00    +0.028 A 
ATOM     25  C   UNL     1       6.264 -12.408   3.091  0.00  0.00    +0.070 A 
BRANCH  25  26
ATOM     26  N   UNL     1       7.119 -11.588   2.341  0.00  0.00    -0.240 N 
ATOM     27  C   UNL     1       7.976 -11.999   1.380  0.00  0.00    +0.114 A 
ATOM     28  C   UNL     1       8.614 -10.906   0.901  0.00  0.00    +0.041 A 
ATOM     29  C   UNL     1       8.131  -9.789   1.592  0.00  0.00    +0.135 A 
ATOM     30  N   UNL     1       7.231 -10.196   2.451  0.00  0.00    -0.175 NA
ENDBRANCH  25  26
ENDBRANCH  19  20
ENDBRANCH   4  19
TORSDOF 8
