REMARK  Name = ZINC48891558
REMARK  6 active torsions:
REMARK  status: ('A' for Active; 'I' for Inactive)
REMARK    1  A    between atoms: C_1  and  C_2
REMARK    2  A    between atoms: C_3  and  C_21
REMARK    3  A    between atoms: C_7  and  C_8
REMARK    4  A    between atoms: N_11  and  C_12
REMARK    5  A    between atoms: N_11  and  C_13
REMARK    6  A    between atoms: C_13  and  C_14
REMARK                            x       y       z     vdW  Elec       q    Type
REMARK                         _______ _______ _______ _____ _____    ______ ____
ROOT
ATOM      1  C   UNL     1       0.051   1.501   0.044  0.00  0.00    +0.046 C 
ATOM      2  C   UNL     1       0.036  -0.005   0.018  0.00  0.00    -0.014 A 
ATOM      3  C   UNL     1      -0.048  -0.699  -1.179  0.00  0.00    +0.064 A 
ATOM      4  N   UNL     1      -0.060  -2.017  -1.182  0.00  0.00    -0.152 NA
ATOM      5  N   UNL     1       0.003  -2.711  -0.105  0.00  0.00    -0.133 NA
ATOM      6  C   UNL     1       0.086  -2.151   1.093  0.00  0.00    +0.155 A 
ATOM      7  C   UNL     1       0.112  -0.749   1.200  0.00  0.00    +0.060 A 
ATOM      8  N   UNL     1       0.152  -2.939   2.230  0.00  0.00    -0.312 N 
ATOM      9  C   UNL     1       1.452  -3.388   2.735  0.00  0.00    +0.131 C 
ATOM     10  C   UNL     1      -0.125   0.057  -2.481  0.00  0.00    +0.068 C 
ENDROOT
BRANCH   7  11
ATOM     11  C   UNL     1       0.209  -0.083   2.518  0.00  0.00    +0.119 C 
ATOM     12  N   UNL     1      -0.871   0.176   3.199  0.00  0.00    -0.285 NA
ATOM     13  N   UNL     1       1.443   0.264   3.025  0.00  0.00    -0.343 N 
ATOM     14  H   UNL     1      -0.806   0.612   4.063  0.00  0.00    +0.188 HD
ATOM     15  H   UNL     1       2.248   0.071   2.518  0.00  0.00    +0.144 HD
ATOM     16  H   UNL     1       1.508   0.700   3.889  0.00  0.00    +0.144 HD
ENDBRANCH   7  11
BRANCH   8  17
ATOM     17  C   UNL     1      -1.077  -3.324   2.927  0.00  0.00    +0.141 C 
BRANCH  17  18
ATOM     18  C   UNL     1      -1.590  -4.624   2.361  0.00  0.00    -0.029 A 
ATOM     19  C   UNL     1      -2.466  -4.614   1.292  0.00  0.00    +0.005 A 
ATOM     20  C   UNL     1      -2.937  -5.806   0.773  0.00  0.00    +0.001 A 
ATOM     21  C   UNL     1      -2.530  -7.008   1.322  0.00  0.00    +0.015 A 
ATOM     22  C   UNL     1      -1.653  -7.017   2.392  0.00  0.00    +0.018 A 
ATOM     23  C   UNL     1      -1.179  -5.825   2.908  0.00  0.00    +0.020 A 
ATOM     24 BR   UNL     1      -1.097  -8.661   3.144  0.00  0.00    -0.050 Br
ENDBRANCH  17  18
ENDBRANCH   8  17
TORSDOF 3
