REMARK  Name = ZINC57380981
REMARK  9 active torsions:
REMARK  status: ('A' for Active; 'I' for Inactive)
REMARK    1  A    between atoms: C_1  and  N_2
REMARK    2  A    between atoms: C_3  and  C_5
REMARK    3  A    between atoms: C_7  and  S_13
REMARK    4  A    between atoms: S_13  and  N_16
REMARK    5  A    between atoms: N_16  and  C_17
REMARK    6  A    between atoms: C_20  and  O_25
REMARK    7  A    between atoms: C_22  and  O_23
REMARK    8  A    between atoms: O_23  and  C_24
REMARK    9  A    between atoms: O_25  and  C_26
REMARK                            x       y       z     vdW  Elec       q    Type
REMARK                         _______ _______ _______ _____ _____    ______ ____
ROOT
ATOM      1  S   UNL     1      -0.706  -5.138   1.324  0.00  0.00    +0.093 S 
ATOM      2  O   UNL     1       0.247  -6.106   1.741  0.00  0.00    -0.148 OA
ATOM      3  O   UNL     1      -1.256  -4.177   2.215  0.00  0.00    -0.148 OA
ENDROOT
BRANCH   1   6
ATOM      4  C   UNL     1       0.605  -2.141  -1.026  0.00  0.00    +0.057 A 
ATOM      5  C   UNL     1       0.016  -2.857   0.019  0.00  0.00    +0.045 A 
ATOM      6  C   UNL     1       0.038  -4.235   0.006  0.00  0.00    +0.129 A 
ATOM      7  C   UNL     1       0.643  -4.912  -1.041  0.00  0.00    +0.069 A 
ATOM      8  C   UNL     1       1.230  -4.210  -2.080  0.00  0.00    +0.042 A 
ATOM      9  C   UNL     1       1.209  -2.829  -2.082  0.00  0.00    +0.055 A 
ATOM     10 CL   UNL     1       1.938  -1.950  -3.389  0.00  0.00    -0.083 Cl
ATOM     11 CL   UNL     1       0.666  -6.647  -1.049  0.00  0.00    -0.081 Cl
BRANCH   4  14
ATOM     12  C   UNL     1      -0.018   1.461   0.010  0.00  0.00    +0.128 C 
ATOM     13  N   UNL     1       0.002  -0.004   0.002  0.00  0.00    -0.314 N 
ATOM     14  C   UNL     1       0.585  -0.664  -1.018  0.00  0.00    +0.245 C 
ATOM     15  O   UNL     1       1.095  -0.045  -1.931  0.00  0.00    -0.270 OA
ATOM     16  H   UNL     1      -0.404  -0.499   0.731  0.00  0.00    +0.149 HD
ENDBRANCH   4  14
ENDBRANCH   1   6
BRANCH   1  17
ATOM     17  N   UNL     1      -1.983  -5.976   0.684  0.00  0.00    -0.094 NA
BRANCH  17  18
ATOM     18  C   UNL     1      -2.770  -6.792   1.509  0.00  0.00    +0.117 A 
ATOM     19  C   UNL     1      -2.483  -6.893   2.862  0.00  0.00    +0.054 A 
ATOM     20  C   UNL     1      -3.259  -7.698   3.676  0.00  0.00    +0.085 A 
ATOM     21  C   UNL     1      -4.327  -8.405   3.140  0.00  0.00    +0.142 A 
ATOM     22  C   UNL     1      -4.616  -8.307   1.788  0.00  0.00    +0.094 A 
ATOM     23  C   UNL     1      -3.844  -7.497   0.971  0.00  0.00    +0.148 A 
ATOM     24 CL   UNL     1      -2.898  -7.824   5.369  0.00  0.00    -0.080 Cl
BRANCH  23  25
ATOM     25  O   UNL     1      -4.130  -7.395  -0.354  0.00  0.00    -0.493 OA
ATOM     26  C   UNL     1      -5.246  -8.146  -0.837  0.00  0.00    +0.277 C 
ENDBRANCH  23  25
BRANCH  21  27
ATOM     27  O   UNL     1      -5.089  -9.196   3.942  0.00  0.00    -0.494 OA
ATOM     28  C   UNL     1      -6.171  -9.895   3.325  0.00  0.00    +0.277 C 
ENDBRANCH  21  27
ENDBRANCH  17  18
ENDBRANCH   1  17
TORSDOF 6
