REMARK  Name = ZINC39594983
REMARK  8 active torsions:
REMARK  status: ('A' for Active; 'I' for Inactive)
REMARK    1  A    between atoms: C_1  and  O_2
REMARK    2  A    between atoms: O_2  and  C_3
REMARK    3  A    between atoms: C_4  and  C_9
REMARK    4  A    between atoms: C_13  and  C_22
REMARK    5  A    between atoms: N_24  and  C_25
REMARK    6  A    between atoms: C_25  and  C_26
REMARK    7  A    between atoms: C_26  and  C_28
REMARK    8  A    between atoms: C_26  and  N_34
REMARK                            x       y       z     vdW  Elec       q    Type
REMARK                         _______ _______ _______ _____ _____    ______ ____
ROOT
ATOM      1  C   UNL     1      -1.224  -0.672   2.634  0.00  0.00    +0.251 C 
ATOM      2  O   UNL     1      -1.700  -0.884   1.534  0.00  0.00    -0.270 OA
ATOM      3  N   UNL     1      -1.858  -1.111   3.739  0.00  0.00    -0.296 N 
ATOM      4  C   UNL     1      -3.089  -1.933   3.814  0.00  0.00    +0.121 C 
ATOM      5  C   UNL     1      -2.831  -2.918   4.976  0.00  0.00    +0.100 C 
ATOM      6  C   UNL     1      -1.777  -2.222   5.853  0.00  0.00    -0.004 C 
ATOM      7  C   UNL     1      -1.478  -0.888   5.154  0.00  0.00    +0.115 C 
ATOM      8  C   UNL     1      -0.509  -3.067   5.927  0.00  0.00    -0.010 C 
ATOM      9  C   UNL     1       0.503  -2.382   6.850  0.00  0.00    -0.082 C 
ATOM     10  N   UNL     1      -0.082  -2.223   8.187  0.00  0.00    +0.379 N 
ATOM     11  C   UNL     1      -1.247  -1.333   8.121  0.00  0.00    -0.082 C 
ATOM     12  C   UNL     1      -2.333  -1.973   7.252  0.00  0.00    -0.010 C 
ATOM     13  H   UNL     1      -0.369  -3.125   8.537  0.00  0.00    -0.086 HD
ATOM     14  H   UNL     1       0.607  -1.827   8.809  0.00  0.00    -0.086 HD
ENDROOT
BRANCH   1  16
ATOM     15  C   UNL     1       1.101  -0.083   1.784  0.00  0.00    +0.158 A 
ATOM     16  C   UNL     1       0.042   0.065   2.756  0.00  0.00    +0.087 A 
ATOM     17  C   UNL     1       0.276   0.930   3.804  0.00  0.00    +0.063 A 
ATOM     18  S   UNL     1       1.820   1.519   3.518  0.00  0.00    -0.081 S 
ATOM     19  C   UNL     1       2.215   0.647   2.017  0.00  0.00    +0.120 A 
ATOM     20 CL   UNL     1       3.675   0.718   1.080  0.00  0.00    -0.072 Cl
BRANCH  15  22
ATOM     21  C   UNL     1       1.419  -2.260   0.877  0.00  0.00    +0.277 C 
ATOM     22  O   UNL     1       0.987  -0.909   0.707  0.00  0.00    -0.492 OA
ENDBRANCH  15  22
ENDBRANCH   1  16
BRANCH   5  23
ATOM     23  C   UNL     1      -4.098  -3.149   5.759  0.00  0.00    +0.218 C 
ATOM     24  O   UNL     1      -4.971  -2.307   5.762  0.00  0.00    -0.275 OA
ATOM     25  N   UNL     1      -4.261  -4.291   6.455  0.00  0.00    -0.316 N 
ATOM     26  H   UNL     1      -3.563  -4.965   6.452  0.00  0.00    +0.149 HD
BRANCH  25  27
ATOM     27  C   UNL     1      -5.493  -4.516   7.216  0.00  0.00    +0.093 C 
BRANCH  27  28
ATOM     28  C   UNL     1      -5.478  -5.928   7.805  0.00  0.00    -0.019 C 
BRANCH  28  29
ATOM     29  C   UNL     1      -5.431  -6.938   6.688  0.00  0.00    -0.041 A 
ATOM     30  C   UNL     1      -4.233  -7.543   6.338  0.00  0.00    +0.005 A 
ATOM     31  C   UNL     1      -4.238  -8.466   5.304  0.00  0.00    +0.020 A 
ATOM     32  C   UNL     1      -5.428  -8.751   4.661  0.00  0.00    +0.111 A 
ATOM     33  N   UNL     1      -6.548  -8.156   5.020  0.00  0.00    -0.263 NA
ATOM     34  C   UNL     1      -6.582  -7.278   6.003  0.00  0.00    +0.112 A 
ENDBRANCH  28  29
BRANCH  28  35
ATOM     35  N   UNL     1      -6.692  -6.138   8.605  0.00  0.00    +0.385 N 
ATOM     36  C   UNL     1      -6.605  -7.426   9.340  0.00  0.00    -0.078 C 
ATOM     37  C   UNL     1      -7.610  -7.238  10.504  0.00  0.00    -0.020 C 
ATOM     38  C   UNL     1      -7.419  -5.753  10.889  0.00  0.00    -0.020 C 
ATOM     39  C   UNL     1      -6.808  -5.089   9.641  0.00  0.00    -0.078 C 
ATOM     40  H   UNL     1      -7.507  -6.130   8.009  0.00  0.00    -0.081 HD
ENDBRANCH  28  35
ENDBRANCH  27  28
ENDBRANCH  25  27
ENDBRANCH   5  23
TORSDOF 7
