REMARK  Name = ZINC62809137
REMARK  5 active torsions:
REMARK  status: ('A' for Active; 'I' for Inactive)
REMARK    1  A    between atoms: C_1  and  C_2
REMARK    2  A    between atoms: C_2  and  C_4
REMARK    3  A    between atoms: C_2  and  O_11
REMARK    4  A    between atoms: C_8  and  O_10
REMARK    5  A    between atoms: O_11  and  C_12
REMARK                            x       y       z     vdW  Elec       q    Type
REMARK                         _______ _______ _______ _____ _____    ______ ____
ROOT
ATOM      1  C   UNL     1      -0.253   1.492  -0.099  0.00  0.00    +0.062 C 
ATOM      2  C   UNL     1       0.001  -0.013   0.005  0.00  0.00    +0.256 C 
ENDROOT
BRANCH   2   3
ATOM      3  C   UNL     1       0.861  -0.295   1.210  0.00  0.00    +0.256 C 
ATOM      4  O   UNL     1       1.977  -0.747   1.067  0.00  0.00    -0.272 OA
ATOM      5  N   UNL     1       0.389  -0.045   2.448  0.00  0.00    -0.293 N 
ATOM      6  C   UNL     1      -0.863   0.475   3.019  0.00  0.00    +0.140 C 
ATOM      7  C   UNL     1      -0.556  -0.332   4.288  0.00  0.00    +0.149 C 
ATOM      8  C   UNL     1       0.896  -0.179   3.822  0.00  0.00    +0.140 C 
BRANCH   7   9
ATOM      9  O   UNL     1      -0.858   0.353   5.505  0.00  0.00    -0.389 OA
ATOM     10  H   UNL     1      -0.663  -0.157   6.303  0.00  0.00    +0.210 HD
ENDBRANCH   7   9
ENDBRANCH   2   3
BRANCH   2  11
ATOM     11  O   UNL     1       0.671  -0.465  -1.174  0.00  0.00    -0.478 OA
BRANCH  11  12
ATOM     12  C   UNL     1      -0.107  -0.775  -2.245  0.00  0.00    +0.140 A 
ATOM     13  C   UNL     1      -1.473  -0.541  -2.202  0.00  0.00    +0.047 A 
ATOM     14  C   UNL     1      -2.261  -0.856  -3.292  0.00  0.00    +0.004 A 
ATOM     15  C   UNL     1      -1.690  -1.405  -4.425  0.00  0.00    +0.002 A 
ATOM     16  C   UNL     1      -0.328  -1.640  -4.471  0.00  0.00    +0.023 A 
ATOM     17  C   UNL     1       0.466  -1.321  -3.385  0.00  0.00    +0.083 A 
ATOM     18 CL   UNL     1       2.177  -1.609  -3.445  0.00  0.00    -0.080 Cl
ENDBRANCH  11  12
ENDBRANCH   2  11
TORSDOF 4
