REMARK  Name = ZINC40794210
REMARK  6 active torsions:
REMARK  status: ('A' for Active; 'I' for Inactive)
REMARK    1  A    between atoms: C_4  and  O_7
REMARK    2  A    between atoms: O_7  and  C_8
REMARK    3  A    between atoms: C_9  and  N_24
REMARK    4  A    between atoms: C_10  and  N_14
REMARK    5  A    between atoms: N_14  and  N_15
REMARK    6  A    between atoms: C_16  and  C_18
REMARK                            x       y       z     vdW  Elec       q    Type
REMARK                         _______ _______ _______ _____ _____    ______ ____
ROOT
ATOM      1  C   UNL     1       3.561  -1.985   0.061  0.00  0.00    +0.246 A 
ATOM      2  C   UNL     1       4.748  -2.708   0.161  0.00  0.00    +0.129 A 
ATOM      3  C   UNL     1       4.667  -4.100   0.260  0.00  0.00    +0.163 A 
ATOM      4  N   UNL     1       3.468  -4.676   0.254  0.00  0.00    -0.217 NA
ATOM      5  C   UNL     1       2.370  -3.954   0.158  0.00  0.00    +0.227 A 
ATOM      6  N   UNL     1       2.404  -2.640   0.068  0.00  0.00    -0.199 NA
ENDROOT
BRANCH   2   7
ATOM      7  N   UNL     1       5.992  -2.057   0.163  0.00  0.00    -0.351 N 
ATOM      8  H   UNL     1       6.033  -1.090   0.093  0.00  0.00    +0.143 HD
ATOM      9  H   UNL     1       6.810  -2.573   0.233  0.00  0.00    +0.143 HD
ENDBRANCH   2   7
BRANCH   3  10
ATOM     10  N   UNL     1       5.820  -4.869   0.361  0.00  0.00    -0.246 N 
ATOM     11  H   UNL     1       6.690  -4.440   0.364  0.00  0.00    +0.172 HD
BRANCH  10  12
ATOM     12  N   UNL     1       5.726  -6.263   0.459  0.00  0.00    -0.230 N 
ATOM     13  C   UNL     1       6.844  -7.009   0.557  0.00  0.00    +0.278 C 
ATOM     14  O   UNL     1       7.934  -6.472   0.561  0.00  0.00    -0.267 OA
ATOM     15  H   UNL     1       4.855  -6.691   0.456  0.00  0.00    +0.173 HD
BRANCH  13  16
ATOM     16  C   UNL     1       6.744  -8.483   0.661  0.00  0.00    +0.127 A 
ATOM     17  C   UNL     1       7.903  -9.248   0.768  0.00  0.00    +0.033 A 
ATOM     18  C   UNL     1       7.794 -10.627   0.865  0.00  0.00    +0.004 A 
ATOM     19  C   UNL     1       6.528 -11.192   0.850  0.00  0.00    +0.020 A 
ATOM     20  C   UNL     1       5.418 -10.370   0.741  0.00  0.00    +0.111 A 
ATOM     21  N   UNL     1       5.551  -9.064   0.657  0.00  0.00    -0.250 NA
ENDBRANCH  13  16
ENDBRANCH  10  12
ENDBRANCH   3  10
BRANCH   1  22
ATOM     22  O   UNL     1       3.586  -0.632  -0.036  0.00  0.00    -0.436 OA
BRANCH  22  26
ATOM     23  C   UNL     1      -0.017   1.379   0.004  0.00  0.00    +0.000 A 
ATOM     24  C   UNL     1       0.511   0.884   1.183  0.00  0.00    +0.004 A 
ATOM     25  C   UNL     1       1.717   0.210   1.172  0.00  0.00    +0.046 A 
ATOM     26  C   UNL     1       2.399   0.030  -0.023  0.00  0.00    +0.130 A 
ATOM     27  C   UNL     1       1.868   0.528  -1.204  0.00  0.00    +0.046 A 
ATOM     28  C   UNL     1       0.661   1.201  -1.188  0.00  0.00    +0.004 A 
ENDBRANCH  22  26
ENDBRANCH   1  22
TORSDOF 6
