REMARK  Name = ZINC12893183
REMARK  4 active torsions:
REMARK  status: ('A' for Active; 'I' for Inactive)
REMARK    1  A    between atoms: C_8  and  C_24
REMARK    2  A    between atoms: N_9  and  C_11
REMARK    3  A    between atoms: C_11  and  C_12
REMARK    4  A    between atoms: C_14  and  C_17
REMARK                            x       y       z     vdW  Elec       q    Type
REMARK                         _______ _______ _______ _____ _____    ______ ____
ROOT
ATOM      1  C   UNL     1       0.077   1.317  -0.249  0.00  0.00    +0.000 A 
ATOM      2  C   UNL     1       1.207   1.986   0.182  0.00  0.00    +0.000 A 
ATOM      3  C   UNL     1       2.380   1.290   0.393  0.00  0.00    +0.005 A 
ATOM      4  C   UNL     1       2.433  -0.078   0.174  0.00  0.00    -0.030 A 
ATOM      5  C   UNL     1       1.307  -0.745  -0.260  0.00  0.00    -0.041 A 
ATOM      6  C   UNL     1       0.128  -0.045  -0.469  0.00  0.00    +0.004 A 
ATOM      7  C   UNL     1       1.318  -2.229  -0.523  0.00  0.00    +0.063 C 
ATOM      8  C   UNL     1       2.536  -2.868   0.145  0.00  0.00    +0.148 C 
ATOM      9  N   UNL     1       3.734  -2.104  -0.238  0.00  0.00    -0.278 NA
ATOM     10  C   UNL     1       3.734  -0.795   0.423  0.00  0.00    +0.121 C 
ENDROOT
BRANCH   8  11
ATOM     11  C   UNL     1       2.677  -4.295  -0.318  0.00  0.00    +0.228 C 
ATOM     12  O   UNL     1       3.249  -4.542  -1.359  0.00  0.00    -0.274 OA
ATOM     13  N   UNL     1       2.166  -5.298   0.424  0.00  0.00    -0.328 N 
ATOM     14  H   UNL     1       1.708  -5.101   1.256  0.00  0.00    +0.145 HD
ATOM     15  H   UNL     1       2.257  -6.216   0.125  0.00  0.00    +0.145 HD
ENDBRANCH   8  11
BRANCH   9  16
ATOM     16  C   UNL     1       4.959  -2.852   0.076  0.00  0.00    +0.184 C 
BRANCH  16  17
ATOM     17  C   UNL     1       6.124  -2.239  -0.656  0.00  0.00    +0.242 A 
ATOM     18  N   UNL     1       6.896  -1.293  -0.203  0.00  0.00    -0.190 NA
ATOM     19  C   UNL     1       7.834  -0.986  -1.116  0.00  0.00    +0.202 A 
ATOM     20  N   UNL     1       7.658  -1.746  -2.169  0.00  0.00    -0.056 NA
ATOM     21  O   UNL     1       6.544  -2.578  -1.882  0.00  0.00    -0.336 OA
BRANCH  19  22
ATOM     22  C   UNL     1       8.891   0.044  -0.959  0.00  0.00    +0.024 A 
ATOM     23  C   UNL     1       8.974   0.787   0.217  0.00  0.00    +0.012 A 
ATOM     24  C   UNL     1       9.959   1.743   0.359  0.00  0.00    +0.002 A 
ATOM     25  C   UNL     1      10.863   1.966  -0.664  0.00  0.00    +0.020 A 
ATOM     26  C   UNL     1      10.785   1.232  -1.835  0.00  0.00    +0.042 A 
ATOM     27  C   UNL     1       9.807   0.268  -1.984  0.00  0.00    +0.031 A 
ATOM     28 CL   UNL     1      11.922   1.519  -3.115  0.00  0.00    -0.084 Cl
ENDBRANCH  19  22
ENDBRANCH  16  17
ENDBRANCH   9  16
TORSDOF 4
