REMARK  Name = ZINC04142365
REMARK  16 active torsions:
REMARK  status: ('A' for Active; 'I' for Inactive)
REMARK    1  A    between atoms: C_1  and  C_2
REMARK    2  A    between atoms: C_5  and  N_9
REMARK    3  A    between atoms: C_7  and  C_8
REMARK    4  A    between atoms: N_10  and  N_11
REMARK    5  A    between atoms: N_11  and  C_12
REMARK    6  A    between atoms: N_11  and  C_24
REMARK    7  A    between atoms: C_12  and  C_13
REMARK    8  A    between atoms: C_13  and  C_15
REMARK    9  A    between atoms: C_13  and  O_23
REMARK   10  A    between atoms: C_15  and  C_17
REMARK   11  A    between atoms: C_15  and  O_22
REMARK   12  A    between atoms: C_17  and  C_19
REMARK   13  A    between atoms: C_17  and  O_21
REMARK   14  A    between atoms: C_19  and  O_20
REMARK   15  A    between atoms: C_27  and  C_31
REMARK   16  A    between atoms: C_28  and  C_30
REMARK                            x       y       z     vdW  Elec       q    Type
REMARK                         _______ _______ _______ _____ _____    ______ ____
ROOT
ATOM      1  N   UNL     1      -3.543   2.094   0.030  0.00  0.00    -0.204 N 
ENDROOT
BRANCH   1   2
ATOM      2  C   UNL     1      -3.560   3.486   0.143  0.00  0.00    +0.053 A 
ATOM      3  C   UNL     1      -2.502   4.148   0.753  0.00  0.00    +0.025 A 
ATOM      4  C   UNL     1      -2.520   5.525   0.859  0.00  0.00    +0.005 A 
ATOM      5  C   UNL     1      -3.595   6.244   0.368  0.00  0.00    -0.047 A 
ATOM      6  C   UNL     1      -4.652   5.588  -0.235  0.00  0.00    -0.046 A 
ATOM      7  C   UNL     1      -4.638   4.211  -0.349  0.00  0.00    +0.028 A 
ATOM      8  C   UNL     1      -5.821   6.375  -0.768  0.00  0.00    +0.044 C 
ATOM      9  C   UNL     1      -3.613   7.746   0.489  0.00  0.00    +0.044 C 
ENDBRANCH   1   2
BRANCH   1  11
ATOM     10  N   UNL     1      -1.405   2.137  -0.899  0.00  0.00    -0.133 NA
ATOM     11  N   UNL     1      -2.405   1.445  -0.468  0.00  0.00    -0.074 NA
BRANCH  10  16
ATOM     12  C   UNL     1       3.174  -0.476  -2.923  0.00  0.00    +0.044 C 
ATOM     13  C   UNL     1       1.952   0.221  -2.381  0.00  0.00    -0.047 A 
ATOM     14  C   UNL     1       0.884  -0.524  -1.914  0.00  0.00    +0.006 A 
ATOM     15  C   UNL     1      -0.237   0.108  -1.417  0.00  0.00    +0.030 A 
ATOM     16  C   UNL     1      -0.292   1.503  -1.386  0.00  0.00    +0.088 A 
ATOM     17  C   UNL     1       0.789   2.248  -1.859  0.00  0.00    +0.033 A 
ATOM     18  C   UNL     1       1.904   1.603  -2.353  0.00  0.00    -0.045 A 
ATOM     19  C   UNL     1       3.073   2.407  -2.864  0.00  0.00    +0.044 C 
ENDBRANCH  10  16
ENDBRANCH   1  11
BRANCH   1  20
ATOM     20  C   UNL     1      -4.715   1.312   0.432  0.00  0.00    +0.167 C 
BRANCH  20  21
ATOM     21  C   UNL     1      -4.657   1.044   1.938  0.00  0.00    +0.165 C 
BRANCH  21  22
ATOM     22  O   UNL     1      -4.766   2.280   2.646  0.00  0.00    -0.388 OA
ATOM     23  H   UNL     1      -5.587   2.761   2.473  0.00  0.00    +0.210 HD
ENDBRANCH  21  22
BRANCH  21  24
ATOM     24  C   UNL     1      -5.812   0.123   2.336  0.00  0.00    +0.175 C 
BRANCH  24  25
ATOM     25  O   UNL     1      -5.703  -1.113   1.628  0.00  0.00    -0.387 OA
ATOM     26  H   UNL     1      -4.882  -1.594   1.800  0.00  0.00    +0.210 HD
ENDBRANCH  24  25
BRANCH  24  27
ATOM     27  C   UNL     1      -5.754  -0.145   3.842  0.00  0.00    +0.171 C 
BRANCH  27  28
ATOM     28  O   UNL     1      -4.468  -0.664   4.184  0.00  0.00    -0.387 OA
ATOM     29  H   UNL     1      -4.247  -1.493   3.737  0.00  0.00    +0.210 HD
ENDBRANCH  27  28
BRANCH  27  30
ATOM     30  C   UNL     1      -6.832  -1.163   4.220  0.00  0.00    +0.189 C 
BRANCH  30  31
ATOM     31  O   UNL     1      -6.856  -1.326   5.640  0.00  0.00    -0.392 OA
ATOM     32  H   UNL     1      -7.517  -1.958   5.952  0.00  0.00    +0.210 HD
ENDBRANCH  30  31
ENDBRANCH  27  30
ENDBRANCH  24  27
ENDBRANCH  21  24
ENDBRANCH  20  21
ENDBRANCH   1  20
TORSDOF 12
