REMARK  Name = ZINC43441262
REMARK  6 active torsions:
REMARK  status: ('A' for Active; 'I' for Inactive)
REMARK    1  A    between atoms: C_3  and  C_6
REMARK    2  A    between atoms: C_6  and  N_7
REMARK    3  A    between atoms: C_8  and  C_10
REMARK    4  A    between atoms: C_10  and  N_11
REMARK    5  A    between atoms: N_14  and  C_15
REMARK    6  A    between atoms: C_20  and  N_21
REMARK                            x       y       z     vdW  Elec       q    Type
REMARK                         _______ _______ _______ _____ _____    ______ ____
ROOT
ATOM      1  N   UNL     1       7.525  -0.054   2.901  0.00  0.00    -0.291 N 
ATOM      2  C   UNL     1       8.215  -0.087   4.058  0.00  0.00    +0.304 C 
ATOM      3  O   UNL     1       7.732  -0.618   5.040  0.00  0.00    -0.252 OA
ATOM      4  N   UNL     1       9.441   0.469   4.128  0.00  0.00    -0.268 N 
ATOM      5  H   UNL     1       7.910   0.370   2.119  0.00  0.00    +0.151 HD
ATOM      6  H   UNL     1       9.861   0.820   3.327  0.00  0.00    +0.156 HD
ENDROOT
BRANCH   4   7
ATOM      7  C   UNL     1      10.110   0.540   5.358  0.00  0.00    +0.057 A 
ATOM      8  C   UNL     1       9.389   0.537   6.543  0.00  0.00    +0.045 A 
ATOM      9  C   UNL     1      10.050   0.607   7.755  0.00  0.00    +0.043 A 
ATOM     10  C   UNL     1      11.432   0.680   7.790  0.00  0.00    +0.022 A 
ATOM     11  C   UNL     1      12.158   0.683   6.614  0.00  0.00    +0.026 A 
ATOM     12  C   UNL     1      11.502   0.607   5.394  0.00  0.00    +0.051 A 
ATOM     13 CL   UNL     1       9.145   0.605   9.237  0.00  0.00    -0.083 Cl
BRANCH  12  14
ATOM     14  N   UNL     1      12.236   0.604   4.202  0.00  0.00    -0.328 N 
ATOM     15  C   UNL     1      12.573   1.865   3.527  0.00  0.00    +0.105 C 
ATOM     16  C   UNL     1      14.086   1.909   3.294  0.00  0.00    +0.019 C 
ATOM     17  C   UNL     1      14.519   0.654   2.533  0.00  0.00    +0.003 C 
ATOM     18  C   UNL     1      14.195  -0.587   3.368  0.00  0.00    +0.019 C 
ATOM     19  C   UNL     1      12.688  -0.660   3.605  0.00  0.00    +0.105 C 
ENDBRANCH  12  14
ENDBRANCH   4   7
BRANCH   1  20
ATOM     20  C   UNL     1       6.192  -0.658   2.826  0.00  0.00    +0.201 C 
BRANCH  20  22
ATOM     21  N   UNL     1       4.420  -0.967   1.128  0.00  0.00    -0.307 N 
ATOM     22  C   UNL     1       5.641  -0.486   1.433  0.00  0.00    +0.231 C 
ATOM     23  O   UNL     1       6.297   0.084   0.588  0.00  0.00    -0.274 OA
ATOM     24  H   UNL     1       3.895  -1.423   1.804  0.00  0.00    +0.149 HD
BRANCH  21  25
ATOM     25  C   UNL     1       3.884  -0.800  -0.225  0.00  0.00    +0.178 C 
BRANCH  25  28
ATOM     26  C   UNL     1       0.322  -1.747  -0.243  0.00  0.00    +0.041 A 
ATOM     27  C   UNL     1       1.350  -0.795  -0.050  0.00  0.00    +0.046 A 
ATOM     28  C   UNL     1       2.514  -1.422  -0.303  0.00  0.00    +0.122 A 
ATOM     29  O   UNL     1       2.246  -2.695  -0.638  0.00  0.00    -0.466 OA
ATOM     30  C   UNL     1       0.919  -2.897  -0.603  0.00  0.00    +0.195 A 
ENDBRANCH  25  28
ENDBRANCH  21  25
ENDBRANCH  20  22
ENDBRANCH   1  20
TORSDOF 6
