REMARK  Name = ZINC05961362
REMARK  9 active torsions:
REMARK  status: ('A' for Active; 'I' for Inactive)
REMARK    1  A    between atoms: C_1  and  C_2
REMARK    2  A    between atoms: C_5  and  N_9
REMARK    3  A    between atoms: C_6  and  C_8
REMARK    4  A    between atoms: C_10  and  C_12
REMARK    5  A    between atoms: C_12  and  C_13
REMARK    6  A    between atoms: C_13  and  C_14
REMARK    7  A    between atoms: N_16  and  N_17
REMARK    8  A    between atoms: C_18  and  C_20
REMARK    9  A    between atoms: C_24  and  N_26
REMARK                            x       y       z     vdW  Elec       q    Type
REMARK                         _______ _______ _______ _____ _____    ______ ____
ROOT
ATOM      1  C   UNL     1       1.142   2.086  -0.026  0.00  0.00    +0.230 C 
ATOM      2  O   UNL     1       2.200   1.494  -0.046  0.00  0.00    -0.274 OA
ATOM      3  N   UNL     1      -0.016   1.396  -0.022  0.00  0.00    -0.234 N 
ATOM      4  H   UNL     1      -0.863   1.870  -0.010  0.00  0.00    +0.173 HD
ENDROOT
BRANCH   3   5
ATOM      5  N   UNL     1       0.003  -0.004  -0.041  0.00  0.00    -0.230 N 
ATOM      6  C   UNL     1      -1.155  -0.694  -0.037  0.00  0.00    +0.260 C 
ATOM      7  O   UNL     1      -2.216  -0.101  -0.017  0.00  0.00    -0.269 OA
ATOM      8  H   UNL     1       0.850  -0.478  -0.057  0.00  0.00    +0.173 HD
BRANCH   6   9
ATOM      9  C   UNL     1      -1.135  -2.172  -0.056  0.00  0.00    +0.040 A 
ATOM     10  C   UNL     1       0.083  -2.856  -0.085  0.00  0.00    +0.014 A 
ATOM     11  C   UNL     1       0.095  -4.235  -0.099  0.00  0.00    +0.023 A 
ATOM     12  C   UNL     1      -1.097  -4.941  -0.094  0.00  0.00    +0.071 A 
ATOM     13  C   UNL     1      -2.307  -4.268  -0.071  0.00  0.00    +0.145 A 
ATOM     14  C   UNL     1      -2.332  -2.889  -0.052  0.00  0.00    +0.047 A 
ATOM     15 CL   UNL     1      -1.073  -6.677  -0.118  0.00  0.00    -0.081 Cl
BRANCH  13  16
ATOM     16  N   UNL     1      -3.576  -5.030  -0.066  0.00  0.00    +0.058 N 
ATOM     17  O   UNL     1      -4.641  -4.440  -0.045  0.00  0.00    -0.126 OA
ATOM     18  O   UNL     1      -3.555  -6.248  -0.083  0.00  0.00    -0.126 OA
ENDBRANCH  13  16
ENDBRANCH   6   9
ENDBRANCH   3   5
BRANCH   1  19
ATOM     19  C   UNL     1       1.121   3.593  -0.006  0.00  0.00    +0.106 C 
BRANCH  19  20
ATOM     20  C   UNL     1       2.556   4.123  -0.015  0.00  0.00    +0.105 C 
BRANCH  20  22
ATOM     21  N   UNL     1       3.693   6.319   0.001  0.00  0.00    -0.285 N 
ATOM     22  C   UNL     1       2.536   5.630   0.005  0.00  0.00    +0.218 C 
ATOM     23  O   UNL     1       1.477   6.221   0.025  0.00  0.00    -0.275 OA
ATOM     24  H   UNL     1       4.539   5.848   0.066  0.00  0.00    +0.155 HD
BRANCH  21  29
ATOM     25  C   UNL     1       3.622  11.978  -0.397  0.00  0.00    +0.044 C 
ATOM     26  C   UNL     1       3.641  10.475  -0.291  0.00  0.00    -0.050 A 
ATOM     27  C   UNL     1       2.582   9.735  -0.785  0.00  0.00    +0.005 A 
ATOM     28  C   UNL     1       2.596   8.358  -0.690  0.00  0.00    +0.024 A 
ATOM     29  C   UNL     1       3.676   7.715  -0.097  0.00  0.00    +0.036 A 
ATOM     30  C   UNL     1       4.735   8.461   0.403  0.00  0.00    -0.029 A 
ATOM     31  C   UNL     1       4.717   9.838   0.300  0.00  0.00    +0.008 A 
ATOM     32  C   UNL     1       5.905   7.769   1.052  0.00  0.00    +0.045 C 
ENDBRANCH  21  29
ENDBRANCH  20  22
ENDBRANCH  19  20
ENDBRANCH   1  19
TORSDOF 7
