REMARK  Name = ZINC41023606
REMARK  6 active torsions:
REMARK  status: ('A' for Active; 'I' for Inactive)
REMARK    1  A    between atoms: C_1  and  C_2
REMARK    2  A    between atoms: C_3  and  C_19
REMARK    3  A    between atoms: C_6  and  S_10
REMARK    4  A    between atoms: C_7  and  C_8
REMARK    5  A    between atoms: S_10  and  C_11
REMARK    6  A    between atoms: C_15  and  N_17
REMARK                            x       y       z     vdW  Elec       q    Type
REMARK                         _______ _______ _______ _____ _____    ______ ____
ROOT
ATOM      1  C   UNL     1       0.077  -4.780   1.962  0.00  0.00    +0.198 A 
ATOM      2  N   UNL     1       0.079  -4.989   0.654  0.00  0.00    -0.207 NA
ATOM      3  C   UNL     1       0.094  -6.225   0.161  0.00  0.00    +0.122 A 
ATOM      4  C   UNL     1       0.107  -7.304   1.041  0.00  0.00    +0.086 A 
ATOM      5  C   UNL     1       0.104  -7.045   2.408  0.00  0.00    +0.122 A 
ATOM      6  N   UNL     1       0.095  -5.782   2.828  0.00  0.00    -0.207 NA
ATOM      7  N   UNL     1       0.096  -6.436  -1.209  0.00  0.00    -0.343 N 
ATOM      8  H   UNL     1       0.086  -5.679  -1.816  0.00  0.00    +0.144 HD
ATOM      9  H   UNL     1       0.106  -7.340  -1.561  0.00  0.00    +0.144 HD
ENDROOT
BRANCH   5  10
ATOM     10  N   UNL     1       0.117  -8.088   3.321  0.00  0.00    -0.343 N 
ATOM     11  H   UNL     1       0.128  -9.006   3.008  0.00  0.00    +0.144 HD
ATOM     12  H   UNL     1       0.115  -7.900   4.272  0.00  0.00    +0.144 HD
ENDBRANCH   5  10
BRANCH   1  13
ATOM     13  S   UNL     1       0.057  -3.124   2.566  0.00  0.00    -0.027 S 
BRANCH  13  19
ATOM     14  C   UNL     1      -0.018   1.503   0.010  0.00  0.00    +0.047 C 
ATOM     15  C   UNL     1       0.002  -0.004   0.002  0.00  0.00    -0.008 A 
ATOM     16  C   UNL     1       0.006  -0.712  -1.188  0.00  0.00    +0.065 A 
ATOM     17  N   UNL     1       0.025  -2.031  -1.176  0.00  0.00    -0.153 NA
ATOM     18  N   UNL     1       0.039  -2.713  -0.089  0.00  0.00    -0.141 NA
ATOM     19  C   UNL     1       0.037  -2.138   1.106  0.00  0.00    +0.144 A 
ATOM     20  C   UNL     1       0.023  -0.733   1.198  0.00  0.00    +0.090 A 
ATOM     21  C   UNL     1      -0.011   0.027  -2.502  0.00  0.00    +0.068 C 
BRANCH  20  22
ATOM     22  C   UNL     1       0.026  -0.073   2.469  0.00  0.00    +0.102 C 
ATOM     23  N   UNL     1       0.028   0.450   3.477  0.00  0.00    -0.191 NA
ENDBRANCH  20  22
ENDBRANCH  13  19
ENDBRANCH   1  13
TORSDOF 4
