REMARK  Name = ZINC00651669
REMARK  3 active torsions:
REMARK  status: ('A' for Active; 'I' for Inactive)
REMARK    1  A    between atoms: C_8  and  C_24
REMARK    2  A    between atoms: C_14  and  C_19
REMARK    3  A    between atoms: C_28  and  O_30
REMARK                            x       y       z     vdW  Elec       q    Type
REMARK                         _______ _______ _______ _____ _____    ______ ____
ROOT
ATOM      1  C   UNL     1       0.626   1.507   0.244  0.00  0.00    +0.002 A 
ATOM      2  C   UNL     1      -0.634   0.950   0.361  0.00  0.00    +0.002 A 
ATOM      3  C   UNL     1      -1.758   1.759   0.372  0.00  0.00    +0.025 A 
ATOM      4  C   UNL     1      -1.607   3.131   0.277  0.00  0.00    +0.052 A 
ATOM      5  C   UNL     1      -0.341   3.693   0.193  0.00  0.00    +0.049 A 
ATOM      6  C   UNL     1       0.780   2.880   0.160  0.00  0.00    +0.025 A 
ATOM      7  N   UNL     1      -0.232   5.083   0.214  0.00  0.00    -0.331 N 
ATOM      8  C   UNL     1      -0.625   5.844   1.382  0.00  0.00    +0.136 C 
ATOM      9  C   UNL     1      -2.098   5.777   1.709  0.00  0.00    +0.036 C 
ATOM     10  C   UNL     1      -2.989   4.929   1.166  0.00  0.00    +0.017 C 
ATOM     11  N   UNL     1      -2.692   3.997   0.225  0.00  0.00    -0.316 N 
ATOM     12  C   UNL     1      -4.449   4.976   1.582  0.00  0.00    +0.060 C 
ATOM     13  C   UNL     1      -4.561   5.393   3.047  0.00  0.00    +0.039 C 
ATOM     14  C   UNL     1      -3.922   6.780   3.187  0.00  0.00    +0.088 C 
ATOM     15  C   UNL     1      -2.509   6.709   2.691  0.00  0.00    +0.163 C 
ATOM     16  O   UNL     1      -1.688   7.480   3.148  0.00  0.00    -0.292 OA
ATOM     17  H   UNL     1       0.112   5.547  -0.565  0.00  0.00    +0.147 HD
ATOM     18  H   UNL     1      -3.283   3.930  -0.541  0.00  0.00    +0.152 HD
ENDROOT
BRANCH   8  19
ATOM     19  C   UNL     1       0.151   5.333   2.568  0.00  0.00    -0.019 A 
ATOM     20  C   UNL     1       1.009   6.178   3.248  0.00  0.00    +0.006 A 
ATOM     21  C   UNL     1       1.722   5.712   4.336  0.00  0.00    +0.004 A 
ATOM     22  C   UNL     1       1.579   4.401   4.748  0.00  0.00    +0.045 A 
ATOM     23  C   UNL     1       0.719   3.552   4.068  0.00  0.00    +0.117 A 
ATOM     24  C   UNL     1       0.001   4.023   2.978  0.00  0.00    +0.051 A 
BRANCH  23  25
ATOM     25  O   UNL     1       0.576   2.262   4.471  0.00  0.00    -0.507 OA
ATOM     26  H   UNL     1      -0.126   2.129   5.123  0.00  0.00    +0.292 HD
ENDBRANCH  23  25
ENDBRANCH   8  19
BRANCH  13  27
ATOM     27  C   UNL     1      -6.011   5.455   3.451  0.00  0.00    -0.006 A 
ATOM     28  C   UNL     1      -6.651   4.783   4.439  0.00  0.00    +0.011 A 
ATOM     29  C   UNL     1      -8.002   5.001   4.631  0.00  0.00    +0.008 A 
ATOM     30  C   UNL     1      -8.647   5.881   3.827  0.00  0.00    +0.045 A 
ATOM     31  S   UNL     1      -7.330   6.439   2.760  0.00  0.00    -0.101 S 
ENDBRANCH  13  27
TORSDOF 3
