REMARK  Name = ZINC35929867
REMARK  4 active torsions:
REMARK  status: ('A' for Active; 'I' for Inactive)
REMARK    1  A    between atoms: C_4  and  C_7
REMARK    2  A    between atoms: C_7  and  N_8
REMARK    3  A    between atoms: C_9  and  N_30
REMARK    4  A    between atoms: C_11  and  C_23
REMARK                            x       y       z     vdW  Elec       q    Type
REMARK                         _______ _______ _______ _____ _____    ______ ____
ROOT
ATOM      1  N   UNL     1       4.623  -1.142   1.319  0.00  0.00    -0.244 N 
ATOM      2  C   UNL     1       4.985  -0.127   2.123  0.00  0.00    +0.126 A 
ATOM      3  C   UNL     1       4.747  -0.524   3.433  0.00  0.00    +0.086 A 
ATOM      4  C   UNL     1       4.906   0.055   4.712  0.00  0.00    +0.089 A 
ATOM      5  N   UNL     1       4.556  -0.659   5.774  0.00  0.00    -0.214 NA
ATOM      6  C   UNL     1       4.066  -1.890   5.668  0.00  0.00    +0.220 A 
ATOM      7  N   UNL     1       3.885  -2.506   4.517  0.00  0.00    -0.193 NA
ATOM      8  C   UNL     1       4.201  -1.891   3.360  0.00  0.00    +0.188 A 
ATOM      9  N   UNL     1       4.142  -2.209   2.086  0.00  0.00    -0.149 NA
ATOM     10  N   UNL     1       3.727  -2.562   6.829  0.00  0.00    -0.300 N 
ATOM     11  C   UNL     1       3.901  -1.923   8.140  0.00  0.00    +0.108 C 
ATOM     12  C   UNL     1       2.571  -1.984   8.899  0.00  0.00    +0.019 C 
ATOM     13  C   UNL     1       2.092  -3.436   8.965  0.00  0.00    +0.003 C 
ATOM     14  C   UNL     1       1.864  -3.965   7.547  0.00  0.00    +0.019 C 
ATOM     15  C   UNL     1       3.180  -3.924   6.773  0.00  0.00    +0.108 C 
ENDROOT
BRANCH   4  16
ATOM     16  C   UNL     1       5.449   1.424   4.863  0.00  0.00    +0.001 A 
ATOM     17  C   UNL     1       4.983   2.456   4.048  0.00  0.00    +0.013 A 
ATOM     18  C   UNL     1       5.492   3.729   4.193  0.00  0.00    +0.039 A 
ATOM     19  C   UNL     1       6.466   3.985   5.146  0.00  0.00    +0.123 A 
ATOM     20  C   UNL     1       6.933   2.962   5.957  0.00  0.00    +0.039 A 
ATOM     21  C   UNL     1       6.426   1.687   5.824  0.00  0.00    +0.013 A 
ATOM     22  F   UNL     1       6.962   5.234   5.283  0.00  0.00    -0.205 F 
ENDBRANCH   4  16
BRANCH   2  23
ATOM     23  N   UNL     1       5.501   1.091   1.719  0.00  0.00    -0.343 N 
ATOM     24  H   UNL     1       5.380   1.389   0.804  0.00  0.00    +0.144 HD
ATOM     25  H   UNL     1       5.983   1.647   2.351  0.00  0.00    +0.144 HD
ENDBRANCH   2  23
BRANCH   1  26
ATOM     26  C   UNL     1       4.714  -1.131  -0.143  0.00  0.00    +0.180 C 
BRANCH  26  30
ATOM     27  C   UNL     1       1.080   0.401  -1.785  0.00  0.00    +0.000 A 
ATOM     28  C   UNL     1       2.118   1.261  -1.482  0.00  0.00    +0.000 A 
ATOM     29  C   UNL     1       3.294   0.766  -0.950  0.00  0.00    +0.005 A 
ATOM     30  C   UNL     1       3.432  -0.591  -0.721  0.00  0.00    -0.026 A 
ATOM     31  C   UNL     1       2.393  -1.451  -1.024  0.00  0.00    +0.005 A 
ATOM     32  C   UNL     1       1.217  -0.956  -1.556  0.00  0.00    +0.000 A 
ENDBRANCH  26  30
ENDBRANCH   1  26
TORSDOF 4
