REMARK  Name = ZINC33839095
REMARK  8 active torsions:
REMARK  status: ('A' for Active; 'I' for Inactive)
REMARK    1  A    between atoms: C_3  and  N_10
REMARK    2  A    between atoms: C_6  and  C_7
REMARK    3  A    between atoms: C_7  and  C_8
REMARK    4  A    between atoms: C_8  and  O_9
REMARK    5  A    between atoms: N_10  and  C_11
REMARK    6  A    between atoms: C_14  and  O_31
REMARK    7  A    between atoms: C_20  and  N_28
REMARK    8  A    between atoms: C_23  and  O_27
REMARK                            x       y       z     vdW  Elec       q    Type
REMARK                         _______ _______ _______ _____ _____    ______ ____
ROOT
ATOM      1  C   UNL     1      -1.351   3.470   6.173  0.00  0.00    +0.043 A 
ATOM      2  C   UNL     1      -0.183   4.174   5.870  0.00  0.00    +0.027 A 
ATOM      3  C   UNL     1       0.076   5.387   6.465  0.00  0.00    +0.048 A 
ATOM      4  C   UNL     1      -0.824   5.934   7.380  0.00  0.00    +0.128 A 
ATOM      5  C   UNL     1      -1.995   5.248   7.698  0.00  0.00    +0.076 A 
ATOM      6  C   UNL     1      -2.266   4.006   7.085  0.00  0.00    +0.058 A 
ATOM      7  C   UNL     1      -3.505   3.283   7.418  0.00  0.00    +0.199 C 
ATOM      8  O   UNL     1      -3.875   2.348   6.733  0.00  0.00    -0.286 OA
ATOM      9  C   UNL     1      -4.295   3.709   8.593  0.00  0.00    +0.067 A 
ATOM     10  C   UNL     1      -5.298   2.893   9.104  0.00  0.00    +0.138 A 
ATOM     11  C   UNL     1      -6.030   3.305  10.206  0.00  0.00    +0.037 A 
ATOM     12  C   UNL     1      -5.774   4.521  10.806  0.00  0.00    +0.048 A 
ATOM     13  C   UNL     1      -4.774   5.354  10.310  0.00  0.00    +0.128 A 
ATOM     14  C   UNL     1      -4.027   4.951   9.200  0.00  0.00    +0.077 A 
ATOM     15  C   UNL     1      -2.957   5.810   8.665  0.00  0.00    +0.202 C 
ATOM     16  O   UNL     1      -2.875   6.974   9.008  0.00  0.00    -0.286 OA
ENDROOT
BRANCH  10  17
ATOM     17  N   UNL     1      -5.585   1.587   8.471  0.00  0.00    +0.057 N 
ATOM     18  O   UNL     1      -6.734   1.268   8.224  0.00  0.00    -0.126 OA
ATOM     19  O   UNL     1      -4.671   0.829   8.197  0.00  0.00    -0.126 OA
ENDBRANCH  10  17
BRANCH   1  20
ATOM     20  N   UNL     1      -1.605   2.248   5.568  0.00  0.00    -0.314 N 
ATOM     21  H   UNL     1      -2.038   2.215   4.558  0.00  0.00    +0.152 HD
BRANCH  20  24
ATOM     22  C   UNL     1      -0.357  -0.078   8.125  0.00  0.00    +0.005 A 
ATOM     23  C   UNL     1      -0.642   1.098   7.459  0.00  0.00    +0.023 A 
ATOM     24  C   UNL     1      -1.312   1.061   6.242  0.00  0.00    +0.031 A 
ATOM     25  C   UNL     1      -1.688  -0.161   5.697  0.00  0.00    +0.023 A 
ATOM     26  C   UNL     1      -1.395  -1.333   6.366  0.00  0.00    +0.005 A 
ATOM     27  C   UNL     1      -0.728  -1.292   7.576  0.00  0.00    -0.045 A 
BRANCH  27  28
ATOM     28  C   UNL     1      -0.410  -2.574   8.303  0.00  0.00    +0.063 C 
BRANCH  28  29
ATOM     29  C   UNL     1       0.960  -3.087   7.856  0.00  0.00    +0.160 C 
BRANCH  29  30
ATOM     30  O   UNL     1       1.261  -4.302   8.545  0.00  0.00    -0.395 OA
ATOM     31  H   UNL     1       2.211  -4.823   8.352  0.00  0.00    +0.209 HD
ENDBRANCH  29  30
ENDBRANCH  28  29
ENDBRANCH  27  28
ENDBRANCH  20  24
ENDBRANCH   1  20
BRANCH  13  32
ATOM     32  O   UNL     1      -4.526   6.548  10.902  0.00  0.00    -0.506 OA
ATOM     33  H   UNL     1      -3.735   7.203  10.508  0.00  0.00    +0.292 HD
ENDBRANCH  13  32
BRANCH   4  34
ATOM     34  O   UNL     1      -0.558   7.131   7.960  0.00  0.00    -0.506 OA
ATOM     35  H   UNL     1      -1.268   7.562   8.682  0.00  0.00    +0.292 HD
ENDBRANCH   4  34
TORSDOF 8
