REMARK  Name = ZINC44293447
REMARK  3 active torsions:
REMARK  status: ('A' for Active; 'I' for Inactive)
REMARK    1  A    between atoms: C_5  and  C_8
REMARK    2  A    between atoms: C_11  and  C_13
REMARK    3  A    between atoms: C_13  and  C_18
REMARK                            x       y       z     vdW  Elec       q    Type
REMARK                         _______ _______ _______ _____ _____    ______ ____
ROOT
ATOM      1  C   UNL     1       0.072   1.623   0.091  0.00  0.00    +0.004 C 
ATOM      2  C   UNL     1       1.525   2.075   0.252  0.00  0.00    +0.019 C 
ATOM      3  C   UNL     1       2.096   1.494   1.549  0.00  0.00    +0.108 C 
ATOM      4  N   UNL     1       1.915   0.036   1.534  0.00  0.00    -0.289 N 
ATOM      5  C   UNL     1       0.571  -0.507   1.296  0.00  0.00    +0.162 C 
ATOM      6  C   UNL     1       0.018   0.096   0.002  0.00  0.00    +0.032 C 
ATOM      7  C   UNL     1       2.963  -0.787   1.735  0.00  0.00    +0.236 C 
ATOM      8  O   UNL     1       2.786  -1.984   1.824  0.00  0.00    -0.274 OA
ENDROOT
BRANCH   5   9
ATOM      9  C   UNL     1       0.648  -2.006   1.166  0.00  0.00    +0.231 C 
ATOM     10  O   UNL     1       1.307  -2.505   0.279  0.00  0.00    -0.274 OA
ATOM     11  N   UNL     1      -0.016  -2.793   2.036  0.00  0.00    -0.328 N 
ATOM     12  H   UNL     1      -0.544  -2.394   2.746  0.00  0.00    +0.145 HD
ATOM     13  H   UNL     1       0.033  -3.758   1.952  0.00  0.00    +0.145 HD
ENDBRANCH   5   9
BRANCH   7  14
ATOM     14  C   UNL     1       4.355  -0.222   1.847  0.00  0.00    +0.133 C 
ATOM     15  C   UNL     1       4.727   0.530   0.552  0.00  0.00    +0.031 C 
ATOM     16  C   UNL     1       6.230   0.216   0.348  0.00  0.00    +0.002 C 
ATOM     17  C   UNL     1       6.333  -1.264   0.796  0.00  0.00    +0.002 C 
ATOM     18  C   UNL     1       5.377  -1.362   2.002  0.00  0.00    +0.031 C 
BRANCH  14  19
ATOM     19  C   UNL     1       4.438   0.689   3.001  0.00  0.00    +0.079 C 
ATOM     20  N   UNL     1       4.501   1.391   3.892  0.00  0.00    -0.195 NA
ENDBRANCH  14  19
ENDBRANCH   7  14
TORSDOF 3
