REMARK  Name = ZINC13520711
REMARK  8 active torsions:
REMARK  status: ('A' for Active; 'I' for Inactive)
REMARK    1  A    between atoms: C_1  and  C_2
REMARK    2  A    between atoms: C_7  and  N_8
REMARK    3  A    between atoms: N_8  and  C_9
REMARK    4  A    between atoms: C_9  and  N_11
REMARK    5  A    between atoms: N_11  and  N_12
REMARK    6  A    between atoms: C_15  and  C_24
REMARK    7  A    between atoms: C_15  and  C_25
REMARK    8  A    between atoms: C_20  and  O_23
REMARK                            x       y       z     vdW  Elec       q    Type
REMARK                         _______ _______ _______ _____ _____    ______ ____
ROOT
ATOM      1  N   UNL     1      -0.176   1.374   4.750  0.00  0.00    -0.185 NA
ATOM      2  C   UNL     1      -0.273   2.017   5.873  0.00  0.00    +0.074 C 
ATOM      3  C   UNL     1      -0.360   1.292   7.204  0.00  0.00    +0.105 C 
ATOM      4  C   UNL     1      -1.385   2.047   8.064  0.00  0.00    +0.111 C 
ATOM      5  O   UNL     1      -0.959   3.399   8.228  0.00  0.00    -0.485 OA
ATOM      6  C   UNL     1      -0.655   4.127   7.124  0.00  0.00    +0.130 A 
ATOM      7  C   UNL     1      -0.296   3.496   5.924  0.00  0.00    +0.043 A 
ATOM      8  C   UNL     1       0.025   4.250   4.799  0.00  0.00    +0.058 A 
ATOM      9  C   UNL     1      -0.008   5.633   4.871  0.00  0.00    +0.118 A 
ATOM     10  C   UNL     1      -0.362   6.258   6.059  0.00  0.00    +0.049 A 
ATOM     11  C   UNL     1      -0.691   5.511   7.178  0.00  0.00    +0.050 A 
ATOM     12  C   UNL     1      -1.495   1.376   9.435  0.00  0.00    +0.056 C 
ATOM     13  C   UNL     1      -2.749   2.021   7.372  0.00  0.00    +0.056 C 
ENDROOT
BRANCH   1  14
ATOM     14  N   UNL     1      -0.157  -0.027   4.744  0.00  0.00    -0.218 N 
ATOM     15  H   UNL     1      -0.216  -0.516   5.579  0.00  0.00    +0.176 HD
BRANCH  14  16
ATOM     16  C   UNL     1      -0.057  -0.695   3.578  0.00  0.00    +0.154 C 
ATOM     17  S   UNL     1      -0.033  -2.407   3.571  0.00  0.00    -0.017 S 
BRANCH  16  18
ATOM     18  N   UNL     1       0.025  -0.015   2.417  0.00  0.00    -0.295 N 
ATOM     19  H   UNL     1       0.074   0.954   2.424  0.00  0.00    +0.154 HD
BRANCH  18  26
ATOM     20  C   UNL     1      -1.704   0.883   0.342  0.00  0.00    +0.045 C 
ATOM     21  C   UNL     1      -0.790  -0.302   0.162  0.00  0.00    -0.029 A 
ATOM     22  C   UNL     1      -0.771  -0.984  -1.040  0.00  0.00    +0.005 A 
ATOM     23  C   UNL     1       0.067  -2.071  -1.206  0.00  0.00    +0.000 A 
ATOM     24  C   UNL     1       0.888  -2.479  -0.171  0.00  0.00    +0.002 A 
ATOM     25  C   UNL     1       0.874  -1.802   1.032  0.00  0.00    +0.023 A 
ATOM     26  C   UNL     1       0.037  -0.706   1.201  0.00  0.00    +0.036 A 
ENDBRANCH  18  26
ENDBRANCH  16  18
ENDBRANCH  14  16
ENDBRANCH   1  14
BRANCH   9  27
ATOM     27  O   UNL     1       0.305   6.379   3.778  0.00  0.00    -0.507 OA
ATOM     28  H   UNL     1      -0.452   6.587   3.213  0.00  0.00    +0.292 HD
ENDBRANCH   9  27
TORSDOF 5
