REMARK  Name = ZINC03998300
REMARK  9 active torsions:
REMARK  status: ('A' for Active; 'I' for Inactive)
REMARK    1  A    between atoms: C_1  and  C_2
REMARK    2  A    between atoms: C_2  and  C_3
REMARK    3  A    between atoms: C_2  and  C_4
REMARK    4  A    between atoms: C_2  and  C_5
REMARK    5  A    between atoms: C_12  and  N_26
REMARK    6  A    between atoms: C_13  and  C_24
REMARK    7  A    between atoms: C_14  and  C_16
REMARK    8  A    between atoms: C_21  and  O_22
REMARK    9  A    between atoms: O_22  and  C_23
REMARK                            x       y       z     vdW  Elec       q    Type
REMARK                         _______ _______ _______ _____ _____    ______ ____
ROOT
ATOM      1  C   UNL     1       0.753  -0.453  -2.009  0.00  0.00    +0.049 A 
ATOM      2  C   UNL     1       0.840  -1.738  -2.384  0.00  0.00    +0.050 A 
ATOM      3  C   UNL     1       1.536  -1.792  -3.611  0.00  0.00    +0.245 A 
ATOM      4  N   UNL     1       1.849  -0.575  -3.950  0.00  0.00    -0.135 NA
ATOM      5  N   UNL     1       1.363   0.293  -2.959  0.00  0.00    -0.277 N 
ATOM      6  H   UNL     1       1.451   1.259  -2.956  0.00  0.00    +0.189 HD
ATOM      7  O   UNL     1       1.787  -2.968  -4.247  0.00  0.00    -0.421 OA
ATOM      8  C   UNL     1       1.594  -4.104  -3.549  0.00  0.00    +0.201 C 
ATOM      9  C   UNL     1       0.935  -4.178  -2.374  0.00  0.00    +0.098 C 
ATOM     10  C   UNL     1       0.324  -2.977  -1.697  0.00  0.00    +0.105 C 
ENDROOT
BRANCH  10  11
ATOM     11  C   UNL     1      -1.177  -3.037  -1.815  0.00  0.00    +0.007 A 
ATOM     12  C   UNL     1      -1.780  -2.899  -3.050  0.00  0.00    +0.008 A 
ATOM     13  C   UNL     1      -3.157  -2.953  -3.159  0.00  0.00    +0.001 A 
ATOM     14  C   UNL     1      -3.935  -3.145  -2.032  0.00  0.00    +0.004 A 
ATOM     15  C   UNL     1      -3.337  -3.283  -0.794  0.00  0.00    +0.046 A 
ATOM     16  C   UNL     1      -1.955  -3.235  -0.683  0.00  0.00    +0.124 A 
BRANCH  16  17
ATOM     17  O   UNL     1      -1.364  -3.377   0.532  0.00  0.00    -0.495 OA
ATOM     18  C   UNL     1      -2.227  -3.578   1.653  0.00  0.00    +0.277 C 
ENDBRANCH  16  17
ENDBRANCH  10  11
BRANCH   1  20
ATOM     19  C   UNL     1       0.352   1.569  -0.631  0.00  0.00    +0.017 C 
ATOM     20  C   UNL     1       0.091   0.067  -0.759  0.00  0.00    +0.004 C 
ATOM     21  C   UNL     1       0.665  -0.657   0.461  0.00  0.00    +0.017 C 
ATOM     22  C   UNL     1      -1.416  -0.184  -0.839  0.00  0.00    +0.017 C 
ENDBRANCH   1  20
BRANCH   8  23
ATOM     23  N   UNL     1       2.103  -5.268  -4.070  0.00  0.00    -0.328 N 
ATOM     24  H   UNL     1       2.582  -5.253  -4.913  0.00  0.00    +0.145 HD
ATOM     25  H   UNL     1       1.983  -6.105  -3.595  0.00  0.00    +0.145 HD
ENDBRANCH   8  23
BRANCH   9  26
ATOM     26  C   UNL     1       0.809  -5.456  -1.740  0.00  0.00    +0.101 C 
ATOM     27  N   UNL     1       0.710  -6.470  -1.238  0.00  0.00    -0.191 NA
ENDBRANCH   9  26
TORSDOF 5
