REMARK  Name = ZINC43093123
REMARK  7 active torsions:
REMARK  status: ('A' for Active; 'I' for Inactive)
REMARK    1  A    between atoms: C_1  and  C_2
REMARK    2  A    between atoms: C_2  and  C_3
REMARK    3  A    between atoms: C_3  and  C_5
REMARK    4  A    between atoms: C_3  and  N_24
REMARK    5  A    between atoms: C_5  and  C_7
REMARK    6  A    between atoms: C_5  and  N_14
REMARK    7  A    between atoms: C_19  and  C_21
REMARK                            x       y       z     vdW  Elec       q    Type
REMARK                         _______ _______ _______ _____ _____    ______ ____
ROOT
ATOM      1  C   UNL     1      -2.787  -2.020  -0.394  0.00  0.00    -0.050 C 
ENDROOT
BRANCH   1   2
ATOM      2  C   UNL     1      -3.938  -2.291  -1.328  0.00  0.00    -0.048 A 
ATOM      3  C   UNL     1      -3.892  -1.837  -2.633  0.00  0.00    +0.003 A 
ATOM      4  C   UNL     1      -4.947  -2.086  -3.490  0.00  0.00    +0.000 A 
ATOM      5  C   UNL     1      -6.050  -2.790  -3.042  0.00  0.00    +0.001 A 
ATOM      6  C   UNL     1      -6.097  -3.245  -1.738  0.00  0.00    +0.015 A 
ATOM      7  C   UNL     1      -5.038  -3.001  -0.882  0.00  0.00    +0.019 A 
ATOM      8 BR   UNL     1      -5.099  -3.629   0.901  0.00  0.00    -0.050 Br
ENDBRANCH   1   2
BRANCH   1   9
ATOM      9  N   UNL     1      -1.765  -3.062  -0.561  0.00  0.00    +0.391 N 
ATOM     10  C   UNL     1      -2.311  -4.354  -0.128  0.00  0.00    -0.077 C 
ATOM     11  C   UNL     1      -1.226  -5.428  -0.223  0.00  0.00    -0.019 C 
ATOM     12  C   UNL     1      -0.746  -5.535  -1.673  0.00  0.00    -0.003 C 
ATOM     13  C   UNL     1      -0.247  -4.163  -2.138  0.00  0.00    -0.006 C 
ATOM     14  C   UNL     1      -1.369  -3.136  -1.972  0.00  0.00    +0.020 C 
ATOM     15  H   UNL     1      -0.959  -2.834   0.002  0.00  0.00    -0.080 HD
BRANCH  14  16
ATOM     16  C   UNL     1      -0.883  -1.784  -2.428  0.00  0.00    +0.197 C 
ATOM     17  O   UNL     1      -0.188  -1.111  -1.697  0.00  0.00    -0.278 OA
ATOM     18  N   UNL     1      -1.221  -1.323  -3.648  0.00  0.00    -0.331 N 
ATOM     19  H   UNL     1      -1.777  -1.861  -4.233  0.00  0.00    +0.145 HD
ATOM     20  H   UNL     1      -0.908  -0.453  -3.942  0.00  0.00    +0.145 HD
ENDBRANCH  14  16
ENDBRANCH   1   9
BRANCH   1  21
ATOM     21  C   UNL     1      -2.179  -0.653  -0.718  0.00  0.00    -0.085 C 
BRANCH  21  22
ATOM     22  N   UNL     1      -3.163   0.400  -0.432  0.00  0.00    +0.379 N 
ATOM     23  H   UNL     1      -3.470   0.323   0.526  0.00  0.00    -0.090 HD
ATOM     24  H   UNL     1      -2.740   1.304  -0.578  0.00  0.00    -0.090 HD
ATOM     25  H   UNL     1      -3.955   0.296  -1.048  0.00  0.00    -0.090 HD
ENDBRANCH  21  22
BRANCH  21  27
ATOM     26  C   UNL     1      -0.226   0.849  -0.303  0.00  0.00    +0.002 C 
ATOM     27  C   UNL     1      -0.933  -0.433   0.142  0.00  0.00    -0.021 C 
ENDBRANCH  21  27
ENDBRANCH   1  21
TORSDOF 6
