REMARK  Name = ZINC19742381
REMARK  11 active torsions:
REMARK  status: ('A' for Active; 'I' for Inactive)
REMARK    1  A    between atoms: C_1  and  N_2
REMARK    2  A    between atoms: N_2  and  C_3
REMARK    3  A    between atoms: N_2  and  C_26
REMARK    4  A    between atoms: C_3  and  C_4
REMARK    5  A    between atoms: C_9  and  O_10
REMARK    6  A    between atoms: O_10  and  C_11
REMARK    7  A    between atoms: C_11  and  C_12
REMARK    8  A    between atoms: C_12  and  C_14
REMARK    9  A    between atoms: C_12  and  O_25
REMARK   10  A    between atoms: C_14  and  N_15
REMARK   11  A    between atoms: C_26  and  C_27
REMARK                            x       y       z     vdW  Elec       q    Type
REMARK                         _______ _______ _______ _____ _____    ______ ____
ROOT
ATOM      1  C   UNL     1       2.262  -0.312   1.768  0.00  0.00    +0.008 A 
ATOM      2  C   UNL     1       3.212  -1.262   1.447  0.00  0.00    +0.008 A 
ATOM      3  C   UNL     1       4.545  -0.907   1.359  0.00  0.00    +0.001 A 
ATOM      4  C   UNL     1       4.931   0.400   1.593  0.00  0.00    +0.004 A 
ATOM      5  C   UNL     1       3.986   1.354   1.914  0.00  0.00    +0.046 A 
ATOM      6  C   UNL     1       2.647   1.001   1.998  0.00  0.00    +0.125 A 
ENDROOT
BRANCH   1   7
ATOM      7  C   UNL     1       0.809  -0.699   1.864  0.00  0.00    +0.123 C 
BRANCH   7   9
ATOM      8  C   UNL     1       0.081   1.141   0.469  0.00  0.00    +0.105 C 
ATOM      9  N   UNL     1       0.118  -0.319   0.624  0.00  0.00    -0.294 NA
BRANCH   9  10
ATOM     10  C   UNL     1      -1.236  -0.888   0.580  0.00  0.00    +0.160 C 
BRANCH  10  11
ATOM     11  C   UNL     1      -1.820  -0.689  -0.795  0.00  0.00    +0.145 A 
ATOM     12  N   UNL     1      -3.070  -1.090  -1.198  0.00  0.00    -0.293 N 
ATOM     13  H   UNL     1      -3.724  -1.548  -0.647  0.00  0.00    +0.172 HD
ATOM     14  C   UNL     1      -3.233  -0.737  -2.489  0.00  0.00    +0.342 A 
ATOM     15  O   UNL     1      -4.222  -0.935  -3.171  0.00  0.00    -0.245 OA
ATOM     16  N   UNL     1      -2.098  -0.125  -2.886  0.00  0.00    -0.227 N 
ATOM     17  H   UNL     1      -1.919   0.239  -3.767  0.00  0.00    +0.194 HD
ATOM     18  N   UNL     1      -1.227  -0.107  -1.788  0.00  0.00    -0.155 NA
ENDBRANCH  10  11
ENDBRANCH   9  10
ENDBRANCH   7   9
ENDBRANCH   1   7
BRANCH   6  19
ATOM     19  O   UNL     1       1.714   1.940   2.308  0.00  0.00    -0.489 OA
BRANCH  19  20
ATOM     20  C   UNL     1       2.182   3.271   2.531  0.00  0.00    +0.258 C 
BRANCH  20  21
ATOM     21  C   UNL     1       0.997   4.179   2.866  0.00  0.00    +0.135 C 
BRANCH  21  22
ATOM     22  O   UNL     1       0.418   3.769   4.106  0.00  0.00    -0.390 OA
ATOM     23  H   UNL     1       1.028   3.807   4.856  0.00  0.00    +0.210 HD
ENDBRANCH  21  22
BRANCH  21  24
ATOM     24  C   UNL     1       1.480   5.626   2.982  0.00  0.00    -0.043 C 
BRANCH  24  25
ATOM     25  N   UNL     1       0.342   6.498   3.300  0.00  0.00    +0.384 N 
ATOM     26  C   UNL     1      -0.590   6.527   2.163  0.00  0.00    -0.074 C 
ATOM     27  C   UNL     1      -1.896   7.178   2.619  0.00  0.00    +0.017 C 
ATOM     28  C   UNL     1      -1.602   8.492   3.296  0.00  0.00    -0.048 A 
ATOM     29  C   UNL     1      -2.638   9.396   3.473  0.00  0.00    +0.004 A 
ATOM     30  C   UNL     1      -2.407  10.608   4.092  0.00  0.00    +0.000 A 
ATOM     31  C   UNL     1      -1.137  10.921   4.538  0.00  0.00    +0.000 A 
ATOM     32  C   UNL     1      -0.104  10.023   4.361  0.00  0.00    +0.002 A 
ATOM     33  C   UNL     1      -0.334   8.805   3.737  0.00  0.00    -0.061 A 
ATOM     34  C   UNL     1       0.824   7.859   3.557  0.00  0.00    -0.043 C 
ATOM     35  H   UNL     1      -0.133   6.148   4.119  0.00  0.00    -0.081 HD
ENDBRANCH  24  25
ENDBRANCH  21  24
ENDBRANCH  20  21
ENDBRANCH  19  20
ENDBRANCH   6  19
TORSDOF 10
