REMARK  Name = ZINC50636953
REMARK  4 active torsions:
REMARK  status: ('A' for Active; 'I' for Inactive)
REMARK    1  A    between atoms: C_1  and  C_2
REMARK    2  A    between atoms: N_8  and  S_9
REMARK    3  A    between atoms: S_9  and  C_12
REMARK    4  A    between atoms: C_13  and  N_20
REMARK                            x       y       z     vdW  Elec       q    Type
REMARK                         _______ _______ _______ _____ _____    ______ ____
ROOT
ATOM      1  C   UNL     1       2.925   1.210   1.617  0.00  0.00    +0.221 A 
ATOM      2  C   UNL     1       4.142   0.636   1.713  0.00  0.00    +0.163 A 
ATOM      3  N   UNL     1       5.034   1.435   1.104  0.00  0.00    -0.205 NA
ATOM      4  C   UNL     1       4.416   2.482   0.634  0.00  0.00    +0.181 A 
ATOM      5  N   UNL     1       3.078   2.409   0.915  0.00  0.00    -0.276 N 
ATOM      6  C   UNL     1       2.289   3.449   0.473  0.00  0.00    +0.102 A 
ATOM      7  C   UNL     1       2.820   4.470  -0.198  0.00  0.00    +0.067 A 
ATOM      8  S   UNL     1       4.548   4.021  -0.246  0.00  0.00    -0.058 S 
ENDROOT
BRANCH   1   9
ATOM      9  S   UNL     1       1.415   0.562   2.254  0.00  0.00    +0.080 S 
ATOM     10  O   UNL     1       0.454   1.604   2.158  0.00  0.00    -0.151 OA
ATOM     11  O   UNL     1       1.733  -0.070   3.487  0.00  0.00    -0.151 OA
BRANCH   9  18
ATOM     12  C   UNL     1       0.180   1.212  -0.208  0.00  0.00    +0.026 C 
ATOM     13  C   UNL     1       0.204  -0.306  -0.017  0.00  0.00    +0.077 C 
ATOM     14  C   UNL     1       0.928  -0.961  -1.198  0.00  0.00    +0.020 C 
ATOM     15  C   UNL     1       1.071  -2.462  -0.934  0.00  0.00    +0.003 C 
ATOM     16  C   UNL     1       1.908  -2.682   0.328  0.00  0.00    +0.017 C 
ATOM     17  C   UNL     1       1.196  -2.046   1.526  0.00  0.00    +0.110 C 
ATOM     18  N   UNL     1       0.921  -0.635   1.222  0.00  0.00    -0.172 NA
ENDBRANCH   9  18
ENDBRANCH   1   9
BRANCH   2  19
ATOM     19  N   UNL     1       4.427  -0.586   2.341  0.00  0.00    -0.340 N 
ATOM     20  H   UNL     1       3.729  -1.061   2.817  0.00  0.00    +0.144 HD
ATOM     21  H   UNL     1       5.323  -0.956   2.298  0.00  0.00    +0.144 HD
ENDBRANCH   2  19
TORSDOF 3
