REMARK  Name = ZINC34157617
REMARK  7 active torsions:
REMARK  status: ('A' for Active; 'I' for Inactive)
REMARK    1  A    between atoms: C_1  and  C_2
REMARK    2  A    between atoms: C_3  and  C_22
REMARK    3  A    between atoms: N_4  and  C_13
REMARK    4  A    between atoms: C_7  and  N_12
REMARK    5  A    between atoms: C_9  and  C_11
REMARK    6  A    between atoms: C_13  and  C_15
REMARK    7  A    between atoms: C_13  and  C_16
REMARK                            x       y       z     vdW  Elec       q    Type
REMARK                         _______ _______ _______ _____ _____    ______ ____
ROOT
ATOM      1  C   UNL     1      -0.798   1.660  -0.979  0.00  0.00    +0.046 C 
ATOM      2  C   UNL     1      -0.530   0.206  -0.685  0.00  0.00    -0.017 A 
ATOM      3  C   UNL     1      -0.395  -0.781  -1.585  0.00  0.00    +0.022 A 
ATOM      4  N   UNL     1      -0.160  -1.968  -0.941  0.00  0.00    -0.322 N 
ATOM      5  C   UNL     1      -0.137  -1.770   0.412  0.00  0.00    +0.147 A 
ATOM      6  C   UNL     1      -0.362  -0.399   0.635  0.00  0.00    +0.062 A 
ATOM      7  C   UNL     1      -0.382   0.074   1.956  0.00  0.00    +0.129 A 
ATOM      8  N   UNL     1      -0.183  -0.797   2.941  0.00  0.00    -0.217 NA
ATOM      9  C   UNL     1       0.028  -2.076   2.687  0.00  0.00    +0.130 A 
ATOM     10  N   UNL     1       0.047  -2.565   1.466  0.00  0.00    -0.214 NA
ATOM     11  C   UNL     1       0.247  -3.016   3.844  0.00  0.00    +0.088 C 
ATOM     12  C   UNL     1      -0.488  -0.610  -3.079  0.00  0.00    +0.064 C 
ENDROOT
BRANCH   7  13
ATOM     13  N   UNL     1      -0.602   1.412   2.226  0.00  0.00    -0.343 N 
ATOM     14  H   UNL     1      -0.745   2.037   1.498  0.00  0.00    +0.144 HD
ATOM     15  H   UNL     1      -0.613   1.726   3.144  0.00  0.00    +0.144 HD
ENDBRANCH   7  13
BRANCH   4  16
ATOM     16  C   UNL     1       0.039  -3.259  -1.605  0.00  0.00    +0.116 C 
ATOM     17  C   UNL     1       1.347  -3.887  -1.119  0.00  0.00    +0.036 C 
BRANCH  16  18
ATOM     18  C   UNL     1      -1.111  -4.176  -1.275  0.00  0.00    -0.025 A 
ATOM     19  C   UNL     1      -1.261  -4.662   0.011  0.00  0.00    +0.005 A 
ATOM     20  C   UNL     1      -2.316  -5.502   0.313  0.00  0.00    +0.000 A 
ATOM     21  C   UNL     1      -3.221  -5.856  -0.669  0.00  0.00    +0.000 A 
ATOM     22  C   UNL     1      -3.073  -5.369  -1.954  0.00  0.00    +0.000 A 
ATOM     23  C   UNL     1      -2.020  -4.525  -2.256  0.00  0.00    +0.005 A 
ENDBRANCH  16  18
ENDBRANCH   4  16
TORSDOF 3
