REMARK  Name = ZINC01857146
REMARK  8 active torsions:
REMARK  status: ('A' for Active; 'I' for Inactive)
REMARK    1  A    between atoms: C_1  and  C_2
REMARK    2  A    between atoms: C_2  and  O_3
REMARK    3  A    between atoms: O_3  and  C_4
REMARK    4  A    between atoms: C_6  and  C_11
REMARK    5  A    between atoms: C_9  and  O_10
REMARK    6  A    between atoms: N_15  and  N_19
REMARK    7  A    between atoms: C_20  and  C_22
REMARK    8  A    between atoms: C_25  and  N_28
REMARK                            x       y       z     vdW  Elec       q    Type
REMARK                         _______ _______ _______ _____ _____    ______ ____
ROOT
ATOM      1  C   UNL     1      -0.013   1.076   0.008  0.00  0.00    +0.028 C 
ATOM      2  C   UNL     1      -1.122   1.742  -0.403  0.00  0.00    +0.079 C 
ATOM      3  C   UNL     1      -2.528   1.294  -0.442  0.00  0.00    +0.275 C 
ATOM      4  O   UNL     1      -2.855   0.181  -0.074  0.00  0.00    -0.267 OA
ATOM      5  N   UNL     1      -3.415   2.166  -0.892  0.00  0.00    -0.169 N 
ATOM      6  C   UNL     1      -3.048   3.396  -1.305  0.00  0.00    +0.138 C 
ATOM      7  S   UNL     1      -4.037   4.650  -1.920  0.00  0.00    -0.026 S 
ATOM      8  S   UNL     1      -1.280   3.400  -1.052  0.00  0.00    -0.059 S 
ENDROOT
BRANCH   1  11
ATOM      9  C   UNL     1       3.672   1.719   0.281  0.00  0.00    +0.162 A 
ATOM     10  C   UNL     1       2.423   1.169   0.495  0.00  0.00    +0.057 A 
ATOM     11  C   UNL     1       1.317   1.659  -0.210  0.00  0.00    -0.020 A 
ATOM     12  C   UNL     1       1.482   2.711  -1.119  0.00  0.00    +0.012 A 
ATOM     13  C   UNL     1       2.731   3.256  -1.322  0.00  0.00    +0.050 A 
ATOM     14  C   UNL     1       3.828   2.766  -0.626  0.00  0.00    +0.158 A 
BRANCH  14  15
ATOM     15  O   UNL     1       5.056   3.309  -0.829  0.00  0.00    -0.503 OA
ATOM     16  H   UNL     1       5.262   4.048  -0.241  0.00  0.00    +0.292 HD
ENDBRANCH  14  15
BRANCH   9  17
ATOM     17  O   UNL     1       4.750   1.242   0.961  0.00  0.00    -0.489 OA
BRANCH  17  19
ATOM     18  C   UNL     1       5.837  -0.230   2.539  0.00  0.00    +0.048 C 
ATOM     19  C   UNL     1       4.517   0.168   1.874  0.00  0.00    +0.226 C 
ENDBRANCH  17  19
ENDBRANCH   9  17
ENDBRANCH   1  11
BRANCH   5  20
ATOM     20  N   UNL     1      -4.766   1.800  -0.948  0.00  0.00    -0.222 N 
ATOM     21  C   UNL     1      -5.335   1.501  -2.133  0.00  0.00    +0.261 C 
ATOM     22  O   UNL     1      -4.676   1.549  -3.153  0.00  0.00    -0.269 OA
ATOM     23  H   UNL     1      -5.293   1.762  -0.134  0.00  0.00    +0.174 HD
BRANCH  21  24
ATOM     24  C   UNL     1      -6.761   1.116  -2.192  0.00  0.00    +0.038 A 
ATOM     25  C   UNL     1      -7.520   1.054  -1.022  0.00  0.00    +0.015 A 
ATOM     26  C   UNL     1      -8.851   0.698  -1.085  0.00  0.00    +0.033 A 
ATOM     27  C   UNL     1      -9.432   0.392  -2.303  0.00  0.00    +0.126 A 
ATOM     28  C   UNL     1      -8.684   0.446  -3.466  0.00  0.00    +0.033 A 
ATOM     29  C   UNL     1      -7.353   0.806  -3.417  0.00  0.00    +0.015 A 
BRANCH  27  30
ATOM     30  N   UNL     1     -10.859   0.005  -2.362  0.00  0.00    +0.056 N 
ATOM     31  O   UNL     1     -11.373  -0.265  -3.432  0.00  0.00    -0.126 OA
ATOM     32  O   UNL     1     -11.520  -0.044  -1.339  0.00  0.00    -0.126 OA
ENDBRANCH  27  30
ENDBRANCH  21  24
ENDBRANCH   5  20
TORSDOF 7
