REMARK  Name = ZINC15972615
REMARK  11 active torsions:
REMARK  status: ('A' for Active; 'I' for Inactive)
REMARK    1  A    between atoms: C_1  and  C_2
REMARK    2  A    between atoms: C_4  and  C_39
REMARK    3  A    between atoms: C_9  and  C_23
REMARK    4  A    between atoms: C_12  and  C_15
REMARK    5  A    between atoms: C_15  and  C_16
REMARK    6  A    between atoms: C_19  and  O_22
REMARK    7  A    between atoms: N_25  and  C_26
REMARK    8  A    between atoms: C_28  and  O_34
REMARK    9  A    between atoms: C_31  and  O_32
REMARK   10  A    between atoms: O_32  and  C_33
REMARK   11  A    between atoms: O_34  and  C_35
REMARK                            x       y       z     vdW  Elec       q    Type
REMARK                         _______ _______ _______ _____ _____    ______ ____
ROOT
ATOM      1  C   UNL     1      -0.072   1.548   0.066  0.00  0.00    +0.044 C 
ATOM      2  C   UNL     1      -0.038   0.041   0.050  0.00  0.00    -0.050 A 
ATOM      3  C   UNL     1      -0.022  -0.639  -1.154  0.00  0.00    +0.008 A 
ATOM      4  C   UNL     1       0.009  -2.018  -1.175  0.00  0.00    -0.029 A 
ATOM      5  C   UNL     1       0.026  -2.736   0.018  0.00  0.00    +0.042 A 
ATOM      6  C   UNL     1       0.011  -2.041   1.223  0.00  0.00    +0.004 A 
ATOM      7  C   UNL     1      -0.016  -0.665   1.240  0.00  0.00    +0.011 A 
ATOM      8  C   UNL     1       0.037  -3.087   2.305  0.00  0.00    +0.135 C 
ATOM      9  C   UNL     1      -1.203  -2.985   3.200  0.00  0.00    +0.110 C 
ATOM     10  C   UNL     1      -0.645  -2.789   4.631  0.00  0.00    +0.034 C 
ATOM     11  C   UNL     1       0.794  -3.354   4.521  0.00  0.00    +0.060 C 
ATOM     12  N   UNL     1       1.225  -2.936   3.161  0.00  0.00    -0.296 NA
ATOM     13  C   UNL     1       0.064  -4.402   1.569  0.00  0.00    +0.243 C 
ATOM     14  O   UNL     1       0.087  -5.508   2.066  0.00  0.00    -0.273 OA
ATOM     15  N   UNL     1       0.056  -4.112   0.254  0.00  0.00    -0.283 N 
ATOM     16  C   UNL     1       0.026  -2.749  -2.493  0.00  0.00    +0.045 C 
ATOM     17  H   UNL     1       1.985  -3.511   2.829  0.00  0.00    +0.123 HD
ATOM     18  H   UNL     1       0.069  -4.781  -0.447  0.00  0.00    +0.155 HD
ENDROOT
BRANCH   9  19
ATOM     19  C   UNL     1      -2.014  -4.253   3.120  0.00  0.00    +0.223 C 
ATOM     20  O   UNL     1      -1.743  -5.192   3.838  0.00  0.00    -0.275 OA
ATOM     21  N   UNL     1      -3.039  -4.343   2.250  0.00  0.00    -0.282 N 
ATOM     22  H   UNL     1      -3.204  -3.626   1.618  0.00  0.00    +0.155 HD
BRANCH  21  23
ATOM     23  C   UNL     1      -3.867  -5.473   2.259  0.00  0.00    +0.079 A 
ATOM     24  C   UNL     1      -4.144  -6.123   3.452  0.00  0.00    +0.072 A 
ATOM     25  C   UNL     1      -4.964  -7.241   3.458  0.00  0.00    +0.122 A 
ATOM     26  C   UNL     1      -5.507  -7.710   2.270  0.00  0.00    +0.049 A 
ATOM     27  C   UNL     1      -5.232  -7.064   1.079  0.00  0.00    +0.051 A 
ATOM     28  C   UNL     1      -4.419  -5.943   1.069  0.00  0.00    +0.141 A 
BRANCH  28  29
ATOM     29  O   UNL     1      -4.153  -5.305  -0.103  0.00  0.00    -0.493 OA
ATOM     30  C   UNL     1      -4.753  -5.842  -1.284  0.00  0.00    +0.277 C 
ENDBRANCH  28  29
BRANCH  25  31
ATOM     31  O   UNL     1      -5.236  -7.878   4.628  0.00  0.00    -0.495 OA
ATOM     32  C   UNL     1      -6.088  -9.024   4.559  0.00  0.00    +0.277 C 
ENDBRANCH  25  31
ENDBRANCH  21  23
ENDBRANCH   9  19
BRANCH  11  33
ATOM     33  C   UNL     1       1.698  -2.737   5.590  0.00  0.00    +0.053 C 
BRANCH  33  34
ATOM     34  C   UNL     1       3.055  -3.393   5.540  0.00  0.00    -0.046 A 
ATOM     35  C   UNL     1       3.305  -4.520   6.300  0.00  0.00    +0.007 A 
ATOM     36  C   UNL     1       4.548  -5.122   6.256  0.00  0.00    +0.045 A 
ATOM     37  C   UNL     1       5.545  -4.595   5.448  0.00  0.00    +0.117 A 
ATOM     38  C   UNL     1       5.291  -3.464   4.686  0.00  0.00    +0.045 A 
ATOM     39  C   UNL     1       4.045  -2.868   4.730  0.00  0.00    +0.007 A 
BRANCH  37  40
ATOM     40  O   UNL     1       6.768  -5.185   5.404  0.00  0.00    -0.507 OA
ATOM     41  H   UNL     1       6.851  -5.867   4.723  0.00  0.00    +0.292 HD
ENDBRANCH  37  40
ENDBRANCH  33  34
ENDBRANCH  11  33
TORSDOF 7
