REMARK  Name = ZINC12551228
REMARK  10 active torsions:
REMARK  status: ('A' for Active; 'I' for Inactive)
REMARK    1  A    between atoms: C_1  and  N_2
REMARK    2  A    between atoms: C_6  and  C_7
REMARK    3  A    between atoms: C_7  and  C_9
REMARK    4  A    between atoms: C_7  and  N_17
REMARK    5  A    between atoms: C_12  and  O_15
REMARK    6  A    between atoms: O_15  and  C_16
REMARK    7  A    between atoms: N_17  and  C_18
REMARK    8  A    between atoms: C_21  and  S_27
REMARK    9  A    between atoms: C_23  and  N_24
REMARK   10  A    between atoms: S_27  and  C_30
REMARK                            x       y       z     vdW  Elec       q    Type
REMARK                         _______ _______ _______ _____ _____    ______ ____
ROOT
ATOM      1  C   UNL     1      -0.063  -0.226   1.770  0.00  0.00    +0.165 C 
ENDROOT
BRANCH   1   7
ATOM      2  C   UNL     1      -0.568   1.835  -0.488  0.00  0.00    +0.150 C 
ATOM      3  N   UNL     1      -0.538   0.380  -0.654  0.00  0.00    -0.337 N 
ATOM      4  C   UNL     1      -0.720  -0.308  -1.823  0.00  0.00    +0.104 A 
ATOM      5  C   UNL     1      -0.612  -1.617  -1.525  0.00  0.00    +0.102 A 
ATOM      6  N   UNL     1      -0.370  -1.725  -0.210  0.00  0.00    -0.348 N 
ATOM      7  C   UNL     1      -0.319  -0.533   0.317  0.00  0.00    +0.112 A 
ATOM      8  H   UNL     1      -0.248  -2.558   0.271  0.00  0.00    +0.167 HD
ENDBRANCH   1   7
BRANCH   1   9
ATOM      9  C   UNL     1       1.423  -0.185   2.021  0.00  0.00    -0.020 A 
ATOM     10  C   UNL     1       2.147   0.946   1.694  0.00  0.00    +0.009 A 
ATOM     11  C   UNL     1       3.509   0.985   1.922  0.00  0.00    +0.046 A 
ATOM     12  C   UNL     1       4.150  -0.112   2.480  0.00  0.00    +0.120 A 
ATOM     13  C   UNL     1       3.420  -1.246   2.807  0.00  0.00    +0.046 A 
ATOM     14  C   UNL     1       2.058  -1.278   2.582  0.00  0.00    +0.009 A 
BRANCH  12  15
ATOM     15  O   UNL     1       5.489  -0.076   2.705  0.00  0.00    -0.495 OA
ATOM     16  C   UNL     1       6.082  -1.242   3.282  0.00  0.00    +0.277 C 
ENDBRANCH  12  15
ENDBRANCH   1   9
BRANCH   1  17
ATOM     17  N   UNL     1      -0.650   1.074   2.105  0.00  0.00    -0.329 N 
ATOM     18  H   UNL     1      -0.103   1.875   2.079  0.00  0.00    +0.147 HD
BRANCH  17  19
ATOM     19  C   UNL     1      -1.997   1.161   2.463  0.00  0.00    +0.059 A 
ATOM     20  C   UNL     1      -2.812   0.039   2.382  0.00  0.00    +0.027 A 
ATOM     21  C   UNL     1      -4.144   0.127   2.737  0.00  0.00    +0.029 A 
ATOM     22  C   UNL     1      -4.666   1.331   3.173  0.00  0.00    +0.090 A 
ATOM     23  C   UNL     1      -3.858   2.450   3.255  0.00  0.00    +0.061 A 
ATOM     24  C   UNL     1      -2.523   2.367   2.907  0.00  0.00    +0.149 A 
BRANCH  22  25
ATOM     25  S   UNL     1      -6.366   1.440   3.625  0.00  0.00    -0.006 S 
ATOM     26  O   UNL     1      -6.710   2.803   3.417  0.00  0.00    -0.170 OA
ATOM     27  O   UNL     1      -7.005   0.411   2.883  0.00  0.00    -0.170 OA
ATOM     28  C   UNL     1      -6.403   1.050   5.396  0.00  0.00    +0.200 C 
ENDBRANCH  22  25
BRANCH  24  29
ATOM     29  N   UNL     1      -1.657   3.563   3.000  0.00  0.00    +0.058 N 
ATOM     30  O   UNL     1      -0.510   3.452   3.366  0.00  0.00    -0.126 OA
ATOM     31  O   UNL     1      -2.097   4.652   2.712  0.00  0.00    -0.126 OA
ENDBRANCH  24  29
ENDBRANCH  17  19
ENDBRANCH   1  17
TORSDOF 7
