REMARK  Name = ZINC67089424
REMARK  9 active torsions:
REMARK  status: ('A' for Active; 'I' for Inactive)
REMARK    1  A    between atoms: C_1  and  C_2
REMARK    2  A    between atoms: C_2  and  C_3
REMARK    3  A    between atoms: C_2  and  C_4
REMARK    4  A    between atoms: C_2  and  S_5
REMARK    5  A    between atoms: S_5  and  C_6
REMARK    6  A    between atoms: C_6  and  C_7
REMARK    7  A    between atoms: C_7  and  N_8
REMARK    8  A    between atoms: N_11  and  C_12
REMARK    9  A    between atoms: C_12  and  C_13
REMARK                            x       y       z     vdW  Elec       q    Type
REMARK                         _______ _______ _______ _____ _____    ______ ____
ROOT
ATOM      1  C   UNL     1       7.833   0.298  -4.340  0.00  0.00    +0.142 C 
ENDROOT
BRANCH   1   2
ATOM      2  C   UNL     1       9.130   0.987  -3.999  0.00  0.00    -0.014 A 
ATOM      3  C   UNL     1       9.471   2.184  -4.615  0.00  0.00    +0.010 A 
ATOM      4  C   UNL     1      10.669   2.784  -4.274  0.00  0.00    +0.042 A 
ATOM      5  C   UNL     1      11.488   2.171  -3.330  0.00  0.00    +0.099 A 
ATOM      6  N   UNL     1      11.128   1.029  -2.766  0.00  0.00    -0.349 N 
ATOM      7  C   UNL     1       9.987   0.438  -3.068  0.00  0.00    +0.089 A 
ATOM      8  N   UNL     1      12.696   2.762  -2.978  0.00  0.00    -0.317 N 
ATOM      9  C   UNL     1      13.000   4.077  -3.496  0.00  0.00    +0.106 C 
ATOM     10  C   UNL     1      13.730   3.945  -4.856  0.00  0.00    +0.019 C 
ATOM     11  C   UNL     1      15.096   3.437  -4.655  0.00  0.00    +0.002 C 
ATOM     12  C   UNL     1      15.164   2.037  -4.052  0.00  0.00    +0.002 C 
ATOM     13  C   UNL     1      15.080   2.136  -2.549  0.00  0.00    +0.019 C 
ATOM     14  C   UNL     1      13.612   2.024  -2.087  0.00  0.00    +0.106 C 
ATOM     15  H   UNL     1      11.714   0.619  -2.111  0.00  0.00    +0.167 HD
ENDBRANCH   1   2
BRANCH   1  19
ATOM     16  N   UNL     1       4.549   0.741  -2.748  0.00  0.00    -0.299 N 
ATOM     17  C   UNL     1       5.522   0.299  -3.569  0.00  0.00    +0.300 C 
ATOM     18  O   UNL     1       5.269  -0.534  -4.419  0.00  0.00    -0.253 OA
ATOM     19  N   UNL     1       6.776   0.779  -3.448  0.00  0.00    -0.295 N 
ATOM     20  H   UNL     1       4.750   1.405  -2.071  0.00  0.00    +0.150 HD
ATOM     21  H   UNL     1       6.977   1.443  -2.770  0.00  0.00    +0.151 HD
BRANCH  16  22
ATOM     22  C   UNL     1       3.186   0.219  -2.880  0.00  0.00    +0.116 C 
BRANCH  22  23
ATOM     23  C   UNL     1       2.284   0.880  -1.837  0.00  0.00    +0.088 C 
BRANCH  23  24
ATOM     24  S   UNL     1       0.597   0.234  -2.000  0.00  0.00    -0.153 S 
BRANCH  24  26
ATOM     25  C   UNL     1      -0.267   2.614  -0.964  0.00  0.00    +0.022 C 
ATOM     26  C   UNL     1      -0.334   1.106  -0.710  0.00  0.00    +0.008 C 
ATOM     27  C   UNL     1       0.274   0.792   0.658  0.00  0.00    +0.022 C 
ATOM     28  C   UNL     1      -1.794   0.649  -0.737  0.00  0.00    +0.022 C 
ENDBRANCH  24  26
ENDBRANCH  23  24
ENDBRANCH  22  23
ENDBRANCH  16  22
ENDBRANCH   1  19
TORSDOF 6
