REMARK  Name = ZINC45533594
REMARK  10 active torsions:
REMARK  status: ('A' for Active; 'I' for Inactive)
REMARK    1  A    between atoms: C_1  and  C_2
REMARK    2  A    between atoms: C_2  and  C_3
REMARK    3  A    between atoms: C_3  and  C_4
REMARK    4  A    between atoms: C_3  and  C_6
REMARK    5  A    between atoms: C_4  and  C_5
REMARK    6  A    between atoms: C_6  and  C_8
REMARK    7  A    between atoms: C_6  and  N_23
REMARK    8  A    between atoms: C_8  and  N_9
REMARK    9  A    between atoms: N_12  and  N_13
REMARK   10  A    between atoms: C_14  and  C_16
REMARK                            x       y       z     vdW  Elec       q    Type
REMARK                         _______ _______ _______ _____ _____    ______ ____
ROOT
ATOM      1  N   UNL     1      -0.073  -1.436  -5.149  0.00  0.00    -0.300 N 
ATOM      2  C   UNL     1       0.442  -2.138  -6.178  0.00  0.00    +0.316 C 
ATOM      3  O   UNL     1       1.478  -2.756  -6.034  0.00  0.00    -0.251 OA
ATOM      4  N   UNL     1      -0.194  -2.155  -7.367  0.00  0.00    -0.218 N 
ATOM      5  H   UNL     1      -0.900  -0.943  -5.264  0.00  0.00    +0.150 HD
ATOM      6  H   UNL     1       0.177  -2.660  -8.108  0.00  0.00    +0.174 HD
ENDROOT
BRANCH   4   7
ATOM      7  N   UNL     1      -1.389  -1.443  -7.533  0.00  0.00    -0.229 N 
ATOM      8  C   UNL     1      -2.023  -1.459  -8.722  0.00  0.00    +0.260 C 
ATOM      9  O   UNL     1      -1.560  -2.093  -9.650  0.00  0.00    -0.269 OA
ATOM     10  H   UNL     1      -1.759  -0.937  -6.792  0.00  0.00    +0.173 HD
BRANCH   8  11
ATOM     11  C   UNL     1      -3.283  -0.708  -8.897  0.00  0.00    +0.038 A 
ATOM     12  C   UNL     1      -3.816   0.025  -7.834  0.00  0.00    +0.016 A 
ATOM     13  C   UNL     1      -4.991   0.724  -8.003  0.00  0.00    +0.039 A 
ATOM     14  C   UNL     1      -5.646   0.701  -9.225  0.00  0.00    +0.123 A 
ATOM     15  C   UNL     1      -5.122  -0.026 -10.283  0.00  0.00    +0.039 A 
ATOM     16  C   UNL     1      -3.943  -0.724 -10.127  0.00  0.00    +0.016 A 
ATOM     17  F   UNL     1      -6.798   1.388  -9.385  0.00  0.00    -0.205 F 
ENDBRANCH   8  11
ENDBRANCH   4   7
BRANCH   1  18
ATOM     18  C   UNL     1       0.617  -1.418  -3.857  0.00  0.00    +0.091 C 
BRANCH  18  19
ATOM     19  C   UNL     1      -0.127  -0.490  -2.895  0.00  0.00    -0.048 C 
BRANCH  19  20
ATOM     20  N   UNL     1      -0.019   0.896  -3.369  0.00  0.00    +0.383 N 
ATOM     21  C   UNL     1      -0.804   1.072  -4.618  0.00  0.00    -0.078 C 
ATOM     22  C   UNL     1      -1.060   2.600  -4.663  0.00  0.00    -0.020 C 
ATOM     23  C   UNL     1      -1.290   2.956  -3.177  0.00  0.00    -0.020 C 
ATOM     24  C   UNL     1      -0.619   1.820  -2.382  0.00  0.00    -0.078 C 
ATOM     25  H   UNL     1       0.948   1.136  -3.528  0.00  0.00    -0.081 HD
ENDBRANCH  19  20
BRANCH  19  26
ATOM     26  C   UNL     1       0.491  -0.601  -1.499  0.00  0.00    -0.024 C 
BRANCH  26  28
ATOM     27  C   UNL     1      -1.272  -2.196  -0.731  0.00  0.00    +0.004 C 
ATOM     28  C   UNL     1       0.231  -2.000  -0.936  0.00  0.00    -0.002 C 
ENDBRANCH  26  28
BRANCH  26  29
ATOM     29  C   UNL     1       1.999  -0.360  -1.589  0.00  0.00    -0.002 C 
ATOM     30  C   UNL     1       2.278   1.144  -1.550  0.00  0.00    +0.004 C 
ENDBRANCH  26  29
ENDBRANCH  19  26
ENDBRANCH  18  19
ENDBRANCH   1  18
TORSDOF 8
