REMARK  Name = ZINC08892616
REMARK  7 active torsions:
REMARK  status: ('A' for Active; 'I' for Inactive)
REMARK    1  A    between atoms: C_1  and  C_2
REMARK    2  A    between atoms: C_5  and  S_8
REMARK    3  A    between atoms: N_6  and  N_7
REMARK    4  A    between atoms: S_8  and  C_9
REMARK    5  A    between atoms: C_9  and  C_10
REMARK    6  A    between atoms: C_10  and  O_11
REMARK    7  A    between atoms: O_11  and  C_12
REMARK                            x       y       z     vdW  Elec       q    Type
REMARK                         _______ _______ _______ _____ _____    ______ ____
ROOT
ATOM      1  C   UNL     1       2.527   2.217  -5.277  0.00  0.00    +0.240 C 
ENDROOT
BRANCH   1   2
ATOM      2  C   UNL     1       1.175   2.253  -4.560  0.00  0.00    +0.118 C 
BRANCH   2   3
ATOM      3  S   UNL     1       1.377   1.661  -2.862  0.00  0.00    -0.081 S 
BRANCH   3   8
ATOM      4  C   UNL     1      -3.042   1.595   0.090  0.00  0.00    +0.090 C 
ATOM      5  C   UNL     1      -2.079   1.768  -1.057  0.00  0.00    +0.148 A 
ATOM      6  N   UNL     1      -2.369   2.211  -2.248  0.00  0.00    -0.132 NA
ATOM      7  N   UNL     1      -1.313   2.232  -2.980  0.00  0.00    -0.121 NA
ATOM      8  C   UNL     1      -0.282   1.804  -2.288  0.00  0.00    +0.208 A 
ATOM      9  N   UNL     1      -0.741   1.490  -1.041  0.00  0.00    -0.228 N 
BRANCH   9  10
ATOM     10  N   UNL     1      -0.012   1.005   0.008  0.00  0.00    -0.295 N 
ATOM     11  H   UNL     1       0.002  -0.004   0.002  0.00  0.00    +0.163 HD
ATOM     12  H   UNL     1       0.925   1.379   0.001  0.00  0.00    +0.163 HD
ENDBRANCH   9  10
ENDBRANCH   3   8
ENDBRANCH   2   3
ENDBRANCH   1   2
BRANCH   1  13
ATOM     13  O   UNL     1       2.367   2.684  -6.618  0.00  0.00    -0.488 OA
BRANCH  13  14
ATOM     14  C   UNL     1       3.481   2.716  -7.397  0.00  0.00    +0.160 A 
ATOM     15  C   UNL     1       4.271   3.856  -7.434  0.00  0.00    +0.104 A 
ATOM     16  C   UNL     1       5.407   3.885  -8.223  0.00  0.00    +0.083 A 
ATOM     17  C   UNL     1       5.750   2.780  -8.984  0.00  0.00    +0.081 A 
ATOM     18  C   UNL     1       4.961   1.643  -8.952  0.00  0.00    +0.083 A 
ATOM     19  C   UNL     1       3.827   1.609  -8.160  0.00  0.00    +0.104 A 
ATOM     20 CL   UNL     1       2.837   0.184  -8.120  0.00  0.00    -0.078 Cl
ATOM     21 CL   UNL     1       5.394   0.259  -9.907  0.00  0.00    -0.080 Cl
ATOM     22 CL   UNL     1       7.173   2.820  -9.978  0.00  0.00    -0.080 Cl
ATOM     23 CL   UNL     1       6.399   5.308  -8.264  0.00  0.00    -0.080 Cl
ATOM     24 CL   UNL     1       3.837   5.244  -6.487  0.00  0.00    -0.078 Cl
ENDBRANCH  13  14
ENDBRANCH   1  13
TORSDOF 6
