REMARK  Name = ZINC39683479
REMARK  14 active torsions:
REMARK  status: ('A' for Active; 'I' for Inactive)
REMARK    1  A    between atoms: C_1  and  C_2
REMARK    2  A    between atoms: C_2  and  C_3
REMARK    3  A    between atoms: C_3  and  C_4
REMARK    4  A    between atoms: C_4  and  N_5
REMARK    5  A    between atoms: C_8  and  C_11
REMARK    6  A    between atoms: C_11  and  N_12
REMARK    7  A    between atoms: C_13  and  C_15
REMARK    8  A    between atoms: C_26  and  C_28
REMARK    9  A    between atoms: C_30  and  O_38
REMARK   10  A    between atoms: C_31  and  O_36
REMARK   11  A    between atoms: C_32  and  O_34
REMARK   12  A    between atoms: O_34  and  C_35
REMARK   13  A    between atoms: O_36  and  C_37
REMARK   14  A    between atoms: O_38  and  C_39
REMARK                            x       y       z     vdW  Elec       q    Type
REMARK                         _______ _______ _______ _____ _____    ______ ____
ROOT
ATOM      1  C   UNL     1       3.799  -7.667  -7.035  0.00  0.00    +0.100 C 
ATOM      2  C   UNL     1       4.407  -8.468  -5.862  0.00  0.00    +0.121 C 
ATOM      3  N   UNL     1       5.092  -9.613  -6.505  0.00  0.00    -0.296 N 
ATOM      4  C   UNL     1       5.708  -9.036  -7.724  0.00  0.00    +0.115 C 
ATOM      5  C   UNL     1       4.656  -8.042  -8.255  0.00  0.00    -0.004 C 
ATOM      6  C   UNL     1       5.341  -6.802  -8.821  0.00  0.00    -0.010 C 
ATOM      7  C   UNL     1       6.141  -7.190 -10.068  0.00  0.00    -0.082 C 
ATOM      8  N   UNL     1       5.239  -7.774 -11.068  0.00  0.00    +0.379 N 
ATOM      9  C   UNL     1       4.656  -9.018 -10.550  0.00  0.00    -0.082 C 
ATOM     10  C   UNL     1       3.793  -8.707  -9.323  0.00  0.00    -0.010 C 
ATOM     11  C   UNL     1       5.144 -10.891  -6.079  0.00  0.00    +0.247 C 
ATOM     12  O   UNL     1       4.479 -11.240  -5.123  0.00  0.00    -0.270 OA
ATOM     13  H   UNL     1       4.500  -7.119 -11.276  0.00  0.00    -0.086 HD
ATOM     14  H   UNL     1       5.757  -7.973 -11.911  0.00  0.00    -0.086 HD
ENDROOT
BRANCH  11  15
ATOM     15  C   UNL     1       6.008 -11.866  -6.773  0.00  0.00    +0.044 A 
ATOM     16  C   UNL     1       7.077 -11.421  -7.555  0.00  0.00    +0.062 A 
ATOM     17  C   UNL     1       7.886 -12.336  -8.203  0.00  0.00    +0.166 A 
ATOM     18  C   UNL     1       7.635 -13.700  -8.078  0.00  0.00    +0.204 A 
ATOM     19  C   UNL     1       6.570 -14.145  -7.300  0.00  0.00    +0.166 A 
ATOM     20  C   UNL     1       5.762 -13.235  -6.644  0.00  0.00    +0.062 A 
BRANCH  19  21
ATOM     21  O   UNL     1       6.327 -15.478  -7.179  0.00  0.00    -0.491 OA
ATOM     22  C   UNL     1       5.218 -15.865  -6.366  0.00  0.00    +0.277 C 
ENDBRANCH  19  21
BRANCH  18  23
ATOM     23  O   UNL     1       8.431 -14.597  -8.716  0.00  0.00    -0.488 OA
ATOM     24  C   UNL     1       9.574 -15.073  -8.004  0.00  0.00    +0.277 C 
ENDBRANCH  18  23
BRANCH  17  25
ATOM     25  O   UNL     1       8.927 -11.904  -8.964  0.00  0.00    -0.491 OA
ATOM     26  C   UNL     1       9.126 -10.491  -9.049  0.00  0.00    +0.277 C 
ENDBRANCH  17  25
ENDBRANCH  11  15
BRANCH   1  28
ATOM     27  N   UNL     1       2.962  -5.351  -7.269  0.00  0.00    -0.315 N 
ATOM     28  C   UNL     1       3.890  -6.188  -6.764  0.00  0.00    +0.218 C 
ATOM     29  O   UNL     1       4.799  -5.750  -6.091  0.00  0.00    -0.275 OA
ATOM     30  H   UNL     1       2.235  -5.702  -7.807  0.00  0.00    +0.149 HD
BRANCH  27  31
ATOM     31  C   UNL     1       3.051  -3.913  -7.005  0.00  0.00    +0.107 C 
BRANCH  31  35
ATOM     32  N   UNL     1      -0.391  -1.418  -7.459  0.00  0.00    +0.380 N 
ATOM     33  C   UNL     1       0.834  -0.976  -8.134  0.00  0.00    -0.079 C 
ATOM     34  C   UNL     1       2.044  -1.682  -7.519  0.00  0.00    -0.014 C 
ATOM     35  C   UNL     1       1.885  -3.196  -7.688  0.00  0.00    +0.003 C 
ATOM     36  C   UNL     1       0.566  -3.635  -7.044  0.00  0.00    -0.014 C 
ATOM     37  C   UNL     1      -0.589  -2.856  -7.677  0.00  0.00    -0.079 C 
ATOM     38  H   UNL     1      -0.312  -1.237  -6.469  0.00  0.00    -0.082 HD
BRANCH  32  39
ATOM     39  C   UNL     1      -1.541  -0.680  -7.999  0.00  0.00    -0.079 C 
BRANCH  39  40
ATOM     40  C   UNL     1      -1.397   0.805  -7.663  0.00  0.00    -0.019 C 
BRANCH  40  42
ATOM     41  C   UNL     1      -2.450   3.060  -7.889  0.00  0.00    +0.004 C 
ATOM     42  C   UNL     1      -2.594   1.574  -8.226  0.00  0.00    -0.005 C 
ENDBRANCH  40  42
ENDBRANCH  39  40
ENDBRANCH  32  39
ENDBRANCH  31  35
ENDBRANCH  27  31
ENDBRANCH   1  28
TORSDOF 10
