REMARK  Name = ZINC05059247
REMARK  5 active torsions:
REMARK  status: ('A' for Active; 'I' for Inactive)
REMARK    1  A    between atoms: C_1  and  C_2
REMARK    2  A    between atoms: C_2  and  C_26
REMARK    3  A    between atoms: C_3  and  C_20
REMARK    4  A    between atoms: N_6  and  O_7
REMARK    5  A    between atoms: N_14  and  N_15
REMARK                            x       y       z     vdW  Elec       q    Type
REMARK                         _______ _______ _______ _____ _____    ______ ____
ROOT
ATOM      1  C   UNL     1      -0.578  -0.042  -0.045  0.00  0.00    +0.037 C 
ATOM      2  C   UNL     1      -0.326   1.459   0.110  0.00  0.00    +0.088 C 
ATOM      3  C   UNL     1      -1.290   2.249  -0.748  0.00  0.00    +0.089 C 
ATOM      4  N   UNL     1      -2.230   2.732  -0.003  0.00  0.00    -0.138 N 
ATOM      5  C   UNL     1      -2.027   2.345   1.393  0.00  0.00    +0.197 C 
ATOM      6  N   UNL     1      -0.619   1.893   1.500  0.00  0.00    -0.145 NA
ATOM      7  C   UNL     1      -2.956   1.153   1.736  0.00  0.00    +0.056 C 
ATOM      8  C   UNL     1      -4.346   1.494   1.389  0.00  0.00    +0.004 C 
ATOM      9  C   UNL     1      -4.933   2.660   2.172  0.00  0.00    +0.000 C 
ATOM     10  C   UNL     1      -4.616   3.949   1.453  0.00  0.00    +0.006 C 
ATOM     11  C   UNL     1      -3.322   4.554   2.031  0.00  0.00    +0.056 C 
ATOM     12  C   UNL     1      -2.285   3.480   2.320  0.00  0.00    +0.082 C 
ATOM     13  N   UNL     1      -1.607   3.556   3.403  0.00  0.00    -0.184 NA
ATOM     14  O   UNL     1      -3.305   3.525  -0.473  0.00  0.00    -0.167 OA
ATOM     15  C   UNL     1       1.119   1.798  -0.261  0.00  0.00    +0.037 C 
ENDROOT
BRANCH  13  16
ATOM     16  N   UNL     1      -1.724   4.684   4.225  0.00  0.00    -0.191 N 
ATOM     17  C   UNL     1      -0.992   4.775   5.353  0.00  0.00    +0.317 C 
ATOM     18  O   UNL     1      -1.093   5.755   6.067  0.00  0.00    -0.251 OA
ATOM     19  N   UNL     1      -0.148   3.780   5.691  0.00  0.00    -0.312 N 
ATOM     20  H   UNL     1      -2.332   5.400   3.983  0.00  0.00    +0.179 HD
ATOM     21  H   UNL     1      -0.067   2.999   5.122  0.00  0.00    +0.147 HD
ATOM     22  H   UNL     1       0.379   3.845   6.502  0.00  0.00    +0.147 HD
ENDBRANCH  13  16
BRANCH   3  23
ATOM     23  C   UNL     1      -1.175   2.438  -2.207  0.00  0.00    -0.001 A 
ATOM     24  C   UNL     1      -1.814   3.514  -2.827  0.00  0.00    +0.010 A 
ATOM     25  C   UNL     1      -1.698   3.688  -4.191  0.00  0.00    +0.001 A 
ATOM     26  C   UNL     1      -0.960   2.793  -4.945  0.00  0.00    +0.000 A 
ATOM     27  C   UNL     1      -0.329   1.722  -4.338  0.00  0.00    +0.001 A 
ATOM     28  C   UNL     1      -0.432   1.539  -2.974  0.00  0.00    +0.010 A 
ENDBRANCH   3  23
BRANCH   6  29
ATOM     29  O   UNL     1      -0.495   0.775   2.435  0.00  0.00    -0.309 OA
ATOM     30  H   UNL     1       0.385   0.374   2.454  0.00  0.00    +0.237 HD
ENDBRANCH   6  29
TORSDOF 3
