REMARK  Name = ZINC66175953
REMARK  9 active torsions:
REMARK  status: ('A' for Active; 'I' for Inactive)
REMARK    1  A    between atoms: C_1  and  C_2
REMARK    2  A    between atoms: C_5  and  C_10
REMARK    3  A    between atoms: C_6  and  O_8
REMARK    4  A    between atoms: O_8  and  C_9
REMARK    5  A    between atoms: C_10  and  N_11
REMARK    6  A    between atoms: N_14  and  C_15
REMARK    7  A    between atoms: C_15  and  C_16
REMARK    8  A    between atoms: C_17  and  C_25
REMARK    9  A    between atoms: C_19  and  C_24
REMARK                            x       y       z     vdW  Elec       q    Type
REMARK                         _______ _______ _______ _____ _____    ______ ____
ROOT
ATOM      1  N   UNL     1      -1.293  -4.731   0.327  0.00  0.00    -0.295 N 
ATOM      2  C   UNL     1      -1.518  -6.057   0.416  0.00  0.00    +0.300 C 
ATOM      3  O   UNL     1      -0.598  -6.840   0.278  0.00  0.00    -0.253 OA
ATOM      4  N   UNL     1      -2.762  -6.515   0.658  0.00  0.00    -0.295 N 
ATOM      5  H   UNL     1      -2.027  -4.107   0.437  0.00  0.00    +0.151 HD
ATOM      6  H   UNL     1      -3.496  -5.891   0.768  0.00  0.00    +0.151 HD
ENDROOT
BRANCH   1   7
ATOM      7  C   UNL     1       0.059  -4.233   0.064  0.00  0.00    +0.146 C 
BRANCH   7  12
ATOM      8  C   UNL     1      -0.018   1.503   0.010  0.00  0.00    +0.066 C 
ATOM      9  C   UNL     1       0.002  -0.004   0.002  0.00  0.00    +0.042 A 
ATOM     10  C   UNL     1       0.005  -0.679  -1.203  0.00  0.00    +0.023 A 
ATOM     11  C   UNL     1       0.024  -2.067  -1.203  0.00  0.00    +0.012 A 
ATOM     12  C   UNL     1       0.039  -2.727   0.013  0.00  0.00    +0.031 A 
ATOM     13  C   UNL     1       0.035  -1.984   1.186  0.00  0.00    +0.219 A 
ATOM     14  N   UNL     1       0.022  -0.661   1.146  0.00  0.00    -0.218 NA
BRANCH  13  15
ATOM     15  O   UNL     1       0.049  -2.619   2.385  0.00  0.00    -0.479 OA
ATOM     16  C   UNL     1       0.043  -1.798   3.554  0.00  0.00    +0.279 C 
ENDBRANCH  13  15
ENDBRANCH   7  12
ENDBRANCH   1   7
BRANCH   4  17
ATOM     17  C   UNL     1      -3.006  -7.957   0.754  0.00  0.00    +0.146 C 
BRANCH  17  18
ATOM     18  C   UNL     1      -4.468  -8.201   1.028  0.00  0.00    +0.037 A 
ATOM     19  C   UNL     1      -5.327  -8.462   0.001  0.00  0.00    -0.039 A 
ATOM     20  C   UNL     1      -6.682  -8.687   0.281  0.00  0.00    +0.024 A 
ATOM     21  C   UNL     1      -7.123  -8.644   1.560  0.00  0.00    +0.016 A 
ATOM     22  N   UNL     1      -6.267  -8.384   2.581  0.00  0.00    -0.326 N 
ATOM     23  H   UNL     1      -6.600  -8.357   3.491  0.00  0.00    +0.169 HD
ATOM     24  C   UNL     1      -4.959  -8.169   2.344  0.00  0.00    +0.254 A 
ATOM     25  O   UNL     1      -4.200  -7.942   3.273  0.00  0.00    -0.268 OA
ATOM     26  C   UNL     1      -8.582  -8.886   1.854  0.00  0.00    +0.063 C 
ATOM     27  C   UNL     1      -4.825  -8.507  -1.419  0.00  0.00    +0.044 C 
ENDBRANCH  17  18
ENDBRANCH   4  17
TORSDOF 5
