REMARK  Name = ZINC32603043
REMARK  13 active torsions:
REMARK  status: ('A' for Active; 'I' for Inactive)
REMARK    1  A    between atoms: C_1  and  C_2
REMARK    2  A    between atoms: C_2  and  C_3
REMARK    3  A    between atoms: C_2  and  C_4
REMARK    4  A    between atoms: C_4  and  C_5
REMARK    5  A    between atoms: C_5  and  C_7
REMARK    6  A    between atoms: C_5  and  N_10
REMARK    7  A    between atoms: C_11  and  C_13
REMARK    8  A    between atoms: C_13  and  C_15
REMARK    9  A    between atoms: C_13  and  N_19
REMARK   10  A    between atoms: C_15  and  C_16
REMARK   11  A    between atoms: C_16  and  C_17
REMARK   12  A    between atoms: C_16  and  C_18
REMARK   13  A    between atoms: C_20  and  C_22
REMARK                            x       y       z     vdW  Elec       q    Type
REMARK                         _______ _______ _______ _____ _____    ______ ____
ROOT
ATOM      1  C   UNL     1       5.970   5.812   0.155  0.00  0.00    +0.159 C 
ENDROOT
BRANCH   1   3
ATOM      2  N   UNL     1       6.868   7.675   1.512  0.00  0.00    -0.302 N 
ATOM      3  C   UNL     1       5.796   6.959   1.116  0.00  0.00    +0.234 C 
ATOM      4  O   UNL     1       4.692   7.239   1.534  0.00  0.00    -0.274 OA
ATOM      5  H   UNL     1       7.856   7.473   1.073  0.00  0.00    +0.150 HD
BRANCH   2   6
ATOM      6  C   UNL     1       6.716   8.720   2.528  0.00  0.00    +0.159 C 
BRANCH   6   7
ATOM      7  C   UNL     1       6.284  10.003   1.866  0.00  0.00    +0.231 C 
ATOM      8  O   UNL     1       6.120  10.041   0.665  0.00  0.00    -0.274 OA
ATOM      9  N   UNL     1       6.081  11.109   2.610  0.00  0.00    -0.328 N 
ATOM     10  H   UNL     1       5.766  12.046   2.127  0.00  0.00    +0.145 HD
ATOM     11  H   UNL     1       6.231  11.075   3.699  0.00  0.00    +0.145 HD
ENDBRANCH   6   7
BRANCH   6  12
ATOM     12  C   UNL     1       8.053   8.937   3.240  0.00  0.00    +0.034 C 
BRANCH  12  14
ATOM     13  C   UNL     1       9.822   7.844   4.623  0.00  0.00    +0.007 C 
ATOM     14  C   UNL     1       8.429   7.673   4.014  0.00  0.00    -0.015 C 
ATOM     15  C   UNL     1       7.410   7.435   5.130  0.00  0.00    +0.007 C 
ENDBRANCH  12  14
ENDBRANCH   6  12
ENDBRANCH   2   6
ENDBRANCH   1   3
BRANCH   1  16
ATOM     16  N   UNL     1       4.801   4.932   0.228  0.00  0.00    -0.300 N 
ATOM     17  C   UNL     1       4.927   3.619  -0.047  0.00  0.00    +0.252 C 
ATOM     18  O   UNL     1       5.990   3.180  -0.443  0.00  0.00    -0.270 OA
ATOM     19  H   UNL     1       3.819   5.344   0.507  0.00  0.00    +0.150 HD
BRANCH  17  20
ATOM     20  C   UNL     1       3.779   2.715   0.134  0.00  0.00    +0.122 A 
ATOM     21  C   UNL     1       2.563   3.201   0.585  0.00  0.00    +0.031 A 
ATOM     22  C   UNL     1       1.485   2.295   0.744  0.00  0.00    +0.018 A 
ATOM     23  C   UNL     1       0.239   2.754   1.199  0.00  0.00    +0.011 A 
ATOM     24  C   UNL     1      -0.795   1.876   1.350  0.00  0.00    +0.001 A 
ATOM     25  C   UNL     1      -0.626   0.531   1.051  0.00  0.00    +0.004 A 
ATOM     26  C   UNL     1       0.590   0.057   0.609  0.00  0.00    +0.047 A 
ATOM     27  C   UNL     1       1.660   0.931   0.447  0.00  0.00    +0.139 A 
ATOM     28  O   UNL     1       2.849   0.466   0.007  0.00  0.00    -0.422 OA
ATOM     29  C   UNL     1       3.902   1.283  -0.161  0.00  0.00    +0.350 A 
ATOM     30  O   UNL     1       4.961   0.834  -0.558  0.00  0.00    -0.244 OA
ENDBRANCH  17  20
ENDBRANCH   1  16
BRANCH   1  31
ATOM     31  C   UNL     1       6.111   6.356  -1.268  0.00  0.00    +0.034 C 
BRANCH  31  32
ATOM     32  C   UNL     1       7.404   7.167  -1.379  0.00  0.00    -0.015 C 
ATOM     33  C   UNL     1       8.606   6.234  -1.222  0.00  0.00    +0.007 C 
ATOM     34  C   UNL     1       7.462   7.849  -2.747  0.00  0.00    +0.007 C 
ENDBRANCH  31  32
ENDBRANCH   1  31
TORSDOF 9
