REMARK  Name = ZINC58960304
REMARK  8 active torsions:
REMARK  status: ('A' for Active; 'I' for Inactive)
REMARK    1  A    between atoms: C_1  and  C_2
REMARK    2  A    between atoms: C_2  and  C_3
REMARK    3  A    between atoms: C_6  and  C_9
REMARK    4  A    between atoms: C_11  and  C_26
REMARK    5  A    between atoms: C_13  and  S_15
REMARK    6  A    between atoms: S_15  and  C_16
REMARK    7  A    between atoms: C_16  and  C_17
REMARK    8  A    between atoms: C_22  and  C_25
REMARK                            x       y       z     vdW  Elec       q    Type
REMARK                         _______ _______ _______ _____ _____    ______ ____
ROOT
ATOM      1  C   UNL     1      -5.401  -1.997   0.043  0.00  0.00    +0.076 A 
ATOM      2  C   UNL     1      -6.074  -2.247  -1.156  0.00  0.00    +0.060 A 
ATOM      3  C   UNL     1      -7.370  -2.726  -1.097  0.00  0.00    +0.148 A 
ATOM      4  N   UNL     1      -7.931  -2.932   0.084  0.00  0.00    -0.218 NA
ATOM      5  C   UNL     1      -7.269  -2.687   1.206  0.00  0.00    +0.190 A 
ATOM      6  N   UNL     1      -6.025  -2.233   1.194  0.00  0.00    -0.222 NA
ENDROOT
BRANCH   1  10
ATOM      7  C   UNL     1      -1.412  -0.526   0.013  0.00  0.00    -0.048 A 
ATOM      8  C   UNL     1      -2.049  -0.765   1.217  0.00  0.00    +0.004 A 
ATOM      9  C   UNL     1      -3.343  -1.243   1.233  0.00  0.00    +0.010 A 
ATOM     10  C   UNL     1      -4.009  -1.484   0.032  0.00  0.00    +0.001 A 
ATOM     11  C   UNL     1      -3.363  -1.240  -1.178  0.00  0.00    +0.010 A 
ATOM     12  C   UNL     1      -2.070  -0.758  -1.182  0.00  0.00    +0.004 A 
BRANCH   7  14
ATOM     13  C   UNL     1      -0.019   1.526   0.010  0.00  0.00    +0.009 C 
ATOM     14  C   UNL     1       0.002  -0.004   0.002  0.00  0.00    +0.032 C 
ENDBRANCH   7  14
ENDBRANCH   1  10
BRANCH   3  15
ATOM     15  C   UNL     1      -8.136  -3.009  -2.364  0.00  0.00    +0.434 C 
ATOM     16  F   UNL     1      -7.916  -4.334  -2.755  0.00  0.00    -0.164 F 
ATOM     17  F   UNL     1      -9.502  -2.810  -2.137  0.00  0.00    -0.164 F 
ATOM     18  F   UNL     1      -7.701  -2.146  -3.375  0.00  0.00    -0.164 F 
ENDBRANCH   3  15
BRANCH   5  19
ATOM     19  S   UNL     1      -8.062  -2.978   2.752  0.00  0.00    -0.077 S 
BRANCH  19  20
ATOM     20  C   UNL     1      -9.709  -3.585   2.293  0.00  0.00    +0.173 C 
BRANCH  20  21
ATOM     21  C   UNL     1     -10.502  -3.877   3.541  0.00  0.00    +0.229 C 
ATOM     22  O   UNL     1     -10.006  -3.693   4.632  0.00  0.00    -0.275 OA
ATOM     23  N   UNL     1     -11.763  -4.342   3.444  0.00  0.00    -0.267 N 
ATOM     24  C   UNL     1     -12.498  -4.612   4.599  0.00  0.00    +0.168 A 
ATOM     25  C   UNL     1     -12.051  -4.440   5.928  0.00  0.00    +0.091 A 
ATOM     26  C   UNL     1     -13.046  -4.809   6.754  0.00  0.00    +0.136 A 
ATOM     27  O   UNL     1     -14.088  -5.201   6.005  0.00  0.00    -0.358 OA
ATOM     28  N   UNL     1     -13.725  -5.064   4.643  0.00  0.00    -0.063 NA
ATOM     29  C   UNL     1     -12.999  -4.785   8.260  0.00  0.00    +0.089 C 
ATOM     30  H   UNL     1     -12.160  -4.490   2.571  0.00  0.00    +0.156 HD
ENDBRANCH  20  21
ENDBRANCH  19  20
ENDBRANCH   5  19
TORSDOF 6
