REMARK  Name = ZINC11865362
REMARK  7 active torsions:
REMARK  status: ('A' for Active; 'I' for Inactive)
REMARK    1  A    between atoms: C_1  and  C_2
REMARK    2  A    between atoms: C_4  and  O_37
REMARK    3  A    between atoms: C_5  and  C_21
REMARK    4  A    between atoms: C_10  and  C_13
REMARK    5  A    between atoms: C_16  and  O_19
REMARK    6  A    between atoms: O_19  and  C_20
REMARK    7  A    between atoms: C_21  and  N_64
REMARK                            x       y       z     vdW  Elec       q    Type
REMARK                         _______ _______ _______ _____ _____    ______ ____
ROOT
ATOM      1  C   UNL     1      -4.719  -4.583   0.635  0.00  0.00    +0.045 C 
ATOM      2  C   UNL     1      -4.609  -3.088   0.479  0.00  0.00    -0.033 A 
ATOM      3  C   UNL     1      -4.500  -2.534  -0.764  0.00  0.00    +0.050 A 
ATOM      4  C   UNL     1      -4.402  -1.152  -0.913  0.00  0.00    +0.122 A 
ATOM      5  C   UNL     1      -4.403  -0.322   0.195  0.00  0.00    +0.020 A 
ATOM      6  C   UNL     1      -4.513  -0.869   1.467  0.00  0.00    +0.143 A 
ATOM      7  C   UNL     1      -4.616  -2.264   1.606  0.00  0.00    +0.068 A 
ATOM      8  C   UNL     1      -4.732  -2.826   2.963  0.00  0.00    +0.200 A 
ATOM      9  O   UNL     1      -4.825  -4.027   3.152  0.00  0.00    -0.286 OA
ATOM     10  C   UNL     1      -4.730  -1.867   4.081  0.00  0.00    +0.064 A 
ATOM     11  C   UNL     1      -4.624  -0.542   3.803  0.00  0.00    +0.208 A 
ATOM     12  O   UNL     1      -4.521  -0.075   2.556  0.00  0.00    -0.462 OA
ENDROOT
BRANCH  10  13
ATOM     13  C   UNL     1      -4.843  -2.338   5.483  0.00  0.00    -0.011 A 
ATOM     14  C   UNL     1      -5.856  -3.226   5.841  0.00  0.00    +0.012 A 
ATOM     15  C   UNL     1      -5.955  -3.667   7.145  0.00  0.00    +0.046 A 
ATOM     16  C   UNL     1      -5.054  -3.219   8.101  0.00  0.00    +0.120 A 
ATOM     17  C   UNL     1      -4.047  -2.331   7.748  0.00  0.00    +0.046 A 
ATOM     18  C   UNL     1      -3.939  -1.891   6.445  0.00  0.00    +0.012 A 
BRANCH  16  19
ATOM     19  O   UNL     1      -5.157  -3.651   9.385  0.00  0.00    -0.495 OA
ATOM     20  C   UNL     1      -6.216  -4.564   9.679  0.00  0.00    +0.277 C 
ENDBRANCH  16  19
ENDBRANCH  10  13
BRANCH   4  21
ATOM     21  O   UNL     1      -4.300  -0.615  -2.155  0.00  0.00    -0.506 OA
ATOM     22  H   UNL     1      -3.391  -0.520  -2.469  0.00  0.00    +0.292 HD
ENDBRANCH   4  21
BRANCH   5  23
ATOM     23  C   UNL     1      -4.292   1.171   0.021  0.00  0.00    -0.036 C 
BRANCH  23  37
ATOM     24  C   UNL     1      -2.236   1.149   1.297  0.00  0.00    -0.073 C 
ATOM     25  C   UNL     1      -0.784   1.602   1.348  0.00  0.00    -0.007 C 
ATOM     26  C   UNL     1      -0.013   1.098   0.125  0.00  0.00    +0.011 C 
ATOM     27  C   UNL     1      -0.741   1.611  -1.123  0.00  0.00    +0.020 C 
ATOM     28  C   UNL     1      -2.161   1.019  -1.122  0.00  0.00    -0.069 C 
ATOM     29  C   UNL     1      -0.876   3.114  -1.038  0.00  0.00    +0.023 A 
ATOM     30  C   UNL     1      -0.966   3.800  -2.209  0.00  0.00    +0.022 A 
ATOM     31  C   UNL     1      -1.155   5.186  -2.208  0.00  0.00    +0.007 A 
ATOM     32  C   UNL     1      -1.266   5.835  -1.013  0.00  0.00    +0.070 A 
ATOM     33  C   UNL     1      -1.166   5.099   0.176  0.00  0.00    +0.251 A 
ATOM     34  O   UNL     1      -1.309   5.662   1.249  0.00  0.00    -0.268 OA
ATOM     35  N   UNL     1      -0.910   3.767   0.147  0.00  0.00    -0.312 N 
ATOM     36  C   UNL     1      -0.663   3.114   1.433  0.00  0.00    +0.126 C 
ATOM     37  N   UNL     1      -2.876   1.591   0.042  0.00  0.00    +0.383 N 
ATOM     38  H   UNL     1      -2.831   2.616  -0.011  0.00  0.00    -0.081 HD
ENDBRANCH  23  37
ENDBRANCH   5  23
TORSDOF 5
