REMARK  Name = ZINC23217996
REMARK  5 active torsions:
REMARK  status: ('A' for Active; 'I' for Inactive)
REMARK    1  A    between atoms: C_1  and  C_2
REMARK    2  A    between atoms: C_5  and  C_8
REMARK    3  A    between atoms: C_9  and  C_10
REMARK    4  A    between atoms: C_9  and  C_12
REMARK    5  A    between atoms: C_12  and  C_14
REMARK                            x       y       z     vdW  Elec       q    Type
REMARK                         _______ _______ _______ _____ _____    ______ ____
ROOT
ATOM      1  C   UNL     1      -1.195   2.337   0.035  0.00  0.00    +0.205 C 
ATOM      2  O   UNL     1      -2.294   1.854  -0.167  0.00  0.00    -0.286 OA
ENDROOT
BRANCH   1   3
ATOM      3  C   UNL     1      -0.012   1.469   0.108  0.00  0.00    +0.048 A 
ATOM      4  C   UNL     1       1.290   1.867   0.212  0.00  0.00    +0.095 A 
ATOM      5  N   UNL     1       2.099   0.781   0.249  0.00  0.00    -0.360 N 
ATOM      6  H   UNL     1       3.188   0.910   0.331  0.00  0.00    +0.165 HD
ATOM      7  C   UNL     1       1.354  -0.378   0.169  0.00  0.00    +0.047 A 
ATOM      8  C   UNL     1       0.003  -0.005   0.078  0.00  0.00    +0.011 A 
ATOM      9  C   UNL     1      -0.985  -0.982  -0.016  0.00  0.00    +0.011 A 
ATOM     10  C   UNL     1      -0.631  -2.313  -0.017  0.00  0.00    +0.001 A 
ATOM     11  C   UNL     1       0.703  -2.683   0.073  0.00  0.00    +0.002 A 
ATOM     12  C   UNL     1       1.691  -1.727   0.165  0.00  0.00    +0.026 A 
ENDBRANCH   1   3
BRANCH   1  14
ATOM     13  C   UNL     1      -2.168   4.594   0.253  0.00  0.00    +0.030 C 
ATOM     14  C   UNL     1      -1.050   3.793   0.205  0.00  0.00    +0.100 C 
BRANCH  13  19
ATOM     15  C   UNL     1      -1.605  10.311   0.281  0.00  0.00    +0.044 C 
ATOM     16  C   UNL     1      -1.753   8.812   0.274  0.00  0.00    -0.050 A 
ATOM     17  C   UNL     1      -0.788   8.028  -0.336  0.00  0.00    +0.004 A 
ATOM     18  C   UNL     1      -0.915   6.656  -0.347  0.00  0.00    +0.008 A 
ATOM     19  C   UNL     1      -2.024   6.054   0.260  0.00  0.00    -0.024 A 
ATOM     20  C   UNL     1      -2.999   6.855   0.870  0.00  0.00    +0.008 A 
ATOM     21  C   UNL     1      -2.853   8.225   0.877  0.00  0.00    +0.004 A 
ENDBRANCH  13  19
BRANCH  14  22
ATOM     22  C   UNL     1       0.253   4.375   0.321  0.00  0.00    +0.103 C 
ATOM     23  N   UNL     1       1.287   4.836   0.413  0.00  0.00    -0.191 NA
ENDBRANCH  14  22
ENDBRANCH   1  14
TORSDOF 4
