REMARK  Name = ZINC14849818
REMARK  5 active torsions:
REMARK  status: ('A' for Active; 'I' for Inactive)
REMARK    1  A    between atoms: C_3  and  S_22
REMARK    2  A    between atoms: C_6  and  N_7
REMARK    3  A    between atoms: N_7  and  S_8
REMARK    4  A    between atoms: S_8  and  C_11
REMARK    5  A    between atoms: S_22  and  N_25
REMARK                            x       y       z     vdW  Elec       q    Type
REMARK                         _______ _______ _______ _____ _____    ______ ____
ROOT
ATOM      1  N   UNL     1       1.641  -4.379  -1.579  0.00  0.00    -0.216 N 
ATOM      2  H   UNL     1       2.216  -4.489  -0.806  0.00  0.00    +0.174 HD
ENDROOT
BRANCH   1   8
ATOM      3  C   UNL     1      -0.335  -3.635  -0.410  0.00  0.00    +0.026 A 
ATOM      4  C   UNL     1      -1.443  -2.814  -0.337  0.00  0.00    +0.030 A 
ATOM      5  C   UNL     1      -1.703  -1.908  -1.349  0.00  0.00    +0.106 A 
ATOM      6  C   UNL     1      -0.858  -1.825  -2.440  0.00  0.00    +0.030 A 
ATOM      7  C   UNL     1       0.255  -2.639  -2.517  0.00  0.00    +0.026 A 
ATOM      8  C   UNL     1       0.519  -3.550  -1.502  0.00  0.00    +0.048 A 
BRANCH   5   9
ATOM      9  S   UNL     1      -3.118  -0.863  -1.252  0.00  0.00    +0.061 S 
ATOM     10  O   UNL     1      -4.049  -1.518  -0.401  0.00  0.00    -0.153 OA
ATOM     11  O   UNL     1      -3.437  -0.487  -2.584  0.00  0.00    -0.153 OA
BRANCH   9  12
ATOM     12  N   UNL     1      -2.652   0.520  -0.468  0.00  0.00    -0.177 NA
ATOM     13  C   UNL     1      -2.144   1.640  -1.207  0.00  0.00    +0.109 C 
ATOM     14  C   UNL     1      -0.617   1.647  -1.467  0.00  0.00    +0.017 C 
ATOM     15  C   UNL     1       0.142   1.183  -0.200  0.00  0.00    +0.001 C 
ATOM     16  C   UNL     1      -0.504   1.731   1.040  0.00  0.00    +0.001 C 
ATOM     17  C   UNL     1      -1.394   0.609   1.563  0.00  0.00    +0.017 C 
ATOM     18  C   UNL     1      -2.755   0.621   1.026  0.00  0.00    +0.109 C 
ENDBRANCH   9  12
ENDBRANCH   5   9
ENDBRANCH   1   8
BRANCH   1  19
ATOM     19  S   UNL     1       1.987  -5.174  -2.990  0.00  0.00    +0.072 S 
ATOM     20  O   UNL     1       1.994  -4.193  -4.018  0.00  0.00    -0.150 OA
ATOM     21  O   UNL     1       3.108  -6.005  -2.723  0.00  0.00    -0.150 OA
BRANCH  19  22
ATOM     22  C   UNL     1       0.632  -6.248  -3.329  0.00  0.00    +0.110 A 
ATOM     23  C   UNL     1       0.590  -7.506  -2.756  0.00  0.00    +0.032 A 
ATOM     24  C   UNL     1      -0.472  -8.354  -3.011  0.00  0.00    +0.049 A 
ATOM     25  C   UNL     1      -1.492  -7.946  -3.853  0.00  0.00    +0.142 A 
ATOM     26  C   UNL     1      -1.447  -6.680  -4.436  0.00  0.00    +0.078 A 
ATOM     27  C   UNL     1      -0.383  -5.834  -4.171  0.00  0.00    +0.055 A 
ATOM     28  N   UNL     1      -2.485  -6.280  -5.289  0.00  0.00    -0.280 N 
ATOM     29  C   UNL     1      -3.643  -6.977  -5.282  0.00  0.00    +0.255 C 
ATOM     30  O   UNL     1      -4.544  -6.668  -6.033  0.00  0.00    -0.272 OA
ATOM     31  C   UNL     1      -3.809  -8.140  -4.338  0.00  0.00    +0.325 C 
ATOM     32  O   UNL     1      -2.543  -8.767  -4.119  0.00  0.00    -0.481 OA
ATOM     33  H   UNL     1      -2.375  -5.515  -5.875  0.00  0.00    +0.155 HD
ENDBRANCH  19  22
ENDBRANCH   1  19
TORSDOF 5
