REMARK  Name = ZINC21629517
REMARK  11 active torsions:
REMARK  status: ('A' for Active; 'I' for Inactive)
REMARK    1  A    between atoms: C_1  and  C_2
REMARK    2  A    between atoms: C_6  and  C_36
REMARK    3  A    between atoms: C_7  and  N_8
REMARK    4  A    between atoms: C_18  and  S_19
REMARK    5  A    between atoms: S_19  and  C_20
REMARK    6  A    between atoms: C_20  and  C_22
REMARK    7  A    between atoms: C_20  and  C_23
REMARK    8  A    between atoms: C_23  and  C_25
REMARK    9  A    between atoms: C_26  and  N_35
REMARK   10  A    between atoms: N_27  and  C_34
REMARK   11  A    between atoms: N_30  and  C_33
REMARK                            x       y       z     vdW  Elec       q    Type
REMARK                         _______ _______ _______ _____ _____    ______ ____
ROOT
ATOM      1  N   UNL     1       3.898  -6.359   1.466  0.00  0.00    -0.255 N 
ATOM      2  C   UNL     1       5.144  -6.874   1.592  0.00  0.00    +0.267 A 
ATOM      3  O   UNL     1       5.322  -7.991   2.044  0.00  0.00    -0.267 OA
ATOM      4  C   UNL     1       6.272  -6.035   1.169  0.00  0.00    +0.065 A 
ATOM      5  C   UNL     1       7.593  -6.473   1.265  0.00  0.00    +0.015 A 
ATOM      6  C   UNL     1       8.606  -5.651   0.858  0.00  0.00    +0.001 A 
ATOM      7  C   UNL     1       8.335  -4.387   0.350  0.00  0.00    +0.002 A 
ATOM      8  C   UNL     1       7.050  -3.933   0.245  0.00  0.00    +0.028 A 
ATOM      9  C   UNL     1       5.992  -4.749   0.653  0.00  0.00    +0.079 A 
ATOM     10  N   UNL     1       4.705  -4.339   0.567  0.00  0.00    -0.223 NA
ATOM     11  C   UNL     1       3.715  -5.106   0.951  0.00  0.00    +0.177 A 
ENDROOT
BRANCH   1  18
ATOM     12  C   UNL     1       2.996  -6.127   4.155  0.00  0.00    +0.046 C 
ATOM     13  C   UNL     1       2.316  -7.035   3.163  0.00  0.00    -0.026 A 
ATOM     14  C   UNL     1       1.219  -7.781   3.548  0.00  0.00    +0.005 A 
ATOM     15  C   UNL     1       0.598  -8.618   2.640  0.00  0.00    +0.001 A 
ATOM     16  C   UNL     1       1.070  -8.708   1.343  0.00  0.00    +0.005 A 
ATOM     17  C   UNL     1       2.163  -7.961   0.951  0.00  0.00    -0.026 A 
ATOM     18  C   UNL     1       2.789  -7.119   1.861  0.00  0.00    +0.058 A 
ATOM     19  C   UNL     1       2.677  -8.060  -0.462  0.00  0.00    +0.046 C 
ENDBRANCH   1  18
BRANCH  11  20
ATOM     20  S   UNL     1       2.070  -4.491   0.804  0.00  0.00    -0.076 S 
BRANCH  20  21
ATOM     21  C   UNL     1       2.407  -2.857   0.102  0.00  0.00    +0.122 C 
ATOM     22  C   UNL     1       3.021  -3.016  -1.290  0.00  0.00    +0.028 C 
BRANCH  21  23
ATOM     23  C   UNL     1       1.120  -2.080  -0.002  0.00  0.00    +0.185 C 
ATOM     24  O   UNL     1       0.060  -2.668  -0.084  0.00  0.00    -0.291 OA
BRANCH  23  25
ATOM     25  C   UNL     1       1.146  -0.669  -0.004  0.00  0.00    +0.121 A 
ATOM     26  C   UNL     1      -0.044   0.079   0.027  0.00  0.00    +0.116 A 
ATOM     27  N   UNL     1       0.032   1.442   0.024  0.00  0.00    -0.284 N 
ATOM     28  C   UNL     1       1.216   2.075  -0.007  0.00  0.00    +0.333 A 
ATOM     29  O   UNL     1       1.230   3.290  -0.009  0.00  0.00    -0.246 OA
ATOM     30  N   UNL     1       2.384   1.415  -0.038  0.00  0.00    -0.263 N 
ATOM     31  C   UNL     1       2.417   0.066  -0.038  0.00  0.00    +0.269 A 
ATOM     32  O   UNL     1       3.478  -0.530  -0.066  0.00  0.00    -0.267 OA
ATOM     33  C   UNL     1       3.640   2.168  -0.072  0.00  0.00    +0.157 C 
ATOM     34  C   UNL     1      -1.203   2.230   0.050  0.00  0.00    +0.155 C 
BRANCH  26  35
ATOM     35  N   UNL     1      -1.252  -0.546   0.060  0.00  0.00    -0.344 N 
ATOM     36  H   UNL     1      -2.178   0.048   0.084  0.00  0.00    +0.144 HD
ATOM     37  H   UNL     1      -1.303  -1.645   0.062  0.00  0.00    +0.144 HD
ENDBRANCH  26  35
ENDBRANCH  23  25
ENDBRANCH  21  23
ENDBRANCH  20  21
ENDBRANCH  11  20
TORSDOF 6
