REMARK  Name = ZINC40733008
REMARK  5 active torsions:
REMARK  status: ('A' for Active; 'I' for Inactive)
REMARK    1  A    between atoms: C_1  and  C_2
REMARK    2  A    between atoms: C_9  and  N_23
REMARK    3  A    between atoms: C_10  and  N_14
REMARK    4  A    between atoms: N_14  and  N_15
REMARK    5  A    between atoms: C_16  and  C_18
REMARK                            x       y       z     vdW  Elec       q    Type
REMARK                         _______ _______ _______ _____ _____    ______ ____
ROOT
ATOM      1  C   UNL     1      -1.180  -0.209  -2.426  0.00  0.00    +0.007 C 
ATOM      2  C   UNL     1      -0.548  -0.874  -1.202  0.00  0.00    -0.011 C 
ATOM      3  C   UNL     1      -0.552  -2.393  -1.388  0.00  0.00    +0.022 C 
ATOM      4  C   UNL     1       0.113  -3.054  -0.176  0.00  0.00    +0.107 C 
ATOM      5  N   UNL     1      -0.565  -2.594   1.044  0.00  0.00    -0.314 N 
ATOM      6  C   UNL     1      -0.697  -1.149   1.276  0.00  0.00    +0.107 C 
ATOM      7  C   UNL     1      -1.353  -0.510   0.048  0.00  0.00    +0.022 C 
ATOM      8  C   UNL     1      -1.071  -3.508   1.960  0.00  0.00    +0.147 A 
ATOM      9  C   UNL     1      -0.256  -4.028   2.967  0.00  0.00    +0.107 A 
ATOM     10  C   UNL     1      -0.815  -4.942   3.861  0.00  0.00    +0.161 A 
ATOM     11  N   UNL     1      -2.094  -5.281   3.721  0.00  0.00    -0.217 NA
ATOM     12  C   UNL     1      -2.829  -4.767   2.756  0.00  0.00    +0.225 A 
ATOM     13  N   UNL     1      -2.342  -3.897   1.895  0.00  0.00    -0.219 NA
ENDROOT
BRANCH   9  14
ATOM     14  N   UNL     1       1.090  -3.642   3.077  0.00  0.00    -0.353 N 
ATOM     15  H   UNL     1       1.442  -2.940   2.507  0.00  0.00    +0.143 HD
ATOM     16  H   UNL     1       1.668  -4.077   3.724  0.00  0.00    +0.143 HD
ENDBRANCH   9  14
BRANCH  10  17
ATOM     17  N   UNL     1      -0.047  -5.490   4.882  0.00  0.00    -0.246 N 
ATOM     18  H   UNL     1       0.884  -5.238   4.978  0.00  0.00    +0.172 HD
BRANCH  17  19
ATOM     19  N   UNL     1      -0.620  -6.407   5.774  0.00  0.00    -0.229 N 
ATOM     20  C   UNL     1       0.125  -6.939   6.764  0.00  0.00    +0.295 C 
ATOM     21  O   UNL     1       1.294  -6.622   6.883  0.00  0.00    -0.265 OA
ATOM     22  H   UNL     1      -1.551  -6.659   5.679  0.00  0.00    +0.173 HD
BRANCH  20  23
ATOM     23  C   UNL     1      -0.474  -7.898   7.697  0.00  0.00    +0.190 A 
ATOM     24  C   UNL     1       0.162  -8.505   8.742  0.00  0.00    +0.054 A 
ATOM     25  C   UNL     1      -0.783  -9.338   9.361  0.00  0.00    +0.042 A 
ATOM     26  C   UNL     1      -1.940  -9.205   8.675  0.00  0.00    +0.196 A 
ATOM     27  O   UNL     1      -1.752  -8.332   7.677  0.00  0.00    -0.458 OA
ENDBRANCH  20  23
ENDBRANCH  17  19
ENDBRANCH  10  17
TORSDOF 4
