REMARK  Name = ZINC11838817
REMARK  7 active torsions:
REMARK  status: ('A' for Active; 'I' for Inactive)
REMARK    1  A    between atoms: C_3  and  C_6
REMARK    2  A    between atoms: C_6  and  N_7
REMARK    3  A    between atoms: C_8  and  C_10
REMARK    4  A    between atoms: C_18  and  C_19
REMARK    5  A    between atoms: C_18  and  N_57
REMARK    6  A    between atoms: C_22  and  O_25
REMARK    7  A    between atoms: O_25  and  C_26
REMARK                            x       y       z     vdW  Elec       q    Type
REMARK                         _______ _______ _______ _____ _____    ______ ____
ROOT
ATOM      1  C   UNL     1       9.055   5.216  -5.017  0.00  0.00    +0.082 C 
ATOM      2  C   UNL     1       8.418   6.070  -3.918  0.00  0.00    +0.020 C 
ATOM      3  C   UNL     1       8.757   4.604  -3.650  0.00  0.00    -0.021 C 
ATOM      4  C   UNL     1       9.944   4.304  -2.728  0.00  0.00    -0.011 C 
ATOM      5  C   UNL     1       9.418   4.111  -1.301  0.00  0.00    -0.078 C 
ATOM      6  C   UNL     1       7.210   3.458  -2.073  0.00  0.00    -0.078 C 
ATOM      7  C   UNL     1       7.597   3.609  -3.548  0.00  0.00    -0.011 C 
ATOM      8  N   UNL     1       8.403   3.034  -1.308  0.00  0.00    +0.382 N 
ATOM      9  H   UNL     1       8.806   2.201  -1.755  0.00  0.00    -0.081 HD
ENDROOT
BRANCH   1  11
ATOM     10  N   UNL     1      10.816   6.025  -6.554  0.00  0.00    -0.308 N 
ATOM     11  C   UNL     1      10.497   5.486  -5.360  0.00  0.00    +0.217 C 
ATOM     12  O   UNL     1      11.370   5.219  -4.563  0.00  0.00    -0.275 OA
ATOM     13  H   UNL     1      10.118   6.239  -7.192  0.00  0.00    +0.149 HD
BRANCH  10  14
ATOM     14  C   UNL     1      12.219   6.288  -6.887  0.00  0.00    +0.178 C 
BRANCH  14  17
ATOM     15  C   UNL     1      12.373   8.310  -9.964  0.00  0.00    +0.041 A 
ATOM     16  C   UNL     1      12.262   8.200  -8.559  0.00  0.00    +0.046 A 
ATOM     17  C   UNL     1      12.303   6.887  -8.267  0.00  0.00    +0.122 A 
ATOM     18  O   UNL     1      12.438   6.201  -9.414  0.00  0.00    -0.466 OA
ATOM     19  C   UNL     1      12.475   7.059 -10.447  0.00  0.00    +0.195 A 
ENDBRANCH  14  17
ENDBRANCH  10  14
ENDBRANCH   1  11
BRANCH   8  20
ATOM     20  C   UNL     1       8.019   2.695   0.077  0.00  0.00    -0.043 C 
BRANCH  20  21
ATOM     21  C   UNL     1       6.804   1.805   0.048  0.00  0.00    -0.064 A 
ATOM     22  C   UNL     1       6.955   0.433  -0.031  0.00  0.00    +0.005 A 
ATOM     23  C   UNL     1       5.842  -0.385  -0.058  0.00  0.00    +0.046 A 
ATOM     24  C   UNL     1       4.572   0.172  -0.006  0.00  0.00    +0.132 A 
ATOM     25  C   UNL     1       4.423   1.549   0.068  0.00  0.00    +0.046 A 
ATOM     26  C   UNL     1       5.539   2.362   0.100  0.00  0.00    +0.005 A 
BRANCH  24  27
ATOM     27  O   UNL     1       3.475  -0.631  -0.034  0.00  0.00    -0.424 OA
BRANCH  27  28
ATOM     28  C   UNL     1       3.141  -1.290   1.101  0.00  0.00    +0.323 A 
ATOM     29  N   UNL     1       2.025  -2.001   1.130  0.00  0.00    -0.203 NA
ATOM     30  C   UNL     1       1.669  -2.657   2.222  0.00  0.00    +0.118 A 
ATOM     31  C   UNL     1       2.480  -2.592   3.344  0.00  0.00    +0.040 A 
ATOM     32  C   UNL     1       3.641  -1.838   3.279  0.00  0.00    +0.118 A 
ATOM     33  N   UNL     1       3.938  -1.207   2.155  0.00  0.00    -0.203 NA
ENDBRANCH  27  28
ENDBRANCH  24  27
ENDBRANCH  20  21
ENDBRANCH   8  20
TORSDOF 7
