REMARK  Name = ZINC44862599
REMARK  7 active torsions:
REMARK  status: ('A' for Active; 'I' for Inactive)
REMARK    1  A    between atoms: C_1  and  C_2
REMARK    2  A    between atoms: C_2  and  C_3
REMARK    3  A    between atoms: C_2  and  C_4
REMARK    4  A    between atoms: C_4  and  C_6
REMARK    5  A    between atoms: C_4  and  C_10
REMARK    6  A    between atoms: N_7  and  O_8
REMARK    7  A    between atoms: N_12  and  C_13
REMARK                            x       y       z     vdW  Elec       q    Type
REMARK                         _______ _______ _______ _____ _____    ______ ____
ROOT
ATOM      1  C   UNL     1      -1.425  -1.847   0.176  0.00  0.00    +0.224 C 
ATOM      2  O   UNL     1      -1.865  -2.537  -0.720  0.00  0.00    -0.275 OA
ATOM      3  N   UNL     1      -0.981  -2.421   1.312  0.00  0.00    -0.309 N 
ATOM      4  H   UNL     1      -0.557  -1.879   1.996  0.00  0.00    +0.149 HD
ENDROOT
BRANCH   3   5
ATOM      5  C   UNL     1      -1.138  -3.864   1.514  0.00  0.00    +0.035 C 
ATOM      6  C   UNL     1      -0.399  -4.617   0.406  0.00  0.00    +0.029 C 
ATOM      7  C   UNL     1      -0.563  -6.123   0.617  0.00  0.00    -0.008 C 
ATOM      8  C   UNL     1       0.021  -6.515   1.976  0.00  0.00    +0.007 C 
ATOM      9  C   UNL     1      -0.719  -5.761   3.084  0.00  0.00    -0.008 C 
ATOM     10  C   UNL     1      -0.555  -4.255   2.873  0.00  0.00    +0.029 C 
ATOM     11  C   UNL     1      -2.204  -6.123   3.043  0.00  0.00    +0.007 C 
ATOM     12  C   UNL     1      -2.788  -5.732   1.684  0.00  0.00    -0.008 C 
ATOM     13  C   UNL     1      -2.049  -6.486   0.576  0.00  0.00    +0.007 C 
ATOM     14  C   UNL     1      -2.624  -4.226   1.473  0.00  0.00    +0.029 C 
ENDBRANCH   3   5
BRANCH   1  15
ATOM     15  C   UNL     1      -1.375  -0.349   0.019  0.00  0.00    +0.144 C 
BRANCH  15  16
ATOM     16  C   UNL     1      -2.446   0.091  -0.946  0.00  0.00    +0.144 C 
ATOM     17  N   UNL     1      -2.160   0.259  -2.195  0.00  0.00    -0.076 NA
ATOM     18  N   UNL     1      -3.728   0.313  -0.496  0.00  0.00    -0.343 N 
ATOM     19  H   UNL     1      -3.942   0.186   0.441  0.00  0.00    +0.144 HD
ATOM     20  H   UNL     1      -4.417   0.596  -1.117  0.00  0.00    +0.144 HD
BRANCH  17  21
ATOM     21  O   UNL     1      -3.167   0.673  -3.101  0.00  0.00    -0.408 OA
ATOM     22  H   UNL     1      -2.858   0.772  -4.012  0.00  0.00    +0.328 HD
ENDBRANCH  17  21
ENDBRANCH  15  16
BRANCH  15  24
ATOM     23  C   UNL     1       0.026   1.575  -0.740  0.00  0.00    +0.008 C 
ATOM     24  C   UNL     1      -0.003   0.061  -0.520  0.00  0.00    +0.002 C 
ATOM     25  C   UNL     1       1.079  -0.329   0.489  0.00  0.00    +0.008 C 
ENDBRANCH  15  24
ENDBRANCH   1  15
TORSDOF 5
