REMARK  Name = ZINC00974113
REMARK  7 active torsions:
REMARK  status: ('A' for Active; 'I' for Inactive)
REMARK    1  A    between atoms: C_1  and  C_2
REMARK    2  A    between atoms: C_2  and  C_34
REMARK    3  A    between atoms: C_6  and  C_14
REMARK    4  A    between atoms: C_8  and  C_12
REMARK    5  A    between atoms: C_9  and  N_11
REMARK    6  A    between atoms: C_16  and  C_25
REMARK    7  A    between atoms: N_18  and  C_19
REMARK                            x       y       z     vdW  Elec       q    Type
REMARK                         _______ _______ _______ _____ _____    ______ ____
ROOT
ATOM      1  C   UNL     1      -4.504   6.167  -1.601  0.00  0.00    +0.012 C 
ATOM      2  C   UNL     1      -5.240   7.502  -1.475  0.00  0.00    -0.021 C 
ATOM      3  C   UNL     1      -5.444   7.840   0.003  0.00  0.00    +0.081 C 
ATOM      4  C   UNL     1      -4.101   7.968   0.684  0.00  0.00    +0.115 C 
ATOM      5  C   UNL     1      -3.028   8.410   0.008  0.00  0.00    +0.047 C 
ATOM      6  C   UNL     1      -1.691   8.558   0.693  0.00  0.00    +0.120 C 
ATOM      7  C   UNL     1      -1.878   8.587   2.184  0.00  0.00    +0.100 C 
ATOM      8  C   UNL     1      -3.025   8.126   2.740  0.00  0.00    +0.198 C 
ATOM      9  O   UNL     1      -4.018   7.631   1.985  0.00  0.00    -0.445 OA
ATOM     10  C   UNL     1      -3.111   8.749  -1.359  0.00  0.00    +0.164 C 
ATOM     11  O   UNL     1      -2.123   9.158  -1.934  0.00  0.00    -0.292 OA
ATOM     12  C   UNL     1      -4.404   8.614  -2.117  0.00  0.00    +0.086 C 
ATOM     13  C   UNL     1      -6.599   7.408  -2.172  0.00  0.00    +0.012 C 
ENDROOT
BRANCH   6  14
ATOM     14  C   UNL     1      -0.808   7.394   0.323  0.00  0.00    +0.058 A 
ATOM     15  C   UNL     1      -1.210   6.118   0.139  0.00  0.00    +0.054 A 
ATOM     16  C   UNL     1      -0.076   5.351  -0.195  0.00  0.00    +0.093 A 
ATOM     17  N   UNL     1       0.970   6.150  -0.203  0.00  0.00    -0.166 NA
ATOM     18  N   UNL     1       0.534   7.443   0.115  0.00  0.00    -0.235 N 
BRANCH  18  19
ATOM     19  C   UNL     1       1.341   8.585   0.206  0.00  0.00    +0.066 A 
ATOM     20  C   UNL     1       0.921   9.781  -0.361  0.00  0.00    +0.028 A 
ATOM     21  C   UNL     1       1.716  10.906  -0.265  0.00  0.00    +0.002 A 
ATOM     22  C   UNL     1       2.934  10.840   0.386  0.00  0.00    +0.000 A 
ATOM     23  C   UNL     1       3.357   9.649   0.948  0.00  0.00    +0.002 A 
ATOM     24  C   UNL     1       2.564   8.522   0.860  0.00  0.00    +0.028 A 
ENDBRANCH  18  19
BRANCH  16  25
ATOM     25  C   UNL     1      -0.063   3.895  -0.482  0.00  0.00    +0.002 A 
ATOM     26  C   UNL     1       1.134   3.256  -0.800  0.00  0.00    +0.010 A 
ATOM     27  C   UNL     1       1.141   1.902  -1.067  0.00  0.00    +0.001 A 
ATOM     28  C   UNL     1      -0.037   1.179  -1.017  0.00  0.00    +0.000 A 
ATOM     29  C   UNL     1      -1.229   1.809  -0.707  0.00  0.00    +0.001 A 
ATOM     30  C   UNL     1      -1.247   3.162  -0.433  0.00  0.00    +0.010 A 
ENDBRANCH  16  25
ENDBRANCH   6  14
BRANCH   8  31
ATOM     31  N   UNL     1      -3.174   8.166   4.104  0.00  0.00    -0.328 N 
ATOM     32  H   UNL     1      -2.463   8.522   4.660  0.00  0.00    +0.145 HD
ATOM     33  H   UNL     1      -3.991   7.840   4.513  0.00  0.00    +0.145 HD
ENDBRANCH   8  31
BRANCH   7  34
ATOM     34  C   UNL     1      -0.839   9.104   3.022  0.00  0.00    +0.101 C 
ATOM     35  N   UNL     1      -0.014   9.515   3.687  0.00  0.00    -0.191 NA
ENDBRANCH   7  34
TORSDOF 5
