REMARK  Name = ZINC38089915
REMARK  7 active torsions:
REMARK  status: ('A' for Active; 'I' for Inactive)
REMARK    1  A    between atoms: C_1  and  C_2
REMARK    2  A    between atoms: C_2  and  C_4
REMARK    3  A    between atoms: C_2  and  N_11
REMARK    4  A    between atoms: C_7  and  O_10
REMARK    5  A    between atoms: N_11  and  C_12
REMARK    6  A    between atoms: C_13  and  C_15
REMARK    7  A    between atoms: C_20  and  O_21
REMARK                            x       y       z     vdW  Elec       q    Type
REMARK                         _______ _______ _______ _____ _____    ______ ____
ROOT
ATOM      1  N   UNL     1       0.632  -0.808   1.234  0.00  0.00    -0.294 N 
ATOM      2  C   UNL     1       0.028  -0.875   2.567  0.00  0.00    +0.133 C 
ATOM      3  C   UNL     1       1.941  -1.089   1.073  0.00  0.00    +0.250 C 
ATOM      4  O   UNL     1       2.425  -1.111  -0.042  0.00  0.00    -0.270 OA
ENDROOT
BRANCH   3   5
ATOM      5  C   UNL     1       2.785  -1.370   2.249  0.00  0.00    +0.078 A 
ATOM      6  C   UNL     1       2.370  -2.299   3.207  0.00  0.00    +0.017 A 
ATOM      7  C   UNL     1       3.164  -2.557   4.303  0.00  0.00    +0.001 A 
ATOM      8  C   UNL     1       4.373  -1.900   4.461  0.00  0.00    +0.004 A 
ATOM      9  C   UNL     1       4.796  -0.980   3.523  0.00  0.00    +0.046 A 
ATOM     10  C   UNL     1       4.012  -0.711   2.410  0.00  0.00    +0.129 A 
BRANCH  10  11
ATOM     11  O   UNL     1       4.428   0.189   1.485  0.00  0.00    -0.506 OA
ATOM     12  H   UNL     1       4.144   1.096   1.662  0.00  0.00    +0.292 HD
ENDBRANCH  10  11
ENDBRANCH   3   5
BRANCH   1  14
ATOM     13  C   UNL     1      -0.898   0.888   0.362  0.00  0.00    +0.033 C 
ATOM     14  C   UNL     1      -0.185  -0.435   0.077  0.00  0.00    +0.103 C 
BRANCH  14  15
ATOM     15  C   UNL     1      -1.207  -1.511  -0.183  0.00  0.00    -0.027 A 
ATOM     16  C   UNL     1      -1.276  -2.110  -1.428  0.00  0.00    +0.009 A 
ATOM     17  C   UNL     1      -2.213  -3.097  -1.669  0.00  0.00    +0.046 A 
ATOM     18  C   UNL     1      -3.084  -3.487  -0.662  0.00  0.00    +0.117 A 
ATOM     19  C   UNL     1      -3.012  -2.884   0.586  0.00  0.00    +0.046 A 
ATOM     20  C   UNL     1      -2.070  -1.902   0.824  0.00  0.00    +0.009 A 
BRANCH  18  21
ATOM     21  O   UNL     1      -4.006  -4.457  -0.897  0.00  0.00    -0.507 OA
ATOM     22  H   UNL     1      -3.695  -5.351  -0.703  0.00  0.00    +0.292 HD
ENDBRANCH  18  21
ENDBRANCH  14  15
ENDBRANCH   1  14
TORSDOF 5
