REMARK  Name = ZINC20096164
REMARK  5 active torsions:
REMARK  status: ('A' for Active; 'I' for Inactive)
REMARK    1  A    between atoms: C_3  and  O_19
REMARK    2  A    between atoms: C_6  and  N_7
REMARK    3  A    between atoms: N_7  and  C_8
REMARK    4  A    between atoms: C_16  and  O_18
REMARK    5  A    between atoms: O_19  and  C_20
REMARK                            x       y       z     vdW  Elec       q    Type
REMARK                         _______ _______ _______ _____ _____    ______ ____
ROOT
ATOM      1  N   UNL     1       1.646   2.906   0.989  0.00  0.00    -0.334 N 
ATOM      2  H   UNL     1       0.988   2.981   1.868  0.00  0.00    +0.147 HD
ENDROOT
BRANCH   1   3
ATOM      3  C   UNL     1       1.427   1.849  -0.002  0.00  0.00    +0.142 C 
ATOM      4  C   UNL     1       2.180   0.556   0.393  0.00  0.00    +0.256 C 
ATOM      5  O   UNL     1       1.277  -0.480  -0.028  0.00  0.00    -0.489 OA
ATOM      6  C   UNL     1       0.002  -0.004   0.002  0.00  0.00    +0.129 A 
ATOM      7  C   UNL     1      -0.017   1.385   0.010  0.00  0.00    +0.018 A 
ATOM      8  C   UNL     1      -1.208   2.076   0.030  0.00  0.00    +0.013 A 
ATOM      9  C   UNL     1      -2.408   1.388   0.043  0.00  0.00    +0.046 A 
ATOM     10  C   UNL     1      -2.404   0.000   0.042  0.00  0.00    +0.120 A 
ATOM     11  C   UNL     1      -1.206  -0.694   0.021  0.00  0.00    +0.091 A 
BRANCH  10  12
ATOM     12  O   UNL     1      -3.581  -0.680   0.060  0.00  0.00    -0.507 OA
ATOM     13  H   UNL     1      -3.580  -1.780   0.059  0.00  0.00    +0.292 HD
ENDBRANCH  10  12
ENDBRANCH   1   3
BRANCH   1  19
ATOM     14  C   UNL     1       3.525   3.723  -0.289  0.00  0.00    +0.026 A 
ATOM     15  C   UNL     1       4.552   4.630  -0.461  0.00  0.00    +0.047 A 
ATOM     16  C   UNL     1       4.759   5.630   0.478  0.00  0.00    +0.127 A 
ATOM     17  C   UNL     1       3.930   5.724   1.586  0.00  0.00    +0.047 A 
ATOM     18  C   UNL     1       2.899   4.822   1.756  0.00  0.00    +0.026 A 
ATOM     19  C   UNL     1       2.691   3.820   0.817  0.00  0.00    +0.028 A 
BRANCH  16  20
ATOM     20  O   UNL     1       5.775   6.519   0.311  0.00  0.00    -0.434 OA
BRANCH  20  21
ATOM     21  C   UNL     1       6.589   6.363  -0.853  0.00  0.00    +0.541 C 
ATOM     22  F   UNL     1       7.193   5.101  -0.834  0.00  0.00    -0.166 F 
ATOM     23  F   UNL     1       5.793   6.482  -1.998  0.00  0.00    -0.166 F 
ENDBRANCH  20  21
ENDBRANCH  16  20
ENDBRANCH   1  19
TORSDOF 5
