REMARK  Name = ZINC39667072
REMARK  8 active torsions:
REMARK  status: ('A' for Active; 'I' for Inactive)
REMARK    1  A    between atoms: C_1  and  C_2
REMARK    2  A    between atoms: C_5  and  C_9
REMARK    3  A    between atoms: C_6  and  C_8
REMARK    4  A    between atoms: C_9  and  C_10
REMARK    5  A    between atoms: C_10  and  N_11
REMARK    6  A    between atoms: C_12  and  C_14
REMARK    7  A    between atoms: C_25  and  C_27
REMARK    8  A    between atoms: C_31  and  C_34
REMARK                            x       y       z     vdW  Elec       q    Type
REMARK                         _______ _______ _______ _____ _____    ______ ____
ROOT
ATOM      1  C   UNL     1      -2.485  -8.466   0.197  0.00  0.00    +0.100 C 
ATOM      2  C   UNL     1      -1.599  -8.998   1.346  0.00  0.00    +0.121 C 
ATOM      3  N   UNL     1      -2.545  -9.265   2.455  0.00  0.00    -0.296 N 
ATOM      4  C   UNL     1      -3.741  -9.837   1.791  0.00  0.00    +0.115 C 
ATOM      5  C   UNL     1      -3.889  -9.021   0.491  0.00  0.00    -0.004 C 
ATOM      6  C   UNL     1      -4.349  -9.924  -0.649  0.00  0.00    -0.010 C 
ATOM      7  C   UNL     1      -5.771 -10.416  -0.362  0.00  0.00    -0.082 C 
ATOM      8  N   UNL     1      -6.672  -9.266  -0.228  0.00  0.00    +0.379 N 
ATOM      9  C   UNL     1      -6.277  -8.453   0.929  0.00  0.00    -0.082 C 
ATOM     10  C   UNL     1      -4.877  -7.877   0.697  0.00  0.00    -0.010 C 
ATOM     11  C   UNL     1      -2.360  -9.040   3.771  0.00  0.00    +0.251 C 
ATOM     12  O   UNL     1      -3.239  -9.315   4.565  0.00  0.00    -0.270 OA
ATOM     13  H   UNL     1      -6.625  -8.703  -1.064  0.00  0.00    -0.086 HD
ATOM     14  H   UNL     1      -7.617  -9.594  -0.100  0.00  0.00    -0.086 HD
ENDROOT
BRANCH  11  15
ATOM     15  C   UNL     1      -1.089  -8.459   4.248  0.00  0.00    +0.091 A 
ATOM     16  C   UNL     1      -0.947  -7.072   4.356  0.00  0.00    +0.056 A 
ATOM     17  C   UNL     1       0.243  -6.536   4.803  0.00  0.00    +0.021 A 
ATOM     18  C   UNL     1       1.296  -7.367   5.145  0.00  0.00    +0.007 A 
ATOM     19  C   UNL     1       1.165  -8.739   5.042  0.00  0.00    -0.014 A 
ATOM     20  C   UNL     1      -0.024  -9.293   4.601  0.00  0.00    +0.140 A 
ATOM     21  F   UNL     1      -0.152 -10.634   4.506  0.00  0.00    -0.204 F 
ATOM     22  C   UNL     1       2.317  -9.635   5.417  0.00  0.00    +0.047 C 
ATOM     23 CL   UNL     1      -2.265  -6.027   3.927  0.00  0.00    -0.083 Cl
ENDBRANCH  11  15
BRANCH   1  25
ATOM     24  N   UNL     1      -2.763  -6.282  -0.931  0.00  0.00    -0.315 N 
ATOM     25  C   UNL     1      -2.505  -6.959   0.206  0.00  0.00    +0.218 C 
ATOM     26  O   UNL     1      -2.288  -6.355   1.235  0.00  0.00    -0.275 OA
ATOM     27  H   UNL     1      -2.937  -6.765  -1.754  0.00  0.00    +0.149 HD
BRANCH  24  28
ATOM     28  C   UNL     1      -2.782  -4.817  -0.923  0.00  0.00    +0.109 C 
BRANCH  28  29
ATOM     29  C   UNL     1      -3.098  -4.303  -2.329  0.00  0.00    +0.054 C 
BRANCH  29  34
ATOM     30  C   UNL     1      -3.172   1.475  -2.294  0.00  0.00    +0.044 C 
ATOM     31  C   UNL     1      -3.152  -0.032  -2.303  0.00  0.00    -0.050 A 
ATOM     32  C   UNL     1      -4.331  -0.739  -2.155  0.00  0.00    +0.003 A 
ATOM     33  C   UNL     1      -4.313  -2.121  -2.163  0.00  0.00    +0.004 A 
ATOM     34  C   UNL     1      -3.117  -2.796  -2.321  0.00  0.00    -0.043 A 
ATOM     35  C   UNL     1      -1.939  -2.089  -2.470  0.00  0.00    -0.047 A 
ATOM     36  C   UNL     1      -1.957  -0.707  -2.466  0.00  0.00    +0.007 A 
ATOM     37  C   UNL     1      -0.635  -2.825  -2.641  0.00  0.00    +0.044 C 
ENDBRANCH  29  34
ENDBRANCH  28  29
ENDBRANCH  24  28
ENDBRANCH   1  25
TORSDOF 5
