REMARK  Name = ZINC50416853
REMARK  7 active torsions:
REMARK  status: ('A' for Active; 'I' for Inactive)
REMARK    1  A    between atoms: C_1  and  C_2
REMARK    2  A    between atoms: C_2  and  C_4
REMARK    3  A    between atoms: C_2  and  N_10
REMARK    4  A    between atoms: N_8  and  C_9
REMARK    5  A    between atoms: N_10  and  S_11
REMARK    6  A    between atoms: S_11  and  C_14
REMARK    7  A    between atoms: C_17  and  N_21
REMARK                            x       y       z     vdW  Elec       q    Type
REMARK                         _______ _______ _______ _____ _____    ______ ____
ROOT
ATOM      1  S   UNL     1       2.324  -0.731  -1.179  0.00  0.00    +0.060 S 
ATOM      2  O   UNL     1       2.824  -1.044  -2.472  0.00  0.00    -0.153 OA
ATOM      3  O   UNL     1       2.776   0.397  -0.441  0.00  0.00    -0.153 OA
ENDROOT
BRANCH   1   4
ATOM      4  C   UNL     1       2.617  -2.144  -0.169  0.00  0.00    +0.119 A 
ATOM      5  C   UNL     1       3.225  -1.997   1.064  0.00  0.00    +0.031 A 
ATOM      6  C   UNL     1       3.456  -3.103   1.859  0.00  0.00    +0.025 A 
ATOM      7  C   UNL     1       3.078  -4.364   1.417  0.00  0.00    +0.026 A 
ATOM      8  C   UNL     1       2.467  -4.510   0.179  0.00  0.00    +0.040 A 
ATOM      9  C   UNL     1       2.234  -3.398  -0.609  0.00  0.00    +0.046 A 
ATOM     10 BR   UNL     1       1.396  -3.594  -2.293  0.00  0.00    -0.048 Br
BRANCH   7  11
ATOM     11  N   UNL     1       3.311  -5.485   2.218  0.00  0.00    -0.358 N 
ATOM     12  H   UNL     1       3.738  -5.382   3.083  0.00  0.00    +0.142 HD
ATOM     13  H   UNL     1       3.047  -6.365   1.910  0.00  0.00    +0.142 HD
ENDBRANCH   7  11
ENDBRANCH   1   4
BRANCH   1  14
ATOM     14  N   UNL     1       0.683  -0.570  -1.332  0.00  0.00    -0.180 NA
ATOM     15  H   UNL     1       0.265  -0.671  -2.201  0.00  0.00    +0.149 HD
BRANCH  14  17
ATOM     16  C   UNL     1      -0.377   1.234  -0.065  0.00  0.00    +0.034 C 
ATOM     17  C   UNL     1      -0.137  -0.275  -0.155  0.00  0.00    +0.141 C 
BRANCH  17  18
ATOM     18  C   UNL     1      -1.460  -0.988  -0.272  0.00  0.00    +0.151 A 
ATOM     19  N   UNL     1      -2.212  -1.051  -1.336  0.00  0.00    -0.133 NA
ATOM     20  N   UNL     1      -3.267  -1.740  -1.080  0.00  0.00    -0.138 NA
ATOM     21  C   UNL     1      -3.235  -2.148   0.159  0.00  0.00    +0.224 A 
ATOM     22  N   UNL     1      -2.085  -1.687   0.706  0.00  0.00    -0.319 N 
ATOM     23  C   UNL     1      -1.614  -1.898   2.077  0.00  0.00    +0.151 C 
ENDBRANCH  17  18
ENDBRANCH  14  17
ENDBRANCH   1  14
TORSDOF 5
