REMARK  Name = ZINC46279712
REMARK  15 active torsions:
REMARK  status: ('A' for Active; 'I' for Inactive)
REMARK    1  A    between atoms: C_1  and  C_2
REMARK    2  A    between atoms: C_2  and  C_3
REMARK    3  A    between atoms: C_3  and  C_5
REMARK    4  A    between atoms: C_3  and  N_6
REMARK    5  A    between atoms: C_7  and  C_9
REMARK    6  A    between atoms: C_13  and  C_15
REMARK    7  A    between atoms: C_15  and  N_16
REMARK    8  A    between atoms: N_19  and  C_20
REMARK    9  A    between atoms: C_20  and  C_21
REMARK   10  A    between atoms: C_21  and  C_23
REMARK   11  A    between atoms: C_21  and  N_24
REMARK   12  A    between atoms: N_24  and  C_25
REMARK   13  A    between atoms: N_24  and  C_27
REMARK   14  A    between atoms: C_25  and  C_26
REMARK   15  A    between atoms: C_27  and  C_28
REMARK                            x       y       z     vdW  Elec       q    Type
REMARK                         _______ _______ _______ _____ _____    ______ ____
ROOT
ATOM      1  C   UNL     1       5.772   1.131  -5.706  0.00  0.00    +0.141 C 
ENDROOT
BRANCH   1   6
ATOM      2  C   UNL     1       2.787   0.069  -3.637  0.00  0.00    +0.037 A 
ATOM      3  C   UNL     1       3.167   0.506  -2.366  0.00  0.00    +0.013 A 
ATOM      4  C   UNL     1       4.381   1.138  -2.192  0.00  0.00    +0.001 A 
ATOM      5  C   UNL     1       5.221   1.339  -3.273  0.00  0.00    +0.005 A 
ATOM      6  C   UNL     1       4.851   0.908  -4.534  0.00  0.00    -0.030 A 
ATOM      7  C   UNL     1       3.642   0.270  -4.721  0.00  0.00    +0.018 A 
BRANCH   2   9
ATOM      8  N   UNL     1       0.664  -0.800  -2.781  0.00  0.00    -0.309 N 
ATOM      9  C   UNL     1       1.488  -0.608  -3.831  0.00  0.00    +0.244 C 
ATOM     10  O   UNL     1       1.162  -0.993  -4.937  0.00  0.00    -0.270 OA
ATOM     11  H   UNL     1       0.924  -0.494  -1.898  0.00  0.00    +0.149 HD
BRANCH   8  12
ATOM     12  C   UNL     1      -0.624  -1.472  -2.974  0.00  0.00    +0.070 C 
ATOM     13  C   UNL     1      -0.423  -2.987  -2.906  0.00  0.00    +0.028 C 
BRANCH  12  15
ATOM     14  C   UNL     1      -1.892   0.457  -2.019  0.00  0.00    +0.005 C 
ATOM     15  C   UNL     1      -1.595  -1.037  -1.875  0.00  0.00    +0.018 C 
ENDBRANCH  12  15
ENDBRANCH   8  12
ENDBRANCH   2   9
ENDBRANCH   1   6
BRANCH   1  16
ATOM     16  N   UNL     1       6.672  -0.017  -5.845  0.00  0.00    -0.295 N 
ATOM     17  C   UNL     1       7.589  -0.038  -6.832  0.00  0.00    +0.300 C 
ATOM     18  O   UNL     1       7.670   0.896  -7.607  0.00  0.00    -0.253 OA
ATOM     19  N   UNL     1       8.417  -1.094  -6.960  0.00  0.00    -0.301 N 
ATOM     20  H   UNL     1       6.607  -0.761  -5.227  0.00  0.00    +0.151 HD
ATOM     21  H   UNL     1       8.352  -1.839  -6.342  0.00  0.00    +0.150 HD
BRANCH  19  22
ATOM     22  C   UNL     1       9.414  -1.117  -8.033  0.00  0.00    +0.090 C 
BRANCH  22  23
ATOM     23  C   UNL     1      10.286  -2.366  -7.892  0.00  0.00    -0.054 C 
ATOM     24  C   UNL     1      11.249  -2.452  -9.078  0.00  0.00    -0.012 C 
BRANCH  23  25
ATOM     25  N   UNL     1       9.431  -3.560  -7.869  0.00  0.00    +0.382 N 
ATOM     26  H   UNL     1       8.756  -3.475  -7.124  0.00  0.00    -0.081 HD
BRANCH  25  27
ATOM     27  C   UNL     1       8.730  -3.686  -9.153  0.00  0.00    -0.082 C 
ATOM     28  C   UNL     1       7.733  -4.844  -9.079  0.00  0.00    -0.017 C 
ENDBRANCH  25  27
BRANCH  25  29
ATOM     29  C   UNL     1      10.260  -4.752  -7.645  0.00  0.00    -0.082 C 
ATOM     30  C   UNL     1      10.903  -4.673  -6.259  0.00  0.00    -0.017 C 
ENDBRANCH  25  29
ENDBRANCH  23  25
ENDBRANCH  22  23
ENDBRANCH  19  22
ENDBRANCH   1  16
TORSDOF 10
