REMARK  Name = ZINC04453492
REMARK  11 active torsions:
REMARK  status: ('A' for Active; 'I' for Inactive)
REMARK    1  A    between atoms: C_1  and  C_2
REMARK    2  A    between atoms: C_2  and  O_3
REMARK    3  A    between atoms: O_3  and  C_4
REMARK    4  A    between atoms: C_7  and  C_13
REMARK    5  A    between atoms: C_9  and  O_10
REMARK    6  A    between atoms: O_10  and  C_11
REMARK    7  A    between atoms: C_11  and  C_12
REMARK    8  A    between atoms: C_21  and  C_29
REMARK    9  A    between atoms: C_23  and  C_24
REMARK   10  A    between atoms: C_23  and  C_26
REMARK   11  A    between atoms: C_31  and  N_55
REMARK                            x       y       z     vdW  Elec       q    Type
REMARK                         _______ _______ _______ _____ _____    ______ ____
ROOT
ATOM      1  C   UNL     1       2.542  -2.800  -0.036  0.00  0.00    +0.064 C 
ATOM      2  C   UNL     1       2.573  -3.769  -1.219  0.00  0.00    +0.010 C 
ATOM      3  C   UNL     1       2.642  -3.041  -2.543  0.00  0.00    -0.070 C 
ATOM      4  C   UNL     1       0.787  -4.292  -3.440  0.00  0.00    -0.051 C 
ATOM      5  C   UNL     1       0.586  -4.964  -2.104  0.00  0.00    -0.044 C 
ATOM      6  C   UNL     1       1.396  -4.694  -1.098  0.00  0.00    -0.051 C 
ATOM      7  C   UNL     1       1.126  -5.273   0.242  0.00  0.00    +0.163 C 
ATOM      8  C   UNL     1       1.735  -4.739   1.331  0.00  0.00    +0.065 C 
ATOM      9  C   UNL     1       2.701  -3.592   1.262  0.00  0.00    +0.188 C 
ATOM     10  N   UNL     1       1.453  -5.274   2.557  0.00  0.00    -0.304 NA
ATOM     11  C   UNL     1       1.406  -2.166  -4.429  0.00  0.00    -0.096 C 
ATOM     12  H   UNL     1       0.832  -6.014   2.632  0.00  0.00    +0.186 HD
ATOM     13  N   UNL     1       1.315  -2.936  -3.169  0.00  0.00    +0.381 N 
ATOM     14  H   UNL     1       0.678  -2.450  -2.526  0.00  0.00    -0.082 HD
ENDROOT
BRANCH   1  18
ATOM     15  C   UNL     1      -1.195  -0.719   0.011  0.00  0.00    +0.162 A 
ATOM     16  C   UNL     1      -1.063  -1.927   0.677  0.00  0.00    +0.050 A 
ATOM     17  C   UNL     1       0.146  -2.598   0.659  0.00  0.00    +0.008 A 
ATOM     18  C   UNL     1       1.226  -2.065  -0.021  0.00  0.00    -0.037 A 
ATOM     19  C   UNL     1       1.099  -0.863  -0.692  0.00  0.00    +0.053 A 
ATOM     20  C   UNL     1      -0.108  -0.183  -0.674  0.00  0.00    +0.162 A 
BRANCH  15  21
ATOM     21  O   UNL     1      -2.383  -0.059   0.028  0.00  0.00    -0.489 OA
BRANCH  21  23
ATOM     22  C   UNL     1      -4.701   0.215   0.657  0.00  0.00    +0.048 C 
ATOM     23  C   UNL     1      -3.454  -0.668   0.751  0.00  0.00    +0.226 C 
ENDBRANCH  21  23
ENDBRANCH  15  21
BRANCH  20  24
ATOM     24  O   UNL     1      -0.233   1.002  -1.329  0.00  0.00    -0.489 OA
BRANCH  24  25
ATOM     25  C   UNL     1       0.923   1.491  -2.011  0.00  0.00    +0.226 C 
ATOM     26  C   UNL     1       0.593   2.825  -2.683  0.00  0.00    +0.048 C 
ENDBRANCH  24  25
ENDBRANCH  20  24
ENDBRANCH   1  18
BRANCH   9  27
ATOM     27  C   UNL     1       4.075  -4.117   1.338  0.00  0.00    +0.091 C 
ATOM     28  N   UNL     1       5.134  -4.522   1.397  0.00  0.00    -0.195 NA
ENDBRANCH   9  27
BRANCH   9  29
ATOM     29  C   UNL     1       2.469  -2.694   2.404  0.00  0.00    +0.091 C 
ATOM     30  N   UNL     1       2.289  -2.001   3.286  0.00  0.00    -0.195 NA
ENDBRANCH   9  29
BRANCH   7  31
ATOM     31  C   UNL     1       0.233  -6.383   0.384  0.00  0.00    +0.076 C 
ATOM     32  N   UNL     1      -0.476  -7.264   0.496  0.00  0.00    -0.196 NA
ENDBRANCH   7  31
TORSDOF 8
