REMARK  Name = ZINC34677845
REMARK  13 active torsions:
REMARK  status: ('A' for Active; 'I' for Inactive)
REMARK    1  A    between atoms: C_1  and  C_2
REMARK    2  A    between atoms: C_2  and  N_3
REMARK    3  A    between atoms: N_3  and  C_4
REMARK    4  A    between atoms: C_10  and  C_12
REMARK    5  A    between atoms: C_15  and  C_17
REMARK    6  A    between atoms: C_17  and  N_18
REMARK    7  A    between atoms: N_21  and  C_24
REMARK    8  A    between atoms: C_24  and  C_25
REMARK    9  A    between atoms: C_25  and  C_27
REMARK   10  A    between atoms: C_25  and  O_31
REMARK   11  A    between atoms: C_27  and  O_28
REMARK   12  A    between atoms: O_28  and  C_29
REMARK   13  A    between atoms: C_29  and  C_30
REMARK                            x       y       z     vdW  Elec       q    Type
REMARK                         _______ _______ _______ _____ _____    ______ ____
ROOT
ATOM      1  C   UNL     1      -1.258  -0.600   2.453  0.00  0.00    +0.164 A 
ATOM      2  C   UNL     1      -1.678  -0.974   3.692  0.00  0.00    +0.230 A 
ATOM      3  O   UNL     1      -0.748  -0.554   4.564  0.00  0.00    -0.449 OA
ATOM      4  C   UNL     1       0.222   0.065   3.877  0.00  0.00    +0.179 A 
ATOM      5  N   UNL     1      -0.068   0.041   2.611  0.00  0.00    -0.210 NA
ENDROOT
BRANCH   1   7
ATOM      6  N   UNL     1      -1.368  -0.520   0.012  0.00  0.00    -0.293 N 
ATOM      7  C   UNL     1      -1.958  -0.846   1.179  0.00  0.00    +0.268 C 
ATOM      8  O   UNL     1      -3.068  -1.344   1.181  0.00  0.00    -0.268 OA
BRANCH   6   9
ATOM      9  C   UNL     1      -2.107  -0.658  -1.246  0.00  0.00    +0.076 C 
ATOM     10  C   UNL     1      -3.356   0.225  -1.203  0.00  0.00    +0.022 C 
ATOM     11  C   UNL     1      -4.127   0.082  -2.517  0.00  0.00    +0.002 C 
ATOM     12  C   UNL     1      -4.541  -1.379  -2.707  0.00  0.00    +0.000 C 
ATOM     13  C   UNL     1      -3.293  -2.262  -2.750  0.00  0.00    +0.002 C 
ATOM     14  C   UNL     1      -2.521  -2.118  -1.437  0.00  0.00    +0.022 C 
ENDBRANCH   6   9
BRANCH   6  16
ATOM     15  C   UNL     1       0.013   1.490   0.194  0.00  0.00    +0.024 C 
ATOM     16  C   UNL     1       0.011  -0.027   0.001  0.00  0.00    +0.105 C 
ENDBRANCH   6  16
ENDBRANCH   1   7
BRANCH   4  17
ATOM     17  C   UNL     1       1.457   0.686   4.478  0.00  0.00    +0.019 C 
BRANCH  17  18
ATOM     18  N   UNL     1       1.186   2.091   4.809  0.00  0.00    +0.387 N 
ATOM     19  C   UNL     1       0.931   2.845   3.574  0.00  0.00    -0.063 C 
ATOM     20  C   UNL     1       0.630   4.305   3.921  0.00  0.00    +0.066 C 
ATOM     21  N   UNL     1       1.776   4.881   4.639  0.00  0.00    -0.303 NA
ATOM     22  C   UNL     1       2.059   4.121   5.865  0.00  0.00    +0.066 C 
ATOM     23  C   UNL     1       2.348   2.663   5.503  0.00  0.00    -0.063 C 
ATOM     24  H   UNL     1       0.376   2.145   5.409  0.00  0.00    -0.081 HD
BRANCH  21  25
ATOM     25  C   UNL     1       1.549   6.301   4.940  0.00  0.00    +0.117 C 
BRANCH  25  26
ATOM     26  C   UNL     1       2.845   6.926   5.458  0.00  0.00    +0.154 C 
BRANCH  26  27
ATOM     27  O   UNL     1       3.829   6.912   4.421  0.00  0.00    -0.388 OA
ATOM     28  H   UNL     1       3.571   7.403   3.629  0.00  0.00    +0.210 HD
ENDBRANCH  26  27
BRANCH  26  29
ATOM     29  C   UNL     1       2.579   8.370   5.889  0.00  0.00    +0.192 C 
BRANCH  29  30
ATOM     30  O   UNL     1       3.760   8.916   6.480  0.00  0.00    -0.377 OA
BRANCH  30  31
ATOM     31  C   UNL     1       3.617  10.269   6.919  0.00  0.00    +0.156 C 
ATOM     32  C   UNL     1       4.935  10.747   7.531  0.00  0.00    +0.034 C 
ENDBRANCH  30  31
ENDBRANCH  29  30
ENDBRANCH  26  29
ENDBRANCH  25  26
ENDBRANCH  21  25
ENDBRANCH  17  18
ENDBRANCH   4  17
TORSDOF 11
