REMARK  Name = ZINC37191438
REMARK  5 active torsions:
REMARK  status: ('A' for Active; 'I' for Inactive)
REMARK    1  A    between atoms: C_1  and  C_2
REMARK    2  A    between atoms: C_7  and  C_11
REMARK    3  A    between atoms: C_11  and  S_12
REMARK    4  A    between atoms: S_12  and  C_13
REMARK    5  A    between atoms: C_16  and  N_19
REMARK                            x       y       z     vdW  Elec       q    Type
REMARK                         _______ _______ _______ _____ _____    ______ ____
ROOT
ATOM      1  C   UNL     1       0.088  -5.503   2.364  0.00  0.00    +0.132 C 
ENDROOT
BRANCH   1   8
ATOM      2  C   UNL     1      -0.018   1.503   0.010  0.00  0.00    +0.045 C 
ATOM      3  C   UNL     1       0.002  -0.004   0.002  0.00  0.00    -0.034 A 
ATOM      4  C   UNL     1       0.006  -0.697  -1.220  0.00  0.00    +0.008 A 
ATOM      5  C   UNL     1       0.025  -2.057  -1.224  0.00  0.00    +0.047 A 
ATOM      6  C   UNL     1       0.040  -2.750   0.003  0.00  0.00    +0.138 A 
ATOM      7  N   UNL     1       0.059  -4.043   0.297  0.00  0.00    -0.232 NA
ATOM      8  C   UNL     1       0.067  -4.189   1.625  0.00  0.00    +0.070 A 
ATOM      9  C   UNL     1       0.053  -2.964   2.194  0.00  0.00    +0.116 A 
ATOM     10  N   UNL     1       0.036  -2.047   1.179  0.00  0.00    -0.306 N 
ATOM     11  C   UNL     1       0.022  -0.682   1.169  0.00  0.00    +0.096 A 
ENDBRANCH   1   8
BRANCH   1  12
ATOM     12  S   UNL     1       1.806  -6.006   2.653  0.00  0.00    -0.100 S 
BRANCH  12  13
ATOM     13  C   UNL     1       1.663  -7.537   3.514  0.00  0.00    +0.097 A 
ATOM     14  C   UNL     1       2.812  -8.216   3.906  0.00  0.00    +0.036 A 
ATOM     15  C   UNL     1       2.689  -9.416   4.581  0.00  0.00    +0.027 A 
ATOM     16  C   UNL     1       1.408  -9.902   4.843  0.00  0.00    +0.043 A 
ATOM     17  C   UNL     1       0.308  -9.171   4.422  0.00  0.00    +0.134 A 
ATOM     18  N   UNL     1       0.463  -8.025   3.785  0.00  0.00    -0.247 NA
BRANCH  16  19
ATOM     19  N   UNL     1       1.236 -11.113   5.524  0.00  0.00    -0.357 N 
ATOM     20  H   UNL     1       2.009 -11.620   5.816  0.00  0.00    +0.142 HD
ATOM     21  H   UNL     1       0.342 -11.446   5.703  0.00  0.00    +0.142 HD
ENDBRANCH  16  19
ENDBRANCH  12  13
ENDBRANCH   1  12
TORSDOF 4
