REMARK  Name = ZINC09703733
REMARK  4 active torsions:
REMARK  status: ('A' for Active; 'I' for Inactive)
REMARK    1  A    between atoms: C_4  and  N_7
REMARK    2  A    between atoms: N_7  and  C_8
REMARK    3  A    between atoms: C_14  and  C_16
REMARK    4  A    between atoms: C_16  and  N_17
REMARK                            x       y       z     vdW  Elec       q    Type
REMARK                         _______ _______ _______ _____ _____    ______ ____
ROOT
ATOM      1  N   UNL     1       4.716  -0.120  -2.131  0.00  0.00    -0.215 N 
ATOM      2  C   UNL     1       3.682  -0.669  -2.799  0.00  0.00    +0.251 C 
ATOM      3  O   UNL     1       3.607  -0.880  -3.991  0.00  0.00    -0.272 OA
ATOM      4  C   UNL     1       2.635  -0.969  -1.749  0.00  0.00    +0.138 C 
ATOM      5  C   UNL     1       2.358  -2.466  -1.692  0.00  0.00    +0.040 C 
ATOM      6  C   UNL     1       1.562  -2.859  -2.943  0.00  0.00    +0.008 C 
ATOM      7  C   UNL     1       0.165  -2.251  -2.839  0.00  0.00    +0.035 C 
ATOM      8  C   UNL     1       0.246  -0.778  -2.540  0.00  0.00    -0.042 A 
ATOM      9  C   UNL     1       1.382  -0.188  -2.029  0.00  0.00    -0.012 A 
ATOM     10  C   UNL     1       1.387   1.174  -1.759  0.00  0.00    +0.006 A 
ATOM     11  C   UNL     1       0.267   1.942  -2.003  0.00  0.00    +0.000 A 
ATOM     12  C   UNL     1      -0.871   1.351  -2.520  0.00  0.00    +0.000 A 
ATOM     13  C   UNL     1      -0.879  -0.003  -2.787  0.00  0.00    +0.004 A 
ATOM     14  N   UNL     1       3.251  -0.513  -0.495  0.00  0.00    -0.281 N 
ATOM     15  C   UNL     1       4.466  -0.033  -0.819  0.00  0.00    +0.310 C 
ATOM     16  O   UNL     1       5.248   0.429  -0.011  0.00  0.00    -0.252 OA
ATOM     17  H   UNL     1       2.859  -0.551   0.391  0.00  0.00    +0.152 HD
ENDROOT
BRANCH   1  18
ATOM     18  C   UNL     1       5.960   0.327  -2.763  0.00  0.00    +0.214 C 
BRANCH  18  20
ATOM     19  N   UNL     1       6.813   2.369  -3.869  0.00  0.00    -0.267 N 
ATOM     20  C   UNL     1       5.826   1.771  -3.173  0.00  0.00    +0.238 C 
ATOM     21  O   UNL     1       4.829   2.395  -2.876  0.00  0.00    -0.273 OA
BRANCH  19  25
ATOM     22  C   UNL     1      10.091   0.147  -5.164  0.00  0.00    +0.000 A 
ATOM     23  C   UNL     1       9.188   0.647  -6.085  0.00  0.00    +0.002 A 
ATOM     24  C   UNL     1       8.101   1.384  -5.659  0.00  0.00    +0.023 A 
ATOM     25  C   UNL     1       7.913   1.622  -4.304  0.00  0.00    +0.037 A 
ATOM     26  C   UNL     1       8.824   1.123  -3.381  0.00  0.00    +0.023 A 
ATOM     27  C   UNL     1       9.907   0.382  -3.814  0.00  0.00    +0.002 A 
ENDBRANCH  19  25
BRANCH  19  28
ATOM     28  C   UNL     1       6.734   3.800  -4.169  0.00  0.00    +0.082 C 
ATOM     29  C   UNL     1       6.607   4.589  -2.865  0.00  0.00    +0.023 C 
ATOM     30  C   UNL     1       6.524   6.085  -3.179  0.00  0.00    +0.002 C 
ATOM     31  C   UNL     1       5.302   6.354  -4.059  0.00  0.00    +0.000 C 
ATOM     32  C   UNL     1       5.429   5.565  -5.364  0.00  0.00    +0.002 C 
ATOM     33  C   UNL     1       5.512   4.070  -5.050  0.00  0.00    +0.023 C 
ENDBRANCH  19  28
ENDBRANCH  18  20
ENDBRANCH   1  18
TORSDOF 4
