REMARK  Name = ZINC09424573
REMARK  8 active torsions:
REMARK  status: ('A' for Active; 'I' for Inactive)
REMARK    1  A    between atoms: C_1  and  C_2
REMARK    2  A    between atoms: C_4  and  C_15
REMARK    3  A    between atoms: C_5  and  C_14
REMARK    4  A    between atoms: N_6  and  C_7
REMARK    5  A    between atoms: N_21  and  C_24
REMARK    6  A    between atoms: C_27  and  C_30
REMARK    7  A    between atoms: C_30  and  C_31
REMARK    8  A    between atoms: C_30  and  C_32
REMARK                            x       y       z     vdW  Elec       q    Type
REMARK                         _______ _______ _______ _____ _____    ______ ____
ROOT
ATOM      1  C   UNL     1      -0.964  -3.416  -1.536  0.00  0.00    +0.028 C 
ATOM      2  C   UNL     1      -0.566  -3.276  -2.860  0.00  0.00    +0.102 C 
ATOM      3  C   UNL     1      -0.090  -4.425  -3.643  0.00  0.00    +0.274 C 
ATOM      4  O   UNL     1      -0.026  -5.657  -3.095  0.00  0.00    -0.268 OA
ATOM      5  N   UNL     1       0.274  -4.225  -4.899  0.00  0.00    -0.153 NA
ATOM      6  C   UNL     1       0.221  -3.023  -5.466  0.00  0.00    +0.171 C 
ATOM      7  N   UNL     1      -0.198  -1.919  -4.829  0.00  0.00    -0.216 N 
ATOM      8  C   UNL     1      -0.608  -1.970  -3.543  0.00  0.00    +0.262 C 
ATOM      9  O   UNL     1      -0.995  -0.971  -2.967  0.00  0.00    -0.269 OA
ATOM     10  S   UNL     1       0.717  -2.876  -7.098  0.00  0.00    -0.016 S 
ENDROOT
BRANCH   1  14
ATOM     11  C   UNL     1      -0.553   1.129   0.623  0.00  0.00    +0.064 C 
ATOM     12  C   UNL     1      -1.034  -0.238   0.206  0.00  0.00    +0.022 A 
ATOM     13  C   UNL     1      -0.398  -1.058  -0.645  0.00  0.00    +0.031 A 
ATOM     14  C   UNL     1      -1.227  -2.269  -0.753  0.00  0.00    -0.003 A 
ATOM     15  C   UNL     1      -2.321  -2.053   0.074  0.00  0.00    +0.028 A 
ATOM     16  N   UNL     1      -2.183  -0.839   0.640  0.00  0.00    -0.317 N 
ATOM     17  C   UNL     1      -3.461  -3.012   0.302  0.00  0.00    +0.064 C 
BRANCH  16  18
ATOM     18  C   UNL     1      -3.092  -0.270   1.543  0.00  0.00    +0.047 A 
ATOM     19  C   UNL     1      -3.283  -0.845   2.792  0.00  0.00    +0.029 A 
ATOM     20  C   UNL     1      -4.178  -0.283   3.681  0.00  0.00    +0.040 A 
ATOM     21  C   UNL     1      -4.885   0.854   3.327  0.00  0.00    +0.124 A 
ATOM     22  C   UNL     1      -4.697   1.429   2.081  0.00  0.00    +0.040 A 
ATOM     23  C   UNL     1      -3.798   0.872   1.192  0.00  0.00    +0.029 A 
ATOM     24  F   UNL     1      -5.761   1.402   4.197  0.00  0.00    -0.205 F 
ENDBRANCH  16  18
ENDBRANCH   1  14
BRANCH   7  25
ATOM     25  C   UNL     1      -0.217  -0.696  -5.511  0.00  0.00    +0.043 A 
ATOM     26  C   UNL     1       0.904   0.123  -5.502  0.00  0.00    +0.024 A 
ATOM     27  C   UNL     1       0.882   1.329  -6.175  0.00  0.00    +0.006 A 
ATOM     28  C   UNL     1      -0.255   1.721  -6.857  0.00  0.00    -0.045 A 
ATOM     29  C   UNL     1      -1.373   0.908  -6.868  0.00  0.00    +0.006 A 
ATOM     30  C   UNL     1      -1.356  -0.302  -6.201  0.00  0.00    +0.024 A 
BRANCH  28  31
ATOM     31  C   UNL     1      -0.275   3.037  -7.591  0.00  0.00    +0.013 C 
ATOM     32  C   UNL     1      -0.538   2.788  -9.078  0.00  0.00    +0.012 C 
ATOM     33  C   UNL     1      -1.384   3.923  -7.018  0.00  0.00    +0.012 C 
ENDBRANCH  28  31
ENDBRANCH   7  25
TORSDOF 4
