REMARK  Name = ZINC11737103
REMARK  7 active torsions:
REMARK  status: ('A' for Active; 'I' for Inactive)
REMARK    1  A    between atoms: C_1  and  C_2
REMARK    2  A    between atoms: C_4  and  C_20
REMARK    3  A    between atoms: C_5  and  S_9
REMARK    4  A    between atoms: C_7  and  C_8
REMARK    5  A    between atoms: S_9  and  O_12
REMARK    6  A    between atoms: O_12  and  C_13
REMARK    7  A    between atoms: C_18  and  N_19
REMARK                            x       y       z     vdW  Elec       q    Type
REMARK                         _______ _______ _______ _____ _____    ______ ____
ROOT
ATOM      1  S   UNL     1      -0.017   1.417   0.010  0.00  0.00    +0.151 S 
ATOM      2  O   UNL     1       0.002  -0.004   0.002  0.00  0.00    -0.131 OA
ATOM      3  O   UNL     1       1.172   2.195   0.003  0.00  0.00    -0.131 OA
ENDROOT
BRANCH   1   8
ATOM      4  C   UNL     1      -3.132   3.073   4.905  0.00  0.00    +0.044 C 
ATOM      5  C   UNL     1      -2.354   2.660   3.682  0.00  0.00    -0.047 A 
ATOM      6  C   UNL     1      -0.973   2.602   3.728  0.00  0.00    +0.009 A 
ATOM      7  C   UNL     1      -0.260   2.223   2.607  0.00  0.00    -0.022 A 
ATOM      8  C   UNL     1      -0.927   1.900   1.439  0.00  0.00    +0.131 A 
ATOM      9  C   UNL     1      -2.307   1.962   1.392  0.00  0.00    +0.034 A 
ATOM     10  C   UNL     1      -3.021   2.337   2.515  0.00  0.00    -0.046 A 
ATOM     11  C   UNL     1      -4.526   2.399   2.466  0.00  0.00    +0.044 C 
ATOM     12  C   UNL     1       1.245   2.161   2.656  0.00  0.00    +0.046 C 
ENDBRANCH   1   8
BRANCH   1  13
ATOM     13  O   UNL     1      -0.826   1.847  -1.205  0.00  0.00    -0.340 OA
BRANCH  13  14
ATOM     14  C   UNL     1      -0.783   3.184  -1.453  0.00  0.00    +0.177 A 
ATOM     15  C   UNL     1      -1.726   4.026  -0.887  0.00  0.00    +0.050 A 
ATOM     16  C   UNL     1      -1.679   5.385  -1.135  0.00  0.00    +0.004 A 
ATOM     17  C   UNL     1      -0.697   5.907  -1.957  0.00  0.00    +0.002 A 
ATOM     18  C   UNL     1       0.245   5.074  -2.530  0.00  0.00    +0.026 A 
ATOM     19  C   UNL     1       0.206   3.709  -2.281  0.00  0.00    +0.070 A 
BRANCH  19  20
ATOM     20  N   UNL     1       1.158   2.863  -2.861  0.00  0.00    -0.355 N 
ATOM     21  H   UNL     1       1.130   1.909  -2.686  0.00  0.00    +0.142 HD
ATOM     22  H   UNL     1       1.846   3.230  -3.438  0.00  0.00    +0.142 HD
ENDBRANCH  19  20
ENDBRANCH  13  14
ENDBRANCH   1  13
TORSDOF 4
