REMARK  Name = ZINC67251165
REMARK  7 active torsions:
REMARK  status: ('A' for Active; 'I' for Inactive)
REMARK    1  A    between atoms: C_1  and  C_2
REMARK    2  A    between atoms: C_2  and  C_4
REMARK    3  A    between atoms: C_2  and  N_12
REMARK    4  A    between atoms: N_12  and  C_13
REMARK    5  A    between atoms: C_13  and  C_14
REMARK    6  A    between atoms: C_18  and  O_20
REMARK    7  A    between atoms: O_20  and  C_21
REMARK                            x       y       z     vdW  Elec       q    Type
REMARK                         _______ _______ _______ _____ _____    ______ ____
ROOT
ATOM      1  N   UNL     1      -1.376  -0.512   0.012  0.00  0.00    +0.386 N 
ATOM      2  H   UNL     1      -1.888  -0.113  -0.760  0.00  0.00    -0.085 HD
ATOM      3  H   UNL     1      -1.364  -1.518  -0.076  0.00  0.00    -0.085 HD
ENDROOT
BRANCH   1   5
ATOM      4  C   UNL     1      -0.019   1.526   0.010  0.00  0.00    -0.009 C 
ATOM      5  C   UNL     1       0.002  -0.004   0.002  0.00  0.00    -0.044 C 
BRANCH   5   6
ATOM      6  C   UNL     1       0.707  -0.490  -1.238  0.00  0.00    -0.060 A 
ATOM      7  C   UNL     1       0.037  -0.521  -2.447  0.00  0.00    +0.005 A 
ATOM      8  C   UNL     1       0.682  -0.966  -3.585  0.00  0.00    +0.040 A 
ATOM      9  C   UNL     1       2.001  -1.381  -3.515  0.00  0.00    +0.142 A 
ATOM     10  C   UNL     1       2.673  -1.350  -2.303  0.00  0.00    +0.076 A 
ATOM     11  C   UNL     1       2.026  -0.899  -1.167  0.00  0.00    +0.025 A 
ATOM     12 CL   UNL     1       4.327  -1.869  -2.213  0.00  0.00    -0.081 Cl
ATOM     13  F   UNL     1       2.633  -1.817  -4.627  0.00  0.00    -0.204 F 
ENDBRANCH   5   6
ENDBRANCH   1   5
BRANCH   1  14
ATOM     14  C   UNL     1      -2.026  -0.140   1.276  0.00  0.00    -0.046 C 
BRANCH  14  15
ATOM     15  C   UNL     1      -3.440  -0.661   1.287  0.00  0.00    -0.057 A 
ATOM     16  C   UNL     1      -4.466   0.119   0.789  0.00  0.00    +0.051 A 
ATOM     17  C   UNL     1      -5.770  -0.357   0.796  0.00  0.00    +0.166 A 
ATOM     18  C   UNL     1      -6.042  -1.620   1.303  0.00  0.00    +0.204 A 
ATOM     19  C   UNL     1      -5.006  -2.402   1.804  0.00  0.00    +0.165 A 
ATOM     20  C   UNL     1      -3.706  -1.921   1.789  0.00  0.00    +0.051 A 
ATOM     21  O   UNL     1      -7.313  -2.109   1.312  0.00  0.00    -0.482 OA
ATOM     22  C   UNL     1      -8.370  -1.157   1.147  0.00  0.00    +0.270 C 
ATOM     23  C   UNL     1      -8.001  -0.227  -0.016  0.00  0.00    +0.270 C 
ATOM     24  O   UNL     1      -6.769   0.427   0.306  0.00  0.00    -0.485 OA
BRANCH  19  25
ATOM     25  O   UNL     1      -5.269  -3.639   2.303  0.00  0.00    -0.491 OA
ATOM     26  C   UNL     1      -4.157  -4.387   2.801  0.00  0.00    +0.277 C 
ENDBRANCH  19  25
ENDBRANCH  14  15
ENDBRANCH   1  14
TORSDOF 5
