REMARK  Name = ZINC65330194
REMARK  5 active torsions:
REMARK  status: ('A' for Active; 'I' for Inactive)
REMARK    1  A    between atoms: C_7  and  C_10
REMARK    2  A    between atoms: C_10  and  C_11
REMARK    3  A    between atoms: C_11  and  N_12
REMARK    4  A    between atoms: C_13  and  C_15
REMARK    5  A    between atoms: C_17  and  N_22
REMARK                            x       y       z     vdW  Elec       q    Type
REMARK                         _______ _______ _______ _____ _____    ______ ____
ROOT
ATOM      1  C   UNL     1      -1.752  -6.560  -2.623  0.00  0.00    +0.187 C 
ATOM      2  C   UNL     1      -0.968  -7.826  -2.206  0.00  0.00    +0.176 C 
ATOM      3  S   UNL     1      -1.349  -8.968  -3.602  0.00  0.00    -0.041 S 
ATOM      4  N   UNL     1      -2.759  -8.070  -4.263  0.00  0.00    -0.198 NA
ATOM      5  N   UNL     1      -2.355  -6.687  -3.953  0.00  0.00    -0.232 NA
ATOM      6  H   UNL     1      -3.607  -8.319  -3.776  0.00  0.00    +0.154 HD
ATOM      7  H   UNL     1      -3.132  -6.053  -4.060  0.00  0.00    +0.142 HD
ENDROOT
BRANCH   2   8
ATOM      8  N   UNL     1       0.469  -7.551  -2.128  0.00  0.00    -0.284 N 
ATOM      9  C   UNL     1       1.185  -7.998  -1.077  0.00  0.00    +0.303 C 
ATOM     10  O   UNL     1       0.623  -8.549  -0.149  0.00  0.00    -0.253 OA
ATOM     11  N   UNL     1       2.522  -7.835  -1.054  0.00  0.00    -0.286 N 
ATOM     12  C   UNL     1       3.329  -8.418   0.027  0.00  0.00    +0.109 C 
ATOM     13  C   UNL     1       4.442  -9.269  -0.592  0.00  0.00    +0.019 C 
ATOM     14  C   UNL     1       5.240  -8.416  -1.581  0.00  0.00    +0.003 C 
ATOM     15  C   UNL     1       4.317  -7.937  -2.704  0.00  0.00    +0.019 C 
ATOM     16  C   UNL     1       3.202  -7.077  -2.112  0.00  0.00    +0.109 C 
ATOM     17  H   UNL     1       0.906  -7.048  -2.833  0.00  0.00    +0.151 HD
ENDBRANCH   2   8
BRANCH   1  19
ATOM     18  N   UNL     1      -0.461  -4.799  -1.461  0.00  0.00    -0.314 N 
ATOM     19  C   UNL     1      -0.813  -5.382  -2.624  0.00  0.00    +0.234 C 
ATOM     20  O   UNL     1      -0.372  -4.958  -3.672  0.00  0.00    -0.274 OA
ATOM     21  H   UNL     1      -0.814  -5.138  -0.623  0.00  0.00    +0.149 HD
BRANCH  18  22
ATOM     22  C   UNL     1       0.452  -3.654  -1.462  0.00  0.00    +0.108 C 
BRANCH  22  23
ATOM     23  C   UNL     1       0.685  -3.186  -0.024  0.00  0.00    +0.052 C 
BRANCH  23  30
ATOM     24  C   UNL     1      -0.026   1.347   0.010  0.00  0.00    +0.001 A 
ATOM     25  C   UNL     1       1.155   2.101   0.003  0.00  0.00    +0.002 A 
ATOM     26  C   UNL     1       2.381   1.536  -0.011  0.00  0.00    +0.026 A 
ATOM     27  C   UNL     1       2.520   0.121  -0.020  0.00  0.00    +0.043 A 
ATOM     28  N   UNL     1       3.579  -0.652  -0.035  0.00  0.00    -0.380 N 
ATOM     29  C   UNL     1       3.136  -2.051  -0.039  0.00  0.00    +0.144 C 
ATOM     30  C   UNL     1       1.625  -2.008  -0.025  0.00  0.00    -0.040 C 
ATOM     31  C   UNL     1       1.287  -0.699  -0.013  0.00  0.00    -0.001 A 
ATOM     32  C   UNL     1      -0.007  -0.005   0.002  0.00  0.00    +0.010 A 
ATOM     33  H   UNL     1       4.500  -0.349  -0.042  0.00  0.00    +0.160 HD
ENDBRANCH  23  30
ENDBRANCH  22  23
ENDBRANCH  18  22
ENDBRANCH   1  19
TORSDOF 5
