REMARK  Name = ZINC40033552
REMARK  8 active torsions:
REMARK  status: ('A' for Active; 'I' for Inactive)
REMARK    1  A    between atoms: C_1  and  C_2
REMARK    2  A    between atoms: C_2  and  N_3
REMARK    3  A    between atoms: N_3  and  C_4
REMARK    4  A    between atoms: N_3  and  C_20
REMARK    5  A    between atoms: C_4  and  C_5
REMARK    6  A    between atoms: C_21  and  N_36
REMARK    7  A    between atoms: N_22  and  C_29
REMARK    8  A    between atoms: C_29  and  C_30
REMARK                            x       y       z     vdW  Elec       q    Type
REMARK                         _______ _______ _______ _____ _____    ______ ____
ROOT
ATOM      1  N   UNL     1       0.462  -0.356  -1.031  0.00  0.00    -0.316 N 
ENDROOT
BRANCH   1   2
ATOM      2  C   UNL     1      -0.186  -0.504  -2.279  0.00  0.00    +0.134 A 
ATOM      3  C   UNL     1       0.312   0.107  -3.397  0.00  0.00    +0.127 A 
ATOM      4  N   UNL     1      -0.338  -0.053  -4.600  0.00  0.00    -0.276 N 
ATOM      5  C   UNL     1      -1.452  -0.803  -4.677  0.00  0.00    +0.331 A 
ATOM      6  O   UNL     1      -2.013  -0.934  -5.749  0.00  0.00    -0.246 OA
ATOM      7  N   UNL     1      -1.955  -1.411  -3.588  0.00  0.00    -0.273 N 
ATOM      8  H   UNL     1      -2.760  -1.948  -3.666  0.00  0.00    +0.173 HD
ATOM      9  C   UNL     1      -1.349  -1.287  -2.391  0.00  0.00    +0.277 A 
ATOM     10  O   UNL     1      -1.809  -1.847  -1.409  0.00  0.00    -0.266 OA
BRANCH   3  11
ATOM     11  N   UNL     1       1.451   0.875  -3.320  0.00  0.00    -0.343 N 
ATOM     12  H   UNL     1       1.914   0.973  -2.473  0.00  0.00    +0.144 HD
ATOM     13  H   UNL     1       1.792   1.319  -4.113  0.00  0.00    +0.144 HD
ENDBRANCH   3  11
BRANCH   4  14
ATOM     14  C   UNL     1       0.187   0.598  -5.804  0.00  0.00    +0.163 C 
BRANCH  14  15
ATOM     15  C   UNL     1       1.159  -0.326  -6.491  0.00  0.00    -0.028 A 
ATOM     16  C   UNL     1       2.500  -0.289  -6.160  0.00  0.00    +0.005 A 
ATOM     17  C   UNL     1       3.392  -1.136  -6.791  0.00  0.00    +0.000 A 
ATOM     18  C   UNL     1       2.942  -2.022  -7.753  0.00  0.00    +0.000 A 
ATOM     19  C   UNL     1       1.600  -2.060  -8.083  0.00  0.00    +0.000 A 
ATOM     20  C   UNL     1       0.708  -1.215  -7.449  0.00  0.00    +0.005 A 
ENDBRANCH  14  15
ENDBRANCH   4  14
ENDBRANCH   1   2
BRANCH   1  22
ATOM     21  C   UNL     1       0.188   1.803   0.084  0.00  0.00    +0.024 C 
ATOM     22  C   UNL     1      -0.218   0.328   0.071  0.00  0.00    +0.102 C 
ENDBRANCH   1  22
BRANCH   1  23
ATOM     23  C   UNL     1       1.814  -0.887  -0.840  0.00  0.00    +0.179 C 
BRANCH  23  24
ATOM     24  C   UNL     1       1.733  -2.257  -0.219  0.00  0.00    +0.128 A 
ATOM     25  N   UNL     1       2.880  -2.929   0.049  0.00  0.00    -0.307 N 
ATOM     26  H   UNL     1       3.736  -2.523  -0.160  0.00  0.00    +0.170 HD
ATOM     27  C   UNL     1       2.840  -4.158   0.607  0.00  0.00    +0.295 A 
ATOM     28  O   UNL     1       3.869  -4.766   0.851  0.00  0.00    -0.264 OA
ATOM     29  C   UNL     1       1.579  -4.724   0.901  0.00  0.00    +0.218 A 
ATOM     30  C   UNL     1       0.441  -3.982   0.601  0.00  0.00    +0.124 A 
ATOM     31  N   UNL     1       0.562  -2.762   0.052  0.00  0.00    -0.228 NA
ATOM     32  C   UNL     1      -0.699  -4.814   1.012  0.00  0.00    +0.046 A 
ATOM     33  C   UNL     1      -2.082  -4.650   0.980  0.00  0.00    +0.014 A 
ATOM     34  C   UNL     1      -2.900  -5.650   1.457  0.00  0.00    +0.001 A 
ATOM     35  C   UNL     1      -2.350  -6.817   1.968  0.00  0.00    +0.004 A 
ATOM     36  C   UNL     1      -0.984  -6.992   2.006  0.00  0.00    +0.047 A 
ATOM     37  C   UNL     1      -0.141  -5.995   1.529  0.00  0.00    +0.138 A 
ATOM     38  O   UNL     1       1.203  -5.900   1.445  0.00  0.00    -0.448 OA
ENDBRANCH  23  24
ENDBRANCH   1  23
TORSDOF 7
