REMARK  Name = ZINC67610020
REMARK  12 active torsions:
REMARK  status: ('A' for Active; 'I' for Inactive)
REMARK    1  A    between atoms: C_1  and  C_2
REMARK    2  A    between atoms: C_5  and  O_27
REMARK    3  A    between atoms: C_6  and  C_8
REMARK    4  A    between atoms: C_8  and  C_10
REMARK    5  A    between atoms: C_8  and  N_11
REMARK    6  A    between atoms: N_14  and  C_15
REMARK    7  A    between atoms: C_15  and  C_16
REMARK    8  A    between atoms: C_16  and  C_18
REMARK    9  A    between atoms: C_16  and  O_26
REMARK   10  A    between atoms: C_18  and  N_19
REMARK   11  A    between atoms: C_22  and  C_25
REMARK   12  A    between atoms: O_27  and  C_28
REMARK                            x       y       z     vdW  Elec       q    Type
REMARK                         _______ _______ _______ _____ _____    ______ ____
ROOT
ATOM      1  N   UNL     1       1.400  -1.854   3.146  0.00  0.00    -0.293 N 
ATOM      2  C   UNL     1       1.950  -2.442   4.227  0.00  0.00    +0.300 C 
ATOM      3  O   UNL     1       2.135  -3.644   4.237  0.00  0.00    -0.253 OA
ATOM      4  N   UNL     1       2.294  -1.698   5.296  0.00  0.00    -0.297 N 
ATOM      5  H   UNL     1       1.252  -0.895   3.138  0.00  0.00    +0.151 HD
ATOM      6  H   UNL     1       2.147  -0.739   5.288  0.00  0.00    +0.150 HD
ENDROOT
BRANCH   1   7
ATOM      7  C   UNL     1       1.026  -2.663   1.983  0.00  0.00    +0.105 C 
ATOM      8  C   UNL     1      -0.413  -3.158   2.148  0.00  0.00    +0.033 C 
BRANCH   7  14
ATOM      9  C   UNL     1       0.877   1.807  -0.260  0.00  0.00    +0.044 C 
ATOM     10  C   UNL     1       1.057   0.313  -0.340  0.00  0.00    -0.050 A 
ATOM     11  C   UNL     1       1.317  -0.287  -1.559  0.00  0.00    +0.007 A 
ATOM     12  C   UNL     1       1.482  -1.656  -1.635  0.00  0.00    +0.046 A 
ATOM     13  C   UNL     1       1.389  -2.430  -0.487  0.00  0.00    +0.125 A 
ATOM     14  C   UNL     1       1.128  -1.826   0.735  0.00  0.00    +0.014 A 
ATOM     15  C   UNL     1       0.969  -0.455   0.806  0.00  0.00    +0.012 A 
BRANCH  13  16
ATOM     16  O   UNL     1       1.550  -3.777  -0.559  0.00  0.00    -0.495 OA
ATOM     17  C   UNL     1       1.815  -4.330  -1.850  0.00  0.00    +0.277 C 
ENDBRANCH  13  16
ENDBRANCH   7  14
ENDBRANCH   1   7
BRANCH   4  18
ATOM     18  C   UNL     1       2.892  -2.337   6.472  0.00  0.00    +0.135 C 
BRANCH  18  19
ATOM     19  C   UNL     1       3.186  -1.276   7.535  0.00  0.00    +0.115 C 
BRANCH  19  20
ATOM     20  O   UNL     1       4.095  -0.310   7.004  0.00  0.00    -0.392 OA
ATOM     21  H   UNL     1       4.944  -0.679   6.727  0.00  0.00    +0.210 HD
ENDBRANCH  19  20
BRANCH  19  22
ATOM     22  C   UNL     1       3.810  -1.944   8.762  0.00  0.00    -0.046 C 
BRANCH  22  23
ATOM     23  N   UNL     1       4.078  -0.927   9.788  0.00  0.00    +0.381 N 
ATOM     24  C   UNL     1       4.813  -1.541  10.901  0.00  0.00    -0.078 C 
ATOM     25  C   UNL     1       5.166  -0.470  11.936  0.00  0.00    -0.016 C 
ATOM     26  C   UNL     1       3.878   0.168  12.463  0.00  0.00    -0.018 C 
ATOM     27  C   UNL     1       3.083   0.739  11.284  0.00  0.00    -0.016 C 
ATOM     28  C   UNL     1       2.807  -0.377  10.274  0.00  0.00    -0.078 C 
ATOM     29  C   UNL     1       4.226   1.294  13.438  0.00  0.00    +0.007 C 
ATOM     30  H   UNL     1       4.634  -0.186   9.389  0.00  0.00    -0.082 HD
ENDBRANCH  22  23
ENDBRANCH  19  22
ENDBRANCH  18  19
ENDBRANCH   4  18
TORSDOF 8
