REMARK  Name = ZINC45266558
REMARK  9 active torsions:
REMARK  status: ('A' for Active; 'I' for Inactive)
REMARK    1  A    between atoms: C_1  and  C_2
REMARK    2  A    between atoms: C_8  and  N_10
REMARK    3  A    between atoms: C_14  and  C_16
REMARK    4  A    between atoms: C_16  and  O_17
REMARK    5  A    between atoms: O_17  and  C_18
REMARK    6  A    between atoms: C_18  and  C_20
REMARK    7  A    between atoms: C_23  and  S_26
REMARK    8  A    between atoms: S_26  and  N_29
REMARK    9  A    between atoms: C_34  and  C_36
REMARK                            x       y       z     vdW  Elec       q    Type
REMARK                         _______ _______ _______ _____ _____    ______ ____
ROOT
ATOM      1  C   UNL     1       0.305   1.928   9.408  0.00  0.00    +0.340 C 
ATOM      2  O   UNL     1      -0.853   2.254   9.575  0.00  0.00    -0.245 OA
ENDROOT
BRANCH   1   3
ATOM      3  C   UNL     1       1.248   1.939  10.545  0.00  0.00    +0.059 A 
ATOM      4  C   UNL     1       2.581   1.570  10.354  0.00  0.00    +0.017 A 
ATOM      5  C   UNL     1       3.456   1.583  11.421  0.00  0.00    +0.029 A 
ATOM      6  C   UNL     1       3.015   1.961  12.677  0.00  0.00    +0.106 A 
ATOM      7  C   UNL     1       1.696   2.328  12.872  0.00  0.00    +0.029 A 
ATOM      8  C   UNL     1       0.811   2.325  11.814  0.00  0.00    +0.017 A 
BRANCH   6   9
ATOM      9  S   UNL     1       4.140   1.975  14.033  0.00  0.00    +0.061 S 
ATOM     10  O   UNL     1       3.357   1.841  15.211  0.00  0.00    -0.153 OA
ATOM     11  O   UNL     1       5.183   1.067  13.705  0.00  0.00    -0.153 OA
BRANCH   9  12
ATOM     12  N   UNL     1       4.823   3.482  14.088  0.00  0.00    -0.174 NA
ATOM     13  C   UNL     1       6.125   3.737  13.456  0.00  0.00    +0.110 C 
ATOM     14  C   UNL     1       7.061   4.365  14.492  0.00  0.00    +0.017 C 
ATOM     15  C   UNL     1       6.397   5.609  15.088  0.00  0.00    +0.003 C 
ATOM     16  C   UNL     1       5.098   5.208  15.790  0.00  0.00    +0.020 C 
ATOM     17  C   UNL     1       4.136   4.591  14.763  0.00  0.00    +0.077 C 
ATOM     18  C   UNL     1       2.890   4.064  15.477  0.00  0.00    +0.026 C 
ENDBRANCH   9  12
ENDBRANCH   6   9
ENDBRANCH   1   3
BRANCH   1  19
ATOM     19  O   UNL     1       0.730   1.555   8.184  0.00  0.00    -0.452 OA
BRANCH  19  20
ATOM     20  C   UNL     1      -0.236   1.567   7.131  0.00  0.00    +0.328 C 
BRANCH  20  25
ATOM     21  N   UNL     1      -0.448   0.595   2.428  0.00  0.00    -0.296 N 
ATOM     22  C   UNL     1       0.276   0.661   3.563  0.00  0.00    +0.306 C 
ATOM     23  O   UNL     1       1.454   0.363   3.551  0.00  0.00    -0.252 OA
ATOM     24  N   UNL     1      -0.307   1.058   4.712  0.00  0.00    -0.237 N 
ATOM     25  C   UNL     1       0.416   1.124   5.847  0.00  0.00    +0.258 C 
ATOM     26  O   UNL     1       1.591   0.827   5.835  0.00  0.00    -0.272 OA
ATOM     27  H   UNL     1      -1.388   0.833   2.437  0.00  0.00    +0.151 HD
ATOM     28  H   UNL     1      -1.248   1.295   4.721  0.00  0.00    +0.159 HD
BRANCH  21  35
ATOM     29  C   UNL     1      -0.573   2.268   0.067  0.00  0.00    +0.009 C 
ATOM     30  C   UNL     1      -0.585   0.741  -0.010  0.00  0.00    +0.006 C 
ATOM     31  C   UNL     1      -2.030   0.239   0.028  0.00  0.00    +0.005 C 
ATOM     32  C   UNL     1      -2.042  -1.289  -0.049  0.00  0.00    +0.000 C 
ATOM     33  C   UNL     1      -1.270  -1.865   1.140  0.00  0.00    +0.002 C 
ATOM     34  C   UNL     1       0.175  -1.364   1.102  0.00  0.00    +0.022 C 
ATOM     35  C   UNL     1       0.186   0.164   1.179  0.00  0.00    +0.077 C 
ENDBRANCH  21  35
ENDBRANCH  20  25
ENDBRANCH  19  20
ENDBRANCH   1  19
TORSDOF 7
