REMARK  Name = ZINC05018330
REMARK  7 active torsions:
REMARK  status: ('A' for Active; 'I' for Inactive)
REMARK    1  A    between atoms: C_1  and  O_2
REMARK    2  A    between atoms: O_2  and  C_3
REMARK    3  A    between atoms: C_3  and  C_5
REMARK    4  A    between atoms: C_6  and  C_20
REMARK    5  A    between atoms: C_11  and  C_13
REMARK    6  A    between atoms: C_20  and  S_21
REMARK    7  A    between atoms: S_21  and  C_22
REMARK                            x       y       z     vdW  Elec       q    Type
REMARK                         _______ _______ _______ _____ _____    ______ ____
ROOT
ATOM      1  C   UNL     1       0.007   0.026   0.069  0.00  0.00    +0.079 C 
ATOM      2  C   UNL     1       1.161  -0.635  -0.170  0.00  0.00    +0.034 C 
ATOM      3  N   UNL     1       1.188  -1.998  -0.254  0.00  0.00    -0.272 N 
ATOM      4  C   UNL     1       0.104  -2.772  -0.122  0.00  0.00    +0.304 C 
ATOM      5  O   UNL     1       0.227  -3.977  -0.217  0.00  0.00    -0.252 OA
ATOM      6  N   UNL     1      -1.120  -2.258   0.114  0.00  0.00    -0.288 N 
ATOM      7  C   UNL     1      -1.256  -0.796   0.227  0.00  0.00    +0.145 C 
ATOM      8  H   UNL     1       2.041  -2.429  -0.422  0.00  0.00    +0.156 HD
ATOM      9  H   UNL     1      -1.892  -2.837   0.206  0.00  0.00    +0.151 HD
ENDROOT
BRANCH   7  10
ATOM     10  C   UNL     1      -1.844  -0.488   1.580  0.00  0.00    -0.004 A 
ATOM     11  C   UNL     1      -1.505  -1.263   2.674  0.00  0.00    +0.007 A 
ATOM     12  C   UNL     1      -2.043  -0.980   3.915  0.00  0.00    +0.000 A 
ATOM     13  C   UNL     1      -2.922   0.077   4.064  0.00  0.00    +0.001 A 
ATOM     14  C   UNL     1      -3.262   0.852   2.971  0.00  0.00    +0.020 A 
ATOM     15  C   UNL     1      -2.718   0.573   1.729  0.00  0.00    +0.046 A 
ATOM     16 CL   UNL     1      -3.139   1.551   0.358  0.00  0.00    -0.083 Cl
ENDBRANCH   7  10
BRANCH   1  17
ATOM     17  C   UNL     1      -0.022   1.437   0.162  0.00  0.00    +0.339 C 
ATOM     18  O   UNL     1      -0.389   2.102  -0.789  0.00  0.00    -0.245 OA
BRANCH  17  20
ATOM     19  C   UNL     1       0.298   3.473   1.330  0.00  0.00    +0.280 C 
ATOM     20  O   UNL     1       0.352   2.046   1.306  0.00  0.00    -0.465 OA
ENDBRANCH  17  20
ENDBRANCH   1  17
BRANCH   2  21
ATOM     21  C   UNL     1       2.439   0.144  -0.340  0.00  0.00    +0.127 C 
BRANCH  21  22
ATOM     22  S   UNL     1       3.447  -0.010   1.160  0.00  0.00    -0.091 S 
BRANCH  22  23
ATOM     23  C   UNL     1       4.886   0.942   0.807  0.00  0.00    +0.160 A 
ATOM     24  N   UNL     1       5.193   1.622  -0.281  0.00  0.00    -0.133 NA
ATOM     25  N   UNL     1       6.385   2.305  -0.347  0.00  0.00    -0.125 NA
ATOM     26  C   UNL     1       7.216   2.278   0.676  0.00  0.00    +0.180 A 
ATOM     27  S   UNL     1       6.317   1.252   1.831  0.00  0.00    -0.025 S 
ATOM     28  N   UNL     1       8.456   2.888   0.821  0.00  0.00    -0.336 N 
ATOM     29  H   UNL     1       8.819   3.426   0.100  0.00  0.00    +0.144 HD
ATOM     30  H   UNL     1       8.959   2.776   1.643  0.00  0.00    +0.144 HD
ENDBRANCH  22  23
ENDBRANCH  21  22
ENDBRANCH   2  21
TORSDOF 6
