REMARK  Name = ZINC40807462
REMARK  9 active torsions:
REMARK  status: ('A' for Active; 'I' for Inactive)
REMARK    1  A    between atoms: C_1  and  C_2
REMARK    2  A    between atoms: C_2  and  C_4
REMARK    3  A    between atoms: C_2  and  N_12
REMARK    4  A    between atoms: C_13  and  C_15
REMARK    5  A    between atoms: C_15  and  C_17
REMARK    6  A    between atoms: C_15  and  N_23
REMARK    7  A    between atoms: C_17  and  C_18
REMARK    8  A    between atoms: C_18  and  S_19
REMARK    9  A    between atoms: S_19  and  C_22
REMARK                            x       y       z     vdW  Elec       q    Type
REMARK                         _______ _______ _______ _____ _____    ______ ____
ROOT
ATOM      1  N   UNL     1      -1.372  -0.511   0.012  0.00  0.00    -0.310 N 
ATOM      2  C   UNL     1      -2.051  -0.643  -1.145  0.00  0.00    +0.199 C 
ATOM      3  O   UNL     1      -1.524  -0.341  -2.194  0.00  0.00    -0.278 OA
ATOM      4  H   UNL     1      -1.794  -0.752   0.852  0.00  0.00    +0.149 HD
ENDROOT
BRANCH   1   6
ATOM      5  C   UNL     1      -0.019   1.526   0.010  0.00  0.00    +0.033 C 
ATOM      6  C   UNL     1       0.002  -0.004   0.002  0.00  0.00    +0.100 C 
BRANCH   6   7
ATOM      7  C   UNL     1       0.731  -0.503   1.223  0.00  0.00    -0.026 A 
ATOM      8  C   UNL     1       0.080  -0.558   2.442  0.00  0.00    +0.007 A 
ATOM      9  C   UNL     1       0.748  -1.016   3.562  0.00  0.00    +0.022 A 
ATOM     10  C   UNL     1       2.067  -1.419   3.465  0.00  0.00    +0.059 A 
ATOM     11  C   UNL     1       2.719  -1.364   2.244  0.00  0.00    +0.060 A 
ATOM     12  C   UNL     1       2.048  -0.911   1.123  0.00  0.00    +0.027 A 
ATOM     13 CL   UNL     1       4.375  -1.869   2.120  0.00  0.00    -0.082 Cl
ATOM     14 CL   UNL     1       2.906  -1.993   4.872  0.00  0.00    -0.082 Cl
ENDBRANCH   6   7
ENDBRANCH   1   6
BRANCH   2  15
ATOM     15  C   UNL     1      -3.465  -1.164  -1.134  0.00  0.00    +0.014 C 
BRANCH  15  16
ATOM     16  N   UNL     1      -3.813  -1.663  -2.471  0.00  0.00    +0.386 N 
ATOM     17  H   UNL     1      -4.759  -2.012  -2.464  0.00  0.00    -0.089 HD
ATOM     18  H   UNL     1      -3.736  -0.912  -3.141  0.00  0.00    -0.089 HD
ATOM     19  H   UNL     1      -3.182  -2.407  -2.727  0.00  0.00    -0.089 HD
ENDBRANCH  15  16
BRANCH  15  20
ATOM     20  C   UNL     1      -4.422  -0.036  -0.745  0.00  0.00    +0.015 C 
BRANCH  20  21
ATOM     21  C   UNL     1      -5.840  -0.593  -0.613  0.00  0.00    +0.164 C 
BRANCH  21  22
ATOM     22  S   UNL     1      -6.975   0.745  -0.152  0.00  0.00    -0.034 S 
ATOM     23  O   UNL     1      -6.624   1.205   1.146  0.00  0.00    -0.175 OA
ATOM     24  O   UNL     1      -7.031   1.677  -1.224  0.00  0.00    -0.175 OA
ATOM     25  C   UNL     1      -8.575  -0.104  -0.047  0.00  0.00    +0.194 C 
ENDBRANCH  21  22
ENDBRANCH  20  21
ENDBRANCH  15  20
ENDBRANCH   2  15
TORSDOF 7
