REMARK  Name = ZINC10716114
REMARK  6 active torsions:
REMARK  status: ('A' for Active; 'I' for Inactive)
REMARK    1  A    between atoms: C_1  and  C_2
REMARK    2  A    between atoms: C_6  and  N_9
REMARK    3  A    between atoms: C_7  and  C_8
REMARK    4  A    between atoms: C_13  and  C_15
REMARK    5  A    between atoms: C_15  and  S_16
REMARK    6  A    between atoms: S_16  and  C_17
REMARK                            x       y       z     vdW  Elec       q    Type
REMARK                         _______ _______ _______ _____ _____    ______ ____
ROOT
ATOM      1  N   UNL     1       1.471  -2.526   2.420  0.00  0.00    -0.296 N 
ATOM      2  C   UNL     1       2.056  -3.740   2.406  0.00  0.00    +0.306 C 
ATOM      3  O   UNL     1       1.996  -4.432   1.409  0.00  0.00    -0.252 OA
ATOM      4  N   UNL     1       2.708  -4.187   3.498  0.00  0.00    -0.239 N 
ATOM      5  C   UNL     1       3.293  -5.401   3.484  0.00  0.00    +0.231 C 
ATOM      6  O   UNL     1       3.233  -6.091   2.489  0.00  0.00    -0.274 OA
ATOM      7  H   UNL     1       1.520  -1.974   3.216  0.00  0.00    +0.151 HD
ATOM      8  H   UNL     1       2.756  -3.634   4.294  0.00  0.00    +0.159 HD
ENDROOT
BRANCH   1  14
ATOM      9  C   UNL     1      -0.019   1.526   0.010  0.00  0.00    +0.008 C 
ATOM     10  C   UNL     1       0.002  -0.004   0.002  0.00  0.00    -0.009 C 
ATOM     11  C   UNL     1      -1.433  -0.534   0.013  0.00  0.00    +0.003 C 
ATOM     12  C   UNL     1      -1.413  -2.063   0.004  0.00  0.00    +0.002 C 
ATOM     13  C   UNL     1      -0.673  -2.570   1.244  0.00  0.00    +0.022 C 
ATOM     14  C   UNL     1       0.763  -2.041   1.233  0.00  0.00    +0.078 C 
ATOM     15  C   UNL     1       0.742  -0.511   1.242  0.00  0.00    +0.009 C 
ATOM     16  C   UNL     1       0.026  -0.018   2.500  0.00  0.00    +0.009 C 
ENDBRANCH   1  14
BRANCH   5  17
ATOM     17  C   UNL     1       4.022  -5.900   4.705  0.00  0.00    +0.173 C 
BRANCH  17  18
ATOM     18  S   UNL     1       4.694  -7.552   4.375  0.00  0.00    -0.075 S 
BRANCH  18  19
ATOM     19  C   UNL     1       5.505  -7.990   5.876  0.00  0.00    +0.210 A 
ATOM     20  N   UNL     1       6.154  -9.139   6.103  0.00  0.00    -0.188 NA
ATOM     21  H   UNL     1       6.524  -7.683   8.808  0.00  0.00    +0.192 HD
ATOM     22  C   UNL     1       6.641  -9.137   7.326  0.00  0.00    +0.209 A 
ATOM     23  N   UNL     1       6.304  -7.968   7.908  0.00  0.00    -0.246 N 
ATOM     24  N   UNL     1       5.576  -7.242   6.951  0.00  0.00    -0.144 NA
ATOM     25  N   UNL     1       7.369 -10.157   7.912  0.00  0.00    -0.328 N 
ATOM     26  H   UNL     1       7.562 -10.965   7.411  0.00  0.00    +0.145 HD
ATOM     27  H   UNL     1       7.687 -10.064   8.823  0.00  0.00    +0.145 HD
ENDBRANCH  18  19
ENDBRANCH  17  18
ENDBRANCH   5  17
TORSDOF 4
