REMARK  Name = ZINC67487972
REMARK  8 active torsions:
REMARK  status: ('A' for Active; 'I' for Inactive)
REMARK    1  A    between atoms: C_1  and  C_2
REMARK    2  A    between atoms: N_5  and  C_8
REMARK    3  A    between atoms: C_8  and  C_9
REMARK    4  A    between atoms: C_9  and  C_11
REMARK    5  A    between atoms: C_9  and  O_26
REMARK    6  A    between atoms: C_11  and  N_12
REMARK    7  A    between atoms: N_15  and  C_16
REMARK    8  A    between atoms: C_20  and  N_22
REMARK                            x       y       z     vdW  Elec       q    Type
REMARK                         _______ _______ _______ _____ _____    ______ ____
ROOT
ATOM      1  N   UNL     1       0.531  -6.331   4.077  0.00  0.00    -0.297 N 
ATOM      2  C   UNL     1       0.685  -7.641   4.351  0.00  0.00    +0.304 C 
ATOM      3  O   UNL     1       0.333  -8.477   3.542  0.00  0.00    -0.253 OA
ATOM      4  N   UNL     1       1.230  -8.024   5.523  0.00  0.00    -0.269 N 
ATOM      5  H   UNL     1       0.812  -5.663   4.722  0.00  0.00    +0.150 HD
ATOM      6  H   UNL     1       1.572  -7.359   6.140  0.00  0.00    +0.156 HD
ENDROOT
BRANCH   4   7
ATOM      7  C   UNL     1       1.302  -9.384   5.850  0.00  0.00    +0.037 A 
ATOM      8  C   UNL     1       1.141  -9.792   7.168  0.00  0.00    +0.025 A 
ATOM      9  C   UNL     1       1.212 -11.133   7.488  0.00  0.00    +0.024 A 
ATOM     10  C   UNL     1       1.443 -12.071   6.497  0.00  0.00    +0.071 A 
ATOM     11  C   UNL     1       1.604 -11.667   5.183  0.00  0.00    +0.146 A 
ATOM     12  C   UNL     1       1.528 -10.327   4.857  0.00  0.00    +0.057 A 
ATOM     13 CL   UNL     1       1.533 -13.756   6.902  0.00  0.00    -0.081 Cl
BRANCH  11  14
ATOM     14  N   UNL     1       1.851 -12.673   4.125  0.00  0.00    +0.058 N 
ATOM     15  O   UNL     1       1.991 -12.321   2.977  0.00  0.00    -0.126 OA
ATOM     16  O   UNL     1       1.913 -13.846   4.409  0.00  0.00    -0.126 OA
ENDBRANCH  11  14
ENDBRANCH   4   7
BRANCH   1  17
ATOM     17  C   UNL     1      -0.061  -5.914   2.803  0.00  0.00    +0.135 C 
BRANCH  17  18
ATOM     18  C   UNL     1      -0.121  -4.386   2.744  0.00  0.00    +0.115 C 
BRANCH  18  19
ATOM     19  O   UNL     1      -0.921  -3.899   3.824  0.00  0.00    -0.392 OA
ATOM     20  H   UNL     1      -1.833  -4.221   3.814  0.00  0.00    +0.210 HD
ENDBRANCH  18  19
BRANCH  18  21
ATOM     21  C   UNL     1      -0.739  -3.951   1.414  0.00  0.00    -0.046 C 
BRANCH  21  26
ATOM     22  C   UNL     1       0.021   1.518  -0.012  0.00  0.00    +0.007 C 
ATOM     23  C   UNL     1       0.032  -0.012  -0.016  0.00  0.00    -0.018 C 
ATOM     24  C   UNL     1      -1.407  -0.535   0.011  0.00  0.00    -0.016 C 
ATOM     25  C   UNL     1      -1.387  -2.063   0.087  0.00  0.00    -0.078 C 
ATOM     26  N   UNL     1      -0.688  -2.487   1.306  0.00  0.00    +0.381 N 
ATOM     27  C   UNL     1       0.713  -2.051   1.254  0.00  0.00    -0.078 C 
ATOM     28  C   UNL     1       0.774  -0.522   1.223  0.00  0.00    -0.016 C 
ATOM     29  H   UNL     1      -1.137  -2.076   2.111  0.00  0.00    -0.082 HD
ENDBRANCH  21  26
ENDBRANCH  18  21
ENDBRANCH  17  18
ENDBRANCH   1  17
TORSDOF 7
