REMARK  Name = ZINC60039781
REMARK  16 active torsions:
REMARK  status: ('A' for Active; 'I' for Inactive)
REMARK    1  A    between atoms: C_1  and  C_2
REMARK    2  A    between atoms: C_2  and  C_3
REMARK    3  A    between atoms: C_3  and  C_4
REMARK    4  A    between atoms: C_4  and  N_5
REMARK    5  A    between atoms: N_5  and  C_6
REMARK    6  A    between atoms: C_7  and  N_19
REMARK    7  A    between atoms: N_8  and  C_15
REMARK    8  A    between atoms: C_15  and  C_16
REMARK    9  A    between atoms: C_16  and  C_17
REMARK   10  A    between atoms: C_16  and  C_18
REMARK   11  A    between atoms: C_20  and  C_22
REMARK   12  A    between atoms: C_22  and  N_23
REMARK   13  A    between atoms: N_23  and  C_24
REMARK   14  A    between atoms: N_23  and  C_27
REMARK   15  A    between atoms: C_24  and  C_25
REMARK   16  A    between atoms: C_25  and  C_26
REMARK                            x       y       z     vdW  Elec       q    Type
REMARK                         _______ _______ _______ _____ _____    ______ ____
ROOT
ATOM      1  N   UNL     1      -2.538  -2.797   0.101  0.00  0.00    -0.266 N 
ATOM      2  C   UNL     1      -3.033  -3.212   1.286  0.00  0.00    +0.203 C 
ATOM      3  O   UNL     1      -4.006  -3.936   1.317  0.00  0.00    -0.277 OA
ENDROOT
BRANCH   1   4
ATOM      4  C   UNL     1      -3.207  -3.125  -1.097  0.00  0.00    +0.140 A 
ATOM      5  C   UNL     1      -2.630  -3.982  -2.011  0.00  0.00    +0.127 A 
ATOM      6  N   UNL     1      -3.307  -4.284  -3.170  0.00  0.00    -0.280 N 
ATOM      7  C   UNL     1      -4.518  -3.748  -3.410  0.00  0.00    +0.331 A 
ATOM      8  O   UNL     1      -5.100  -4.027  -4.440  0.00  0.00    -0.246 OA
ATOM      9  N   UNL     1      -5.096  -2.912  -2.530  0.00  0.00    -0.273 N 
ATOM     10  H   UNL     1      -5.970  -2.539  -2.726  0.00  0.00    +0.173 HD
ATOM     11  C   UNL     1      -4.478  -2.589  -1.377  0.00  0.00    +0.277 A 
ATOM     12  O   UNL     1      -5.014  -1.833  -0.584  0.00  0.00    -0.266 OA
BRANCH   5  13
ATOM     13  N   UNL     1      -1.393  -4.529  -1.767  0.00  0.00    -0.343 N 
ATOM     14  H   UNL     1      -0.902  -4.279  -0.968  0.00  0.00    +0.144 HD
ATOM     15  H   UNL     1      -1.010  -5.163  -2.393  0.00  0.00    +0.144 HD
ENDBRANCH   5  13
BRANCH   6  16
ATOM     16  C   UNL     1      -2.706  -5.192  -4.149  0.00  0.00    +0.131 C 
BRANCH  16  17
ATOM     17  C   UNL     1      -3.122  -6.630  -3.833  0.00  0.00    +0.003 C 
ATOM     18  C   UNL     1      -2.598  -7.564  -4.926  0.00  0.00    +0.009 C 
ATOM     19  C   UNL     1      -2.536  -7.046  -2.482  0.00  0.00    +0.009 C 
ENDBRANCH  16  17
ENDBRANCH   6  16
ENDBRANCH   1   4
BRANCH   1  20
ATOM     20  C   UNL     1      -1.306  -2.005   0.059  0.00  0.00    +0.114 C 
BRANCH  20  21
ATOM     21  C   UNL     1      -1.657  -0.516   0.046  0.00  0.00    +0.019 C 
BRANCH  21  23
ATOM     22  C   UNL     1      -0.722   1.800  -0.011  0.00  0.00    +0.004 C 
ATOM     23  C   UNL     1      -0.371   0.311   0.002  0.00  0.00    -0.002 C 
ENDBRANCH  21  23
ENDBRANCH  20  21
ENDBRANCH   1  20
BRANCH   2  24
ATOM     24  C   UNL     1      -2.377  -2.777   2.571  0.00  0.00    +0.019 C 
BRANCH  24  25
ATOM     25  N   UNL     1      -3.120  -3.328   3.712  0.00  0.00    +0.388 N 
ATOM     26  H   UNL     1      -3.211  -4.327   3.602  0.00  0.00    -0.081 HD
BRANCH  25  27
ATOM     27  C   UNL     1      -2.395  -3.037   4.955  0.00  0.00    -0.063 C 
ATOM     28  C   UNL     1      -3.095  -3.722   6.134  0.00  0.00    -0.010 C 
ATOM     29  C   UNL     1      -2.468  -3.212   7.430  0.00  0.00    +0.034 C 
ATOM     30  C   UNL     1      -0.968  -3.333   7.377  0.00  0.00    -0.044 A 
ATOM     31  C   UNL     1      -0.271  -3.279   8.577  0.00  0.00    +0.004 A 
ATOM     32  C   UNL     1       1.104  -3.378   8.594  0.00  0.00    +0.000 A 
ATOM     33  C   UNL     1       1.796  -3.533   7.407  0.00  0.00    +0.000 A 
ATOM     34  C   UNL     1       1.106  -3.590   6.215  0.00  0.00    +0.004 A 
ATOM     35  C   UNL     1      -0.279  -3.493   6.195  0.00  0.00    -0.046 A 
ATOM     36  C   UNL     1      -0.970  -3.578   4.859  0.00  0.00    +0.020 C 
ENDBRANCH  25  27
BRANCH  25  37
ATOM     37  C   UNL     1      -4.455  -2.717   3.768  0.00  0.00    -0.078 C 
BRANCH  37  38
ATOM     38  C   UNL     1      -4.316  -1.198   3.877  0.00  0.00    -0.022 C 
ATOM     39  C   UNL     1      -5.696  -0.574   4.093  0.00  0.00    +0.002 C 
ENDBRANCH  37  38
ENDBRANCH  25  37
ENDBRANCH  24  25
ENDBRANCH   2  24
TORSDOF 12
