REMARK  Name = ZINC39006677
REMARK  10 active torsions:
REMARK  status: ('A' for Active; 'I' for Inactive)
REMARK    1  A    between atoms: C_1  and  O_2
REMARK    2  A    between atoms: O_2  and  C_3
REMARK    3  A    between atoms: C_5  and  N_13
REMARK    4  A    between atoms: C_7  and  O_11
REMARK    5  A    between atoms: C_8  and  O_9
REMARK    6  A    between atoms: O_9  and  C_10
REMARK    7  A    between atoms: O_11  and  C_12
REMARK    8  A    between atoms: C_14  and  O_39
REMARK    9  A    between atoms: C_17  and  O_38
REMARK   10  A    between atoms: C_19  and  C_23
REMARK                            x       y       z     vdW  Elec       q    Type
REMARK                         _______ _______ _______ _____ _____    ______ ____
ROOT
ATOM      1  N   UNL     1       2.402   0.233   4.268  0.00  0.00    -0.231 N 
ATOM      2  C   UNL     1       3.043  -0.403   5.413  0.00  0.00    +0.287 C 
ATOM      3  N   UNL     1       4.004   0.512   6.040  0.00  0.00    -0.250 NA
ATOM      4  C   UNL     1       3.364   1.803   6.341  0.00  0.00    +0.200 C 
ATOM      5  C   UNL     1       3.063   2.514   5.018  0.00  0.00    +0.142 C 
ATOM      6  C   UNL     1       2.388   1.556   4.076  0.00  0.00    +0.231 C 
ATOM      7  O   UNL     1       1.806   2.000   3.109  0.00  0.00    -0.275 OA
ATOM      8  H   UNL     1       4.403   0.103   6.872  0.00  0.00    +0.128 HD
ENDROOT
BRANCH   5   9
ATOM      9  C   UNL     1       2.146   3.710   5.279  0.00  0.00    +0.117 C 
ATOM     10  C   UNL     1       2.871   4.731   6.124  0.00  0.00    +0.038 A 
ATOM     11  H   UNL     1       4.780   4.849   5.297  0.00  0.00    +0.166 HD
ATOM     12  C   UNL     1       2.294   5.366   7.169  0.00  0.00    -0.016 A 
ATOM     13  C   UNL     1       3.286   6.257   7.728  0.00  0.00    +0.003 A 
ATOM     14  C   UNL     1       3.263   7.151   8.803  0.00  0.00    +0.010 A 
ATOM     15  C   UNL     1       4.417   7.852   9.053  0.00  0.00    +0.001 A 
ATOM     16  C   UNL     1       5.558   7.690   8.285  0.00  0.00    +0.002 A 
ATOM     17  C   UNL     1       5.609   6.813   7.215  0.00  0.00    +0.026 A 
ATOM     18  C   UNL     1       4.453   6.088   6.937  0.00  0.00    +0.047 A 
ATOM     19  N   UNL     1       4.163   5.159   5.979  0.00  0.00    -0.356 N 
ATOM     20  C   UNL     1       0.870   5.130   7.603  0.00  0.00    +0.052 C 
ATOM     21  C   UNL     1       0.141   4.407   6.462  0.00  0.00    +0.086 C 
ATOM     22  N   UNL     1       0.947   3.264   6.007  0.00  0.00    -0.307 NA
ATOM     23  H   UNL     1       0.397   2.631   5.444  0.00  0.00    +0.123 HD
ENDBRANCH   5   9
BRANCH   1  26
ATOM     24  C   UNL     1      -0.198  -1.696   2.512  0.00  0.00    +0.167 A 
ATOM     25  C   UNL     1       0.425  -0.889   3.450  0.00  0.00    +0.073 A 
ATOM     26  C   UNL     1       1.773  -0.584   3.320  0.00  0.00    +0.047 A 
ATOM     27  C   UNL     1       2.499  -1.089   2.249  0.00  0.00    +0.073 A 
ATOM     28  C   UNL     1       1.878  -1.897   1.310  0.00  0.00    +0.167 A 
ATOM     29  C   UNL     1       0.529  -2.206   1.443  0.00  0.00    +0.204 A 
BRANCH  24  31
ATOM     30  C   UNL     1      -2.203  -1.436   3.764  0.00  0.00    +0.277 C 
ATOM     31  O   UNL     1      -1.518  -1.995   2.640  0.00  0.00    -0.491 OA
ENDBRANCH  24  31
BRANCH  29  32
ATOM     32  O   UNL     1      -0.080  -3.004   0.523  0.00  0.00    -0.488 OA
ATOM     33  C   UNL     1      -0.670  -2.359  -0.607  0.00  0.00    +0.277 C 
ENDBRANCH  29  32
BRANCH  28  34
ATOM     34  O   UNL     1       2.588  -2.390   0.261  0.00  0.00    -0.491 OA
ATOM     35  C   UNL     1       3.971  -2.036   0.190  0.00  0.00    +0.277 C 
ENDBRANCH  28  34
ENDBRANCH   1  26
BRANCH   4  36
ATOM     36  O   UNL     1       4.246   2.603   7.131  0.00  0.00    -0.376 OA
ATOM     37  H   UNL     1       4.488   2.203   7.978  0.00  0.00    +0.211 HD
ENDBRANCH   4  36
BRANCH   2  38
ATOM     38  O   UNL     1       2.046  -0.766   6.370  0.00  0.00    -0.361 OA
ATOM     39  H   UNL     1       2.399  -1.196   7.162  0.00  0.00    +0.213 HD
ENDBRANCH   2  38
TORSDOF 7
