REMARK  Name = ZINC05956854
REMARK  10 active torsions:
REMARK  status: ('A' for Active; 'I' for Inactive)
REMARK    1  A    between atoms: C_1  and  C_2
REMARK    2  A    between atoms: C_4  and  C_23
REMARK    3  A    between atoms: C_13  and  N_15
REMARK    4  A    between atoms: N_15  and  N_16
REMARK    5  A    between atoms: C_25  and  O_33
REMARK    6  A    between atoms: C_26  and  O_31
REMARK    7  A    between atoms: C_27  and  O_29
REMARK    8  A    between atoms: O_29  and  C_30
REMARK    9  A    between atoms: O_31  and  C_32
REMARK   10  A    between atoms: O_33  and  C_34
REMARK                            x       y       z     vdW  Elec       q    Type
REMARK                         _______ _______ _______ _____ _____    ______ ____
ROOT
ATOM      1  C   UNL     1      -1.315   0.732   1.052  0.00  0.00    +0.013 C 
ATOM      2  C   UNL     1      -0.105   0.248   0.250  0.00  0.00    +0.055 C 
ATOM      3  C   UNL     1      -0.531  -0.067  -1.187  0.00  0.00    +0.061 C 
ATOM      4  C   UNL     1      -0.826   1.216  -1.922  0.00  0.00    +0.006 A 
ATOM      5  C   UNL     1      -1.568   1.157  -3.091  0.00  0.00    +0.057 A 
ATOM      6  C   UNL     1      -1.851   2.311  -3.800  0.00  0.00    +0.167 A 
ATOM      7  C   UNL     1      -1.387   3.540  -3.336  0.00  0.00    +0.170 A 
ATOM      8  C   UNL     1      -0.649   3.598  -2.167  0.00  0.00    +0.095 A 
ATOM      9  C   UNL     1      -0.367   2.436  -1.456  0.00  0.00    +0.130 A 
ATOM     10  O   UNL     1       0.358   2.538  -0.311  0.00  0.00    -0.472 OA
ATOM     11  C   UNL     1       0.960   1.351   0.206  0.00  0.00    +0.262 C 
ATOM     12  O   UNL     1      -1.792   4.514  -4.202  0.00  0.00    -0.452 OA
ATOM     13  C   UNL     1      -2.156   3.826  -5.413  0.00  0.00    +0.466 C 
ATOM     14  O   UNL     1      -2.546   2.517  -4.958  0.00  0.00    -0.453 OA
ENDROOT
BRANCH   3  15
ATOM     15  C   UNL     1      -1.767  -0.928  -1.166  0.00  0.00    -0.032 A 
ATOM     16  C   UNL     1      -1.752  -2.171  -1.772  0.00  0.00    +0.054 A 
ATOM     17  C   UNL     1      -2.885  -2.969  -1.750  0.00  0.00    +0.165 A 
ATOM     18  C   UNL     1      -4.042  -2.513  -1.127  0.00  0.00    +0.204 A 
ATOM     19  C   UNL     1      -4.055  -1.261  -0.524  0.00  0.00    +0.165 A 
ATOM     20  C   UNL     1      -2.915  -0.471  -0.546  0.00  0.00    +0.054 A 
BRANCH  19  21
ATOM     21  O   UNL     1      -5.184  -0.811   0.086  0.00  0.00    -0.491 OA
ATOM     22  C   UNL     1      -5.125   0.485   0.685  0.00  0.00    +0.277 C 
ENDBRANCH  19  21
BRANCH  18  23
ATOM     23  O   UNL     1      -5.158  -3.292  -1.108  0.00  0.00    -0.488 OA
ATOM     24  C   UNL     1      -6.074  -3.139  -2.194  0.00  0.00    +0.277 C 
ENDBRANCH  18  23
BRANCH  17  25
ATOM     25  O   UNL     1      -2.867  -4.193  -2.341  0.00  0.00    -0.491 OA
ATOM     26  C   UNL     1      -1.645  -4.596  -2.961  0.00  0.00    +0.277 C 
ENDBRANCH  17  25
ENDBRANCH   3  15
BRANCH  11  27
ATOM     27  N   UNL     1       2.066   0.936  -0.668  0.00  0.00    -0.201 NA
ATOM     28  H   UNL     1       1.720   0.451  -1.483  0.00  0.00    +0.148 HD
BRANCH  27  29
ATOM     29  N   UNL     1       2.836   2.006  -1.025  0.00  0.00    -0.232 N 
ATOM     30  C   UNL     1       3.971   1.816  -1.726  0.00  0.00    +0.311 C 
ATOM     31  O   UNL     1       4.656   2.769  -2.044  0.00  0.00    -0.252 OA
ATOM     32  N   UNL     1       4.347   0.570  -2.075  0.00  0.00    -0.312 N 
ATOM     33  H   UNL     1       2.565   2.904  -0.774  0.00  0.00    +0.171 HD
ATOM     34  H   UNL     1       3.800  -0.191  -1.821  0.00  0.00    +0.147 HD
ATOM     35  H   UNL     1       5.164   0.432  -2.579  0.00  0.00    +0.147 HD
ENDBRANCH  27  29
ENDBRANCH  11  27
TORSDOF 6
