REMARK  Name = ZINC04724421
REMARK  12 active torsions:
REMARK  status: ('A' for Active; 'I' for Inactive)
REMARK    1  A    between atoms: C_1  and  C_2
REMARK    2  A    between atoms: C_2  and  C_19
REMARK    3  A    between atoms: N_3  and  N_4
REMARK    4  A    between atoms: C_5  and  C_7
REMARK    5  A    between atoms: C_7  and  O_8
REMARK    6  A    between atoms: O_8  and  C_9
REMARK    7  A    between atoms: C_14  and  C_15
REMARK    8  A    between atoms: C_15  and  C_16
REMARK    9  A    between atoms: C_15  and  C_17
REMARK   10  A    between atoms: C_15  and  C_18
REMARK   11  A    between atoms: C_20  and  C_21
REMARK   12  A    between atoms: C_22  and  C_23
REMARK                            x       y       z     vdW  Elec       q    Type
REMARK                         _______ _______ _______ _____ _____    ______ ____
ROOT
ATOM      1  N   UNL     1       1.188   2.017   0.002  0.00  0.00    -0.204 N 
ATOM      2  C   UNL     1       1.170   3.364   0.009  0.00  0.00    +0.270 C 
ATOM      3  O   UNL     1       0.111   3.957   0.022  0.00  0.00    -0.270 OA
ATOM      4  H   UNL     1       2.034   1.543  -0.009  0.00  0.00    +0.177 HD
ENDROOT
BRANCH   1   7
ATOM      5  C   UNL     1       1.317  -0.740  -0.015  0.00  0.00    +0.067 C 
ATOM      6  C   UNL     1       0.002  -0.004   0.002  0.00  0.00    +0.056 C 
ATOM      7  N   UNL     1      -0.016   1.300   0.009  0.00  0.00    -0.185 NA
BRANCH   6   8
ATOM      8  C   UNL     1      -1.213  -0.728   0.010  0.00  0.00    +0.024 C 
ATOM      9  C   UNL     1      -2.396  -0.066   0.025  0.00  0.00    +0.002 C 
BRANCH   9  10
ATOM     10  C   UNL     1      -3.610  -0.788   0.032  0.00  0.00    +0.001 C 
ATOM     11  C   UNL     1      -4.790  -0.129   0.047  0.00  0.00    +0.008 C 
BRANCH  11  12
ATOM     12  C   UNL     1      -6.054  -0.881   0.055  0.00  0.00    -0.025 A 
ATOM     13  C   UNL     1      -6.039  -2.280   0.042  0.00  0.00    +0.008 A 
ATOM     14  C   UNL     1      -7.228  -2.978   0.055  0.00  0.00    +0.001 A 
ATOM     15  C   UNL     1      -8.434  -2.299   0.070  0.00  0.00    +0.000 A 
ATOM     16  C   UNL     1      -8.457  -0.915   0.078  0.00  0.00    +0.001 A 
ATOM     17  C   UNL     1      -7.277  -0.202   0.070  0.00  0.00    +0.008 A 
ENDBRANCH  11  12
ENDBRANCH   9  10
ENDBRANCH   6   8
ENDBRANCH   1   7
BRANCH   2  18
ATOM     18  C   UNL     1       2.465   4.136   0.001  0.00  0.00    +0.326 C 
BRANCH  18  19
ATOM     19  O   UNL     1       2.184   5.537   0.011  0.00  0.00    -0.482 OA
BRANCH  19  20
ATOM     20  C   UNL     1       3.251   6.379   0.005  0.00  0.00    +0.125 A 
ATOM     21  C   UNL     1       4.540   5.868  -0.004  0.00  0.00    +0.046 A 
ATOM     22  C   UNL     1       5.622   6.726  -0.015  0.00  0.00    +0.004 A 
ATOM     23  C   UNL     1       5.421   8.094  -0.006  0.00  0.00    +0.001 A 
ATOM     24  C   UNL     1       4.138   8.606   0.009  0.00  0.00    +0.008 A 
ATOM     25  C   UNL     1       3.052   7.752   0.015  0.00  0.00    -0.000 A 
BRANCH  25  26
ATOM     26  C   UNL     1       1.652   8.311   0.032  0.00  0.00    -0.009 C 
ATOM     27  C   UNL     1       1.714   9.840   0.039  0.00  0.00    +0.015 C 
ATOM     28  C   UNL     1       0.899   7.837  -1.213  0.00  0.00    +0.015 C 
ATOM     29  C   UNL     1       0.924   7.824   1.286  0.00  0.00    +0.015 C 
ENDBRANCH  25  26
ENDBRANCH  19  20
ENDBRANCH  18  19
ENDBRANCH   2  18
TORSDOF 8
