REMARK  Name = ZINC59953933
REMARK  12 active torsions:
REMARK  status: ('A' for Active; 'I' for Inactive)
REMARK    1  A    between atoms: C_1  and  C_2
REMARK    2  A    between atoms: C_2  and  N_3
REMARK    3  A    between atoms: C_6  and  C_19
REMARK    4  A    between atoms: C_7  and  N_18
REMARK    5  A    between atoms: N_8  and  C_11
REMARK    6  A    between atoms: C_11  and  C_12
REMARK    7  A    between atoms: C_19  and  C_21
REMARK    8  A    between atoms: C_21  and  O_22
REMARK    9  A    between atoms: O_22  and  C_23
REMARK   10  A    between atoms: C_23  and  C_25
REMARK   11  A    between atoms: C_26  and  C_31
REMARK   12  A    between atoms: C_29  and  N_30
REMARK                            x       y       z     vdW  Elec       q    Type
REMARK                         _______ _______ _______ _____ _____    ______ ____
ROOT
ATOM      1  N   UNL     1       0.577  -0.472   1.285  0.00  0.00    -0.260 N 
ATOM      2  C   UNL     1       1.898  -0.645   1.073  0.00  0.00    +0.269 A 
ATOM      3  O   UNL     1       2.392  -0.388  -0.009  0.00  0.00    -0.267 OA
ATOM      4  C   UNL     1       2.727  -1.151   2.175  0.00  0.00    +0.123 A 
ATOM      5  C   UNL     1       2.095  -1.428   3.399  0.00  0.00    +0.116 A 
ATOM      6  N   UNL     1       0.750  -1.218   3.510  0.00  0.00    -0.277 N 
ATOM      7  C   UNL     1       0.029  -0.749   2.479  0.00  0.00    +0.334 A 
ATOM      8  O   UNL     1      -1.164  -0.574   2.631  0.00  0.00    -0.246 OA
ENDROOT
BRANCH   5   9
ATOM      9  N   UNL     1       2.810  -1.899   4.456  0.00  0.00    -0.344 N 
ATOM     10  H   UNL     1       3.776  -1.968   4.395  0.00  0.00    +0.144 HD
ATOM     11  H   UNL     1       2.355  -2.165   5.270  0.00  0.00    +0.144 HD
ENDBRANCH   5   9
BRANCH   1  13
ATOM     12  C   UNL     1      -0.311   1.560   0.254  0.00  0.00    +0.027 C 
ATOM     13  C   UNL     1      -0.270   0.031   0.201  0.00  0.00    +0.126 C 
ENDBRANCH   1  13
BRANCH   4  14
ATOM     14  C   UNL     1       4.114  -1.352   2.010  0.00  0.00    +0.209 C 
ATOM     15  O   UNL     1       4.800  -1.667   2.961  0.00  0.00    -0.288 OA
BRANCH  14  16
ATOM     16  C   UNL     1       4.745  -1.175   0.652  0.00  0.00    +0.312 C 
BRANCH  16  17
ATOM     17  O   UNL     1       6.148  -1.432   0.742  0.00  0.00    -0.453 OA
BRANCH  17  18
ATOM     18  C   UNL     1       6.865  -1.316  -0.394  0.00  0.00    +0.346 C 
ATOM     19  O   UNL     1       6.313  -1.005  -1.433  0.00  0.00    -0.245 OA
BRANCH  18  20
ATOM     20  C   UNL     1       8.309  -1.565  -0.378  0.00  0.00    +0.142 A 
ATOM     21  C   UNL     1       8.951  -2.808  -0.604  0.00  0.00    +0.097 A 
ATOM     22  N   UNL     1      10.234  -2.625  -0.506  0.00  0.00    -0.081 NA
ATOM     23  O   UNL     1      10.483  -1.264  -0.214  0.00  0.00    -0.339 OA
ATOM     24  C   UNL     1       9.307  -0.623  -0.142  0.00  0.00    +0.230 A 
ATOM     25  C   UNL     1       8.266  -4.116  -0.906  0.00  0.00    +0.070 C 
BRANCH  24  26
ATOM     26  N   UNL     1       9.122   0.709   0.117  0.00  0.00    -0.327 N 
ATOM     27  H   UNL     1       8.226   1.077   0.150  0.00  0.00    +0.145 HD
ATOM     28  H   UNL     1       9.889   1.285   0.269  0.00  0.00    +0.145 HD
ENDBRANCH  24  26
ENDBRANCH  18  20
ENDBRANCH  17  18
ENDBRANCH  16  17
ENDBRANCH  14  16
ENDBRANCH   4  14
BRANCH   6  29
ATOM     29  C   UNL     1       0.081  -1.504   4.782  0.00  0.00    +0.163 C 
BRANCH  29  30
ATOM     30  C   UNL     1       0.096  -0.270   5.646  0.00  0.00    -0.028 A 
ATOM     31  C   UNL     1       1.150  -0.043   6.511  0.00  0.00    +0.005 A 
ATOM     32  C   UNL     1       1.164   1.089   7.303  0.00  0.00    +0.000 A 
ATOM     33  C   UNL     1       0.122   1.996   7.231  0.00  0.00    +0.000 A 
ATOM     34  C   UNL     1      -0.932   1.770   6.366  0.00  0.00    +0.000 A 
ATOM     35  C   UNL     1      -0.943   0.640   5.570  0.00  0.00    +0.005 A 
ENDBRANCH  29  30
ENDBRANCH   6  29
TORSDOF 10
