REMARK  Name = ZINC66587204
REMARK  7 active torsions:
REMARK  status: ('A' for Active; 'I' for Inactive)
REMARK    1  A    between atoms: C_1  and  C_2
REMARK    2  A    between atoms: C_5  and  N_11
REMARK    3  A    between atoms: C_7  and  C_8
REMARK    4  A    between atoms: N_11  and  S_12
REMARK    5  A    between atoms: S_12  and  C_15
REMARK    6  A    between atoms: C_16  and  C_24
REMARK    7  A    between atoms: C_19  and  C_22
REMARK                            x       y       z     vdW  Elec       q    Type
REMARK                         _______ _______ _______ _____ _____    ______ ____
ROOT
ATOM      1  N   UNL     1       0.308  -4.519  -0.468  0.00  0.00    -0.098 NA
ENDROOT
BRANCH   1   6
ATOM      2  C   UNL     1      -1.002   0.879   0.724  0.00  0.00    +0.044 C 
ATOM      3  C   UNL     1      -0.654  -0.553   0.411  0.00  0.00    -0.038 A 
ATOM      4  C   UNL     1      -0.516  -0.960  -0.900  0.00  0.00    +0.006 A 
ATOM      5  C   UNL     1      -0.198  -2.272  -1.193  0.00  0.00    +0.027 A 
ATOM      6  C   UNL     1      -0.014  -3.192  -0.167  0.00  0.00    +0.075 A 
ATOM      7  C   UNL     1      -0.150  -2.795   1.154  0.00  0.00    +0.040 A 
ATOM      8  C   UNL     1      -0.466  -1.468   1.449  0.00  0.00    +0.041 A 
BRANCH   8   9
ATOM      9  C   UNL     1      -0.607  -1.034   2.855  0.00  0.00    +0.242 C 
ATOM     10  O   UNL     1      -0.761   0.143   3.115  0.00  0.00    -0.270 OA
ATOM     11  N   UNL     1      -0.565  -1.944   3.849  0.00  0.00    -0.325 N 
ATOM     12  H   UNL     1      -0.442  -2.884   3.641  0.00  0.00    +0.145 HD
ATOM     13  H   UNL     1      -0.657  -1.659   4.771  0.00  0.00    +0.145 HD
ENDBRANCH   8   9
ENDBRANCH   1   6
BRANCH   1  14
ATOM     14  S   UNL     1       0.470  -4.994  -2.046  0.00  0.00    +0.093 S 
ATOM     15  O   UNL     1      -0.817  -4.883  -2.637  0.00  0.00    -0.148 OA
ATOM     16  O   UNL     1       1.606  -4.313  -2.560  0.00  0.00    -0.148 OA
BRANCH  14  17
ATOM     17  C   UNL     1       0.873  -6.709  -2.034  0.00  0.00    +0.133 A 
ATOM     18  C   UNL     1      -0.129  -7.654  -1.912  0.00  0.00    -0.004 A 
ATOM     19  C   UNL     1       0.188  -9.000  -1.903  0.00  0.00    +0.046 A 
ATOM     20  C   UNL     1       1.507  -9.402  -2.016  0.00  0.00    +0.025 A 
ATOM     21  C   UNL     1       2.509  -8.457  -2.138  0.00  0.00    -0.029 A 
ATOM     22  C   UNL     1       2.192  -7.111  -2.152  0.00  0.00    +0.071 A 
ATOM     23 CL   UNL     1       3.449  -5.924  -2.312  0.00  0.00    -0.081 Cl
ATOM     24  C   UNL     1       3.946  -8.895  -2.260  0.00  0.00    +0.045 C 
ATOM     25 CL   UNL     1      -1.070 -10.187  -1.750  0.00  0.00    -0.083 Cl
ATOM     26  C   UNL     1      -1.565  -7.217  -1.789  0.00  0.00    +0.047 C 
ENDBRANCH  14  17
ENDBRANCH   1  14
TORSDOF 4
