REMARK  Name = ZINC39969694
REMARK  9 active torsions:
REMARK  status: ('A' for Active; 'I' for Inactive)
REMARK    1  A    between atoms: C_1  and  C_2
REMARK    2  A    between atoms: C_5  and  N_9
REMARK    3  A    between atoms: C_7  and  C_8
REMARK    4  A    between atoms: C_10  and  C_12
REMARK    5  A    between atoms: C_12  and  C_13
REMARK    6  A    between atoms: C_17  and  S_21
REMARK    7  A    between atoms: N_19  and  C_20
REMARK    8  A    between atoms: S_21  and  C_22
REMARK    9  A    between atoms: C_22  and  C_23
REMARK                            x       y       z     vdW  Elec       q    Type
REMARK                         _______ _______ _______ _____ _____    ______ ____
ROOT
ATOM      1  C   UNL     1      -0.236  -6.847  -2.628  0.00  0.00    +0.149 C 
ATOM      2  N   UNL     1       1.030  -6.585  -3.349  0.00  0.00    -0.237 NA
ATOM      3  N   UNL     1       1.785  -7.843  -3.236  0.00  0.00    -0.229 NA
ATOM      4  C   UNL     1       0.729  -8.880  -3.366  0.00  0.00    +0.200 C 
ATOM      5  N   UNL     1      -0.432  -8.312  -2.639  0.00  0.00    -0.264 NA
ATOM      6  C   UNL     1      -1.694  -8.669  -3.300  0.00  0.00    +0.108 C 
ATOM      7  H   UNL     1       0.855  -6.353  -4.315  0.00  0.00    +0.142 HD
ATOM      8  H   UNL     1       2.248  -7.908  -2.342  0.00  0.00    +0.143 HD
ENDROOT
BRANCH   1   9
ATOM      9  C   UNL     1      -0.134  -6.343  -1.187  0.00  0.00    +0.132 C 
BRANCH   9  11
ATOM     10  N   UNL     1       0.059  -4.170  -0.021  0.00  0.00    -0.285 N 
ATOM     11  C   UNL     1      -0.040  -4.839  -1.187  0.00  0.00    +0.220 C 
ATOM     12  O   UNL     1      -0.054  -4.230  -2.236  0.00  0.00    -0.275 OA
ATOM     13  H   UNL     1       0.147  -4.658   0.812  0.00  0.00    +0.155 HD
BRANCH  10  18
ATOM     14  C   UNL     1      -0.041   1.502   0.014  0.00  0.00    +0.044 C 
ATOM     15  C   UNL     1      -0.015  -0.004   0.004  0.00  0.00    -0.047 A 
ATOM     16  C   UNL     1      -0.752  -0.702  -0.935  0.00  0.00    +0.005 A 
ATOM     17  C   UNL     1      -0.730  -2.082  -0.946  0.00  0.00    +0.023 A 
ATOM     18  C   UNL     1       0.034  -2.771  -0.013  0.00  0.00    +0.034 A 
ATOM     19  C   UNL     1       0.773  -2.068   0.929  0.00  0.00    +0.027 A 
ATOM     20  C   UNL     1       0.751  -0.686   0.932  0.00  0.00    -0.046 A 
ATOM     21  C   UNL     1       1.557   0.078   1.950  0.00  0.00    +0.044 C 
ENDBRANCH  10  18
ENDBRANCH   9  11
ENDBRANCH   1   9
BRANCH   4  22
ATOM     22  S   UNL     1       1.266 -10.432  -2.595  0.00  0.00    -0.117 S 
BRANCH  22  23
ATOM     23  C   UNL     1       1.599  -9.974  -0.872  0.00  0.00    +0.146 C 
BRANCH  23  24
ATOM     24  C   UNL     1       2.060 -11.190  -0.110  0.00  0.00    +0.120 A 
ATOM     25  N   UNL     1       2.356 -11.050   1.209  0.00  0.00    -0.310 N 
ATOM     26  H   UNL     1       2.267 -10.181   1.632  0.00  0.00    +0.170 HD
ATOM     27  C   UNL     1       2.774 -12.111   1.938  0.00  0.00    +0.259 A 
ATOM     28  O   UNL     1       3.042 -11.999   3.120  0.00  0.00    -0.267 OA
ATOM     29  C   UNL     1       2.891 -13.403   1.247  0.00  0.00    +0.065 A 
ATOM     30  C   UNL     1       3.312 -14.556   1.906  0.00  0.00    +0.015 A 
ATOM     31  C   UNL     1       3.405 -15.741   1.209  0.00  0.00    +0.001 A 
ATOM     32  C   UNL     1       3.082 -15.793  -0.141  0.00  0.00    +0.002 A 
ATOM     33  C   UNL     1       2.664 -14.666  -0.811  0.00  0.00    +0.028 A 
ATOM     34  C   UNL     1       2.562 -13.453  -0.126  0.00  0.00    +0.078 A 
ATOM     35  N   UNL     1       2.149 -12.319  -0.745  0.00  0.00    -0.233 NA
ENDBRANCH  23  24
ENDBRANCH  22  23
ENDBRANCH   4  22
TORSDOF 6
