REMARK  Name = ZINC15676867
REMARK  6 active torsions:
REMARK  status: ('A' for Active; 'I' for Inactive)
REMARK    1  A    between atoms: C_1  and  C_2
REMARK    2  A    between atoms: C_2  and  C_4
REMARK    3  A    between atoms: C_2  and  C_24
REMARK    4  A    between atoms: C_4  and  N_5
REMARK    5  A    between atoms: C_6  and  C_8
REMARK    6  A    between atoms: C_8  and  N_9
REMARK                            x       y       z     vdW  Elec       q    Type
REMARK                         _______ _______ _______ _____ _____    ______ ____
ROOT
ATOM      1  N   UNL     1      -0.721   1.571  -1.179  0.00  0.00    -0.296 N 
ATOM      2  C   UNL     1      -1.738   0.800  -1.742  0.00  0.00    +0.072 A 
ATOM      3  C   UNL     1      -2.078  -0.417  -1.163  0.00  0.00    +0.066 A 
ATOM      4  C   UNL     1      -3.088  -1.185  -1.711  0.00  0.00    +0.125 A 
ATOM      5  C   UNL     1      -3.769  -0.743  -2.835  0.00  0.00    +0.040 A 
ATOM      6  C   UNL     1      -3.442   0.468  -3.412  0.00  0.00    +0.031 A 
ATOM      7  C   UNL     1      -2.429   1.246  -2.868  0.00  0.00    +0.071 A 
ATOM      8  N   UNL     1      -2.100   2.473  -3.456  0.00  0.00    -0.310 N 
ATOM      9  C   UNL     1      -2.597   3.128  -4.535  0.00  0.00    +0.092 A 
ATOM     10  C   UNL     1      -1.928   4.296  -4.687  0.00  0.00    +0.020 A 
ATOM     11  C   UNL     1      -0.974   4.382  -3.668  0.00  0.00    +0.033 A 
ATOM     12  C   UNL     1      -1.093   3.239  -2.908  0.00  0.00    +0.112 A 
ATOM     13  C   UNL     1      -0.382   2.757  -1.722  0.00  0.00    +0.276 A 
ATOM     14  O   UNL     1       0.509   3.424  -1.229  0.00  0.00    -0.265 OA
ATOM     15  F   UNL     1      -3.413  -2.371  -1.151  0.00  0.00    -0.205 F 
ENDROOT
BRANCH   1  16
ATOM     16  C   UNL     1      -0.013   1.086   0.008  0.00  0.00    +0.221 C 
BRANCH  16  18
ATOM     17  N   UNL     1      -0.242   1.246   2.466  0.00  0.00    -0.313 N 
ATOM     18  C   UNL     1      -0.718   1.572   1.248  0.00  0.00    +0.233 C 
ATOM     19  O   UNL     1      -1.714   2.256   1.150  0.00  0.00    -0.274 OA
ATOM     20  H   UNL     1       0.555   0.699   2.544  0.00  0.00    +0.149 HD
BRANCH  17  21
ATOM     21  C   UNL     1      -0.927   1.718   3.671  0.00  0.00    +0.112 C 
BRANCH  21  23
ATOM     22  C   UNL     1      -0.274  -0.315   4.968  0.00  0.00    +0.014 C 
ATOM     23  C   UNL     1      -0.187   1.212   4.911  0.00  0.00    +0.033 C 
BRANCH  23  24
ATOM     24  C   UNL     1      -0.819   1.797   6.147  0.00  0.00    -0.043 A 
ATOM     25  C   UNL     1      -2.151   1.553   6.425  0.00  0.00    +0.004 A 
ATOM     26  C   UNL     1      -2.729   2.087   7.561  0.00  0.00    +0.000 A 
ATOM     27  C   UNL     1      -1.978   2.872   8.416  0.00  0.00    +0.000 A 
ATOM     28  C   UNL     1      -0.647   3.120   8.135  0.00  0.00    +0.000 A 
ATOM     29  C   UNL     1      -0.068   2.583   7.001  0.00  0.00    +0.004 A 
ENDBRANCH  23  24
ENDBRANCH  21  23
ENDBRANCH  17  21
ENDBRANCH  16  18
ENDBRANCH   1  16
TORSDOF 5
