REMARK  Name = ZINC39488399
REMARK  5 active torsions:
REMARK  status: ('A' for Active; 'I' for Inactive)
REMARK    1  A    between atoms: C_1  and  C_2
REMARK    2  A    between atoms: C_2  and  C_3
REMARK    3  A    between atoms: C_3  and  C_18
REMARK    4  A    between atoms: N_6  and  N_10
REMARK    5  A    between atoms: C_11  and  C_12
REMARK                            x       y       z     vdW  Elec       q    Type
REMARK                         _______ _______ _______ _____ _____    ______ ____
ROOT
ATOM      1  C   UNL     1      -2.043  -0.049  -0.988  0.00  0.00    +0.111 C 
ATOM      2  C   UNL     1      -2.511  -1.192  -1.866  0.00  0.00    +0.266 C 
ATOM      3  O   UNL     1      -3.119  -1.110  -2.912  0.00  0.00    -0.271 OA
ATOM      4  N   UNL     1      -2.109  -2.318  -1.244  0.00  0.00    -0.109 N 
ATOM      5  C   UNL     1      -1.459  -2.047  -0.106  0.00  0.00    +0.330 C 
ATOM      6  O   UNL     1      -1.001  -2.900   0.629  0.00  0.00    -0.250 OA
ATOM      7  N   UNL     1      -1.369  -0.727   0.133  0.00  0.00    -0.284 N 
ATOM      8  C   UNL     1      -1.061   0.849  -1.744  0.00  0.00    +0.041 C 
ATOM      9  H   UNL     1      -0.942  -0.303   0.894  0.00  0.00    +0.151 HD
ENDROOT
BRANCH   1  11
ATOM     10  C   UNL     1      -2.745   1.844   0.485  0.00  0.00    +0.006 C 
ATOM     11  C   UNL     1      -3.236   0.766  -0.484  0.00  0.00    +0.032 C 
ENDBRANCH   1  11
BRANCH   4  12
ATOM     12  N   UNL     1      -2.344  -3.611  -1.728  0.00  0.00    -0.181 NA
ATOM     13  C   UNL     1      -3.065  -3.783  -2.772  0.00  0.00    +0.107 C 
BRANCH  13  14
ATOM     14  C   UNL     1      -3.412  -5.177  -3.227  0.00  0.00    +0.032 C 
ATOM     15  C   UNL     1      -2.874  -5.401  -4.641  0.00  0.00    +0.009 C 
ATOM     16  C   UNL     1      -3.226  -6.816  -5.103  0.00  0.00    +0.001 C 
ATOM     17  C   UNL     1      -4.746  -6.989  -5.103  0.00  0.00    +0.000 C 
ATOM     18  C   UNL     1      -5.285  -6.765  -3.688  0.00  0.00    +0.001 C 
ATOM     19  C   UNL     1      -4.932  -5.350  -3.226  0.00  0.00    +0.009 C 
ENDBRANCH  13  14
ENDBRANCH   4  12
TORSDOF 3
