REMARK  Name = ZINC38966111
REMARK  7 active torsions:
REMARK  status: ('A' for Active; 'I' for Inactive)
REMARK    1  A    between atoms: C_1  and  C_2
REMARK    2  A    between atoms: C_6  and  N_8
REMARK    3  A    between atoms: N_8  and  C_9
REMARK    4  A    between atoms: N_12  and  S_13
REMARK    5  A    between atoms: S_13  and  C_16
REMARK    6  A    between atoms: C_18  and  C_23
REMARK    7  A    between atoms: C_21  and  C_22
REMARK                            x       y       z     vdW  Elec       q    Type
REMARK                         _______ _______ _______ _____ _____    ______ ____
ROOT
ATOM      1  C   UNL     1      -0.040  -4.259   2.382  0.00  0.00    +0.237 C 
ATOM      2  C   UNL     1       0.980  -4.790   3.364  0.00  0.00    +0.192 C 
ATOM      3  N   UNL     1       2.240  -4.501   3.228  0.00  0.00    -0.110 NA
ATOM      4  N   UNL     1       0.564  -5.564   4.380  0.00  0.00    -0.226 NA
ATOM      5  C   UNL     1      -0.706  -5.871   4.539  0.00  0.00    +0.089 A 
ATOM      6  C   UNL     1      -1.109  -6.691   5.623  0.00  0.00    +0.030 A 
ATOM      7  C   UNL     1      -2.411  -7.009   5.792  0.00  0.00    +0.002 A 
ATOM      8  C   UNL     1      -3.422  -6.559   4.926  0.00  0.00    +0.002 A 
ATOM      9  C   UNL     1      -3.147  -5.772   3.862  0.00  0.00    +0.027 A 
ATOM     10  C   UNL     1      -1.753  -5.380   3.609  0.00  0.00    +0.063 A 
ATOM     11  N   UNL     1      -1.450  -4.622   2.593  0.00  0.00    -0.359 N 
ATOM     12  H   UNL     1      -2.140  -4.304   1.990  0.00  0.00    +0.162 HD
ENDROOT
BRANCH   3  13
ATOM     13  S   UNL     1       3.346  -5.089   4.311  0.00  0.00    +0.101 S 
ATOM     14  O   UNL     1       3.058  -4.476   5.560  0.00  0.00    -0.146 OA
ATOM     15  O   UNL     1       3.369  -6.500   4.142  0.00  0.00    -0.146 OA
BRANCH  13  16
ATOM     16  C   UNL     1       4.929  -4.497   3.812  0.00  0.00    +0.116 A 
ATOM     17  C   UNL     1       5.630  -3.628   4.627  0.00  0.00    +0.032 A 
ATOM     18  C   UNL     1       6.872  -3.164   4.236  0.00  0.00    -0.049 A 
ATOM     19  C   UNL     1       7.413  -3.568   3.030  0.00  0.00    +0.004 A 
ATOM     20  C   UNL     1       6.712  -4.438   2.215  0.00  0.00    +0.005 A 
ATOM     21  C   UNL     1       5.472  -4.906   2.608  0.00  0.00    -0.024 A 
ATOM     22  C   UNL     1       4.710  -5.858   1.722  0.00  0.00    +0.046 C 
ATOM     23  C   UNL     1       7.636  -2.216   5.124  0.00  0.00    +0.044 C 
ENDBRANCH  13  16
ENDBRANCH   3  13
BRANCH   1  24
ATOM     24  N   UNL     1       0.051  -2.796   2.390  0.00  0.00    -0.318 N 
ATOM     25  H   UNL     1       0.016  -2.313   3.230  0.00  0.00    +0.148 HD
BRANCH  24  31
ATOM     26  C   UNL     1       0.071  -2.800  -2.524  0.00  0.00    +0.044 C 
ATOM     27  C   UNL     1       0.204  -2.075  -1.210  0.00  0.00    -0.049 A 
ATOM     28  C   UNL     1       0.462  -0.717  -1.193  0.00  0.00    +0.003 A 
ATOM     29  C   UNL     1       0.585  -0.048   0.010  0.00  0.00    +0.002 A 
ATOM     30  C   UNL     1       0.449  -0.735   1.201  0.00  0.00    +0.023 A 
ATOM     31  C   UNL     1       0.189  -2.099   1.188  0.00  0.00    +0.029 A 
ATOM     32  C   UNL     1       0.061  -2.767  -0.023  0.00  0.00    +0.026 A 
ENDBRANCH  24  31
ENDBRANCH   1  24
TORSDOF 4
