REMARK  Name = ZINC67420194
REMARK  9 active torsions:
REMARK  status: ('A' for Active; 'I' for Inactive)
REMARK    1  A    between atoms: C_1  and  C_2
REMARK    2  A    between atoms: C_2  and  N_3
REMARK    3  A    between atoms: C_4  and  C_28
REMARK    4  A    between atoms: C_5  and  C_9
REMARK    5  A    between atoms: C_6  and  C_8
REMARK    6  A    between atoms: C_9  and  N_10
REMARK    7  A    between atoms: N_13  and  C_14
REMARK    8  A    between atoms: C_14  and  C_16
REMARK    9  A    between atoms: C_14  and  C_17
REMARK                            x       y       z     vdW  Elec       q    Type
REMARK                         _______ _______ _______ _____ _____    ______ ____
ROOT
ATOM      1  N   UNL     1       0.188  -0.236  -5.582  0.00  0.00    -0.295 N 
ATOM      2  C   UNL     1       0.467  -0.413  -6.889  0.00  0.00    +0.300 C 
ATOM      3  O   UNL     1       0.590  -1.536  -7.338  0.00  0.00    -0.253 OA
ATOM      4  N   UNL     1       0.610   0.656  -7.697  0.00  0.00    -0.288 N 
ATOM      5  H   UNL     1       0.090   0.660  -5.224  0.00  0.00    +0.151 HD
ATOM      6  H   UNL     1       0.512   1.552  -7.339  0.00  0.00    +0.151 HD
ENDROOT
BRANCH   4   7
ATOM      7  C   UNL     1       0.913   0.464  -9.118  0.00  0.00    +0.158 C 
ATOM      8  C   UNL     1       2.425   0.308  -9.300  0.00  0.00    +0.038 C 
BRANCH   7   9
ATOM      9  C   UNL     1       0.434   1.660  -9.900  0.00  0.00    +0.240 C 
ATOM     10  O   UNL     1       0.346   2.743  -9.360  0.00  0.00    -0.273 OA
ATOM     11  N   UNL     1       0.102   1.527 -11.199  0.00  0.00    -0.269 N 
ATOM     12  C   UNL     1       0.057   0.257 -11.929  0.00  0.00    +0.118 C 
ATOM     13  C   UNL     1      -0.369   0.627 -13.358  0.00  0.00    +0.056 C 
ATOM     14  C   UNL     1      -0.538   2.130 -13.328  0.00  0.00    -0.024 A 
ATOM     15  C   UNL     1      -0.255   2.579 -12.047  0.00  0.00    +0.040 A 
ATOM     16  C   UNL     1      -0.350   3.945 -11.772  0.00  0.00    +0.024 A 
ATOM     17  C   UNL     1      -0.724   4.829 -12.762  0.00  0.00    +0.002 A 
ATOM     18  C   UNL     1      -1.008   4.370 -14.034  0.00  0.00    +0.000 A 
ATOM     19  C   UNL     1      -0.908   3.020 -14.317  0.00  0.00    +0.005 A 
ENDBRANCH   7   9
ENDBRANCH   4   7
BRANCH   1  20
ATOM     20  C   UNL     1       0.032  -1.398  -4.703  0.00  0.00    +0.144 C 
BRANCH  20  23
ATOM     21  N   UNL     1      -1.352  -0.305  -1.511  0.00  0.00    -0.268 N 
ATOM     22  C   UNL     1      -1.506  -0.711  -2.789  0.00  0.00    +0.041 A 
ATOM     23  C   UNL     1      -0.274  -0.931  -3.303  0.00  0.00    +0.013 A 
ATOM     24  C   UNL     1       0.665  -0.649  -2.306  0.00  0.00    +0.065 A 
ATOM     25  N   UNL     1       0.021  -0.268  -1.233  0.00  0.00    -0.176 NA
ATOM     26  C   UNL     1       2.162  -0.759  -2.445  0.00  0.00    +0.068 C 
ATOM     27  C   UNL     1      -2.816  -0.889  -3.513  0.00  0.00    +0.065 C 
BRANCH  21  29
ATOM     28  C   UNL     1      -2.750   1.533  -0.706  0.00  0.00    +0.029 C 
ATOM     29  C   UNL     1      -2.429   0.042  -0.581  0.00  0.00    +0.140 C 
ENDBRANCH  21  29
ENDBRANCH  20  23
ENDBRANCH   1  20
TORSDOF 5
