REMARK  Name = ZINC07127008
REMARK  4 active torsions:
REMARK  status: ('A' for Active; 'I' for Inactive)
REMARK    1  A    between atoms: C_1  and  C_2
REMARK    2  A    between atoms: C_2  and  O_3
REMARK    3  A    between atoms: O_3  and  C_4
REMARK    4  A    between atoms: C_13  and  C_14
REMARK                            x       y       z     vdW  Elec       q    Type
REMARK                         _______ _______ _______ _____ _____    ______ ____
ROOT
ATOM      1  C   UNL     1       3.731  -0.525   0.121  0.00  0.00    +0.213 C 
ATOM      2  N   UNL     1       4.144  -1.774   0.786  0.00  0.00    -0.293 N 
ATOM      3  C   UNL     1       5.460  -2.150   0.779  0.00  0.00    +0.183 C 
ATOM      4  N   UNL     1       6.434  -1.258   0.734  0.00  0.00    -0.183 NA
ATOM      5  C   UNL     1       6.104   0.050   0.620  0.00  0.00    +0.236 A 
ATOM      6  N   UNL     1       4.809   0.446   0.344  0.00  0.00    -0.285 N 
ATOM      7  C   UNL     1       4.787   1.819   0.323  0.00  0.00    +0.072 A 
ATOM      8  C   UNL     1       3.799   2.771   0.114  0.00  0.00    +0.028 A 
ATOM      9  C   UNL     1       4.115   4.113   0.151  0.00  0.00    +0.002 A 
ATOM     10  C   UNL     1       5.415   4.523   0.407  0.00  0.00    +0.002 A 
ATOM     11  C   UNL     1       6.410   3.595   0.618  0.00  0.00    +0.030 A 
ATOM     12  C   UNL     1       6.109   2.231   0.579  0.00  0.00    +0.091 A 
ATOM     13  N   UNL     1       6.860   1.110   0.748  0.00  0.00    -0.210 NA
ATOM     14  N   UNL     1       5.775  -3.481   0.821  0.00  0.00    -0.331 N 
ATOM     15  H   UNL     1       3.483  -2.329   1.229  0.00  0.00    +0.151 HD
ATOM     16  H   UNL     1       6.699  -3.764   0.743  0.00  0.00    +0.145 HD
ATOM     17  H   UNL     1       5.073  -4.143   0.928  0.00  0.00    +0.145 HD
ENDROOT
BRANCH   1  27
ATOM     18  C   UNL     1       4.296  -0.063  -2.261  0.00  0.00    +0.128 A 
ATOM     19  C   UNL     1       4.139  -0.273  -3.635  0.00  0.00    +0.046 A 
ATOM     20  C   UNL     1       3.240  -1.178  -4.106  0.00  0.00    +0.012 A 
ATOM     21  C   UNL     1       2.454  -1.915  -3.203  0.00  0.00    -0.017 A 
ATOM     22  C   UNL     1       1.515  -2.858  -3.655  0.00  0.00    +0.008 A 
ATOM     23  C   UNL     1       0.771  -3.554  -2.752  0.00  0.00    +0.001 A 
ATOM     24  C   UNL     1       0.926  -3.347  -1.383  0.00  0.00    +0.001 A 
ATOM     25  C   UNL     1       1.825  -2.442  -0.908  0.00  0.00    +0.009 A 
ATOM     26  C   UNL     1       2.615  -1.708  -1.810  0.00  0.00    -0.008 A 
ATOM     27  C   UNL     1       3.549  -0.762  -1.356  0.00  0.00    +0.043 A 
BRANCH  18  28
ATOM     28  O   UNL     1       5.203   0.848  -1.821  0.00  0.00    -0.492 OA
BRANCH  28  30
ATOM     29  C   UNL     1       6.901   2.536  -2.146  0.00  0.00    +0.048 C 
ATOM     30  C   UNL     1       6.042   1.456  -2.806  0.00  0.00    +0.225 C 
ENDBRANCH  28  30
ENDBRANCH  18  28
ENDBRANCH   1  27
TORSDOF 3
