REMARK  Name = ZINC47835151
REMARK  3 active torsions:
REMARK  status: ('A' for Active; 'I' for Inactive)
REMARK    1  A    between atoms: C_5  and  O_7
REMARK    2  A    between atoms: O_7  and  C_8
REMARK    3  A    between atoms: C_8  and  C_10
REMARK                            x       y       z     vdW  Elec       q    Type
REMARK                         _______ _______ _______ _____ _____    ______ ____
ROOT
ATOM      1  C   UNL     1       0.058  -2.692   0.091  0.00  0.00    +0.361 C 
ATOM      2  O   UNL     1      -0.986  -2.067   0.103  0.00  0.00    -0.243 OA
ENDROOT
BRANCH   1   3
ATOM      3  C   UNL     1       0.038  -4.152   0.198  0.00  0.00    +0.126 A 
ATOM      4  C   UNL     1      -1.085  -4.947   0.311  0.00  0.00    +0.049 A 
ATOM      5  C   UNL     1      -0.645  -6.272   0.385  0.00  0.00    +0.036 A 
ATOM      6  C   UNL     1       0.709  -6.265   0.317  0.00  0.00    +0.098 A 
ATOM      7  N   UNL     1       1.135  -4.984   0.197  0.00  0.00    -0.355 N 
ATOM      8  H   UNL     1       2.060  -4.700   0.125  0.00  0.00    +0.166 HD
ATOM      9 BR   UNL     1      -1.744  -7.802   0.551  0.00  0.00    -0.049 Br
ENDBRANCH   1   3
BRANCH   1  10
ATOM     10  O   UNL     1       1.233  -2.040  -0.021  0.00  0.00    -0.418 OA
BRANCH  10  15
ATOM     11  C   UNL     1       1.251   1.411  -1.177  0.00  0.00    +0.004 A 
ATOM     12  C   UNL     1       1.174   2.087   0.026  0.00  0.00    +0.003 A 
ATOM     13  C   UNL     1       1.117   1.384   1.215  0.00  0.00    +0.042 A 
ATOM     14  C   UNL     1       1.137   0.001   1.203  0.00  0.00    +0.166 A 
ATOM     15  C   UNL     1       1.214  -0.680  -0.005  0.00  0.00    +0.167 A 
ATOM     16  C   UNL     1       1.271   0.029  -1.196  0.00  0.00    +0.049 A 
ATOM     17  F   UNL     1       1.082  -0.687   2.365  0.00  0.00    -0.202 F 
ENDBRANCH  10  15
ENDBRANCH   1  10
TORSDOF 3
