REMARK  Name = ZINC11940630
REMARK  13 active torsions:
REMARK  status: ('A' for Active; 'I' for Inactive)
REMARK    1  A    between atoms: C_1  and  C_2
REMARK    2  A    between atoms: C_3  and  C_37
REMARK    3  A    between atoms: N_4  and  C_29
REMARK    4  A    between atoms: C_5  and  N_9
REMARK    5  A    between atoms: C_6  and  C_7
REMARK    6  A    between atoms: C_10  and  C_12
REMARK    7  A    between atoms: C_12  and  O_13
REMARK    8  A    between atoms: O_13  and  C_14
REMARK    9  A    between atoms: C_14  and  C_16
REMARK   10  A    between atoms: C_16  and  C_17
REMARK   11  A    between atoms: C_17  and  C_19
REMARK   12  A    between atoms: C_17  and  N_25
REMARK   13  A    between atoms: C_29  and  C_30
REMARK                            x       y       z     vdW  Elec       q    Type
REMARK                         _______ _______ _______ _____ _____    ______ ____
ROOT
ATOM      1  N   UNL     1      -2.837   0.471   0.708  0.00  0.00    -0.268 N 
ATOM      2  C   UNL     1      -3.679   1.513   0.556  0.00  0.00    +0.256 C 
ATOM      3  O   UNL     1      -3.254   2.648   0.607  0.00  0.00    -0.272 OA
ATOM      4  H   UNL     1      -3.171  -0.437   0.634  0.00  0.00    +0.156 HD
ENDROOT
BRANCH   1   9
ATOM      5  C   UNL     1       1.498   2.041   2.778  0.00  0.00    +0.047 C 
ATOM      6  C   UNL     1       0.481   1.388   1.877  0.00  0.00    -0.011 A 
ATOM      7  C   UNL     1       0.735   0.644   0.788  0.00  0.00    +0.022 A 
ATOM      8  N   UNL     1      -0.448   0.229   0.238  0.00  0.00    -0.327 N 
ATOM      9  C   UNL     1      -1.493   0.697   0.968  0.00  0.00    +0.124 A 
ATOM     10  C   UNL     1      -0.979   1.444   2.018  0.00  0.00    +0.095 A 
ATOM     11  C   UNL     1       2.106   0.315   0.257  0.00  0.00    +0.064 C 
BRANCH  10  12
ATOM     12  C   UNL     1      -1.721   2.125   3.036  0.00  0.00    +0.103 C 
ATOM     13  N   UNL     1      -2.310   2.665   3.844  0.00  0.00    -0.191 NA
ENDBRANCH  10  12
BRANCH   8  14
ATOM     14  C   UNL     1      -0.569  -0.603  -0.962  0.00  0.00    +0.158 C 
BRANCH  14  15
ATOM     15  C   UNL     1      -0.499  -2.058  -0.573  0.00  0.00    -0.028 A 
ATOM     16  C   UNL     1       0.728  -2.685  -0.462  0.00  0.00    +0.008 A 
ATOM     17  C   UNL     1       0.794  -4.017  -0.101  0.00  0.00    +0.038 A 
ATOM     18  C   UNL     1      -0.370  -4.727   0.140  0.00  0.00    +0.123 A 
ATOM     19  C   UNL     1      -1.599  -4.099   0.023  0.00  0.00    +0.038 A 
ATOM     20  C   UNL     1      -1.662  -2.765  -0.333  0.00  0.00    +0.008 A 
ATOM     21  F   UNL     1      -0.308  -6.030   0.488  0.00  0.00    -0.205 F 
ENDBRANCH  14  15
ENDBRANCH   8  14
ENDBRANCH   1   9
BRANCH   2  22
ATOM     22  C   UNL     1      -5.147   1.267   0.325  0.00  0.00    +0.328 C 
BRANCH  22  23
ATOM     23  O   UNL     1      -5.836   2.539   0.194  0.00  0.00    -0.455 OA
BRANCH  23  24
ATOM     24  C   UNL     1      -7.160   2.496  -0.018  0.00  0.00    +0.310 C 
ATOM     25  O   UNL     1      -7.726   1.431  -0.092  0.00  0.00    -0.251 OA
BRANCH  24  26
ATOM     26  C   UNL     1      -7.942   3.776  -0.163  0.00  0.00    +0.147 C 
BRANCH  26  27
ATOM     27  C   UNL     1      -9.419   3.448  -0.395  0.00  0.00    +0.115 C 
BRANCH  27  28
ATOM     28  N   UNL     1      -9.569   2.755  -1.676  0.00  0.00    -0.292 N 
ATOM     29  C   UNL     1      -9.301   3.401  -2.828  0.00  0.00    +0.298 C 
ATOM     30  O   UNL     1      -8.858   4.533  -2.801  0.00  0.00    -0.253 OA
ATOM     31  N   UNL     1      -9.522   2.792  -4.010  0.00  0.00    -0.313 N 
ATOM     32  H   UNL     1      -9.863   1.830  -1.696  0.00  0.00    +0.151 HD
ATOM     33  H   UNL     1      -9.875   1.888  -4.031  0.00  0.00    +0.146 HD
ATOM     34  H   UNL     1      -9.329   3.257  -4.839  0.00  0.00    +0.146 HD
ENDBRANCH  27  28
BRANCH  27  35
ATOM     35  C   UNL     1     -10.219   4.725  -0.417  0.00  0.00    -0.027 A 
ATOM     36  C   UNL     1      -9.716   5.867   0.177  0.00  0.00    +0.005 A 
ATOM     37  C   UNL     1     -10.448   7.039   0.152  0.00  0.00    +0.000 A 
ATOM     38  C   UNL     1     -11.688   7.067  -0.459  0.00  0.00    +0.000 A 
ATOM     39  C   UNL     1     -12.193   5.924  -1.049  0.00  0.00    +0.000 A 
ATOM     40  C   UNL     1     -11.459   4.753  -1.028  0.00  0.00    +0.005 A 
ENDBRANCH  27  35
ENDBRANCH  26  27
ENDBRANCH  24  26
ENDBRANCH  23  24
ENDBRANCH  22  23
ENDBRANCH   2  22
TORSDOF 11
