REMARK  Name = ZINC62794229
REMARK  6 active torsions:
REMARK  status: ('A' for Active; 'I' for Inactive)
REMARK    1  A    between atoms: C_3  and  N_11
REMARK    2  A    between atoms: C_6  and  C_7
REMARK    3  A    between atoms: N_11  and  C_12
REMARK    4  A    between atoms: N_11  and  C_15
REMARK    5  A    between atoms: C_12  and  C_13
REMARK    6  A    between atoms: C_13  and  O_14
REMARK                            x       y       z     vdW  Elec       q    Type
REMARK                         _______ _______ _______ _____ _____    ______ ____
ROOT
ATOM      1  C   UNL     1      -0.017   1.393   0.010  0.00  0.00    +0.013 A 
ATOM      2  C   UNL     1       1.167   2.096   0.002  0.00  0.00    +0.025 A 
ATOM      3  C   UNL     1       2.381   1.418  -0.013  0.00  0.00    +0.049 A 
ATOM      4  C   UNL     1       2.404   0.025  -0.021  0.00  0.00    +0.063 A 
ATOM      5  C   UNL     1       1.223  -0.684  -0.014  0.00  0.00    +0.033 A 
ATOM      6  C   UNL     1       0.002  -0.004   0.002  0.00  0.00    +0.014 A 
ATOM      7 CL   UNL     1       3.921  -0.818  -0.041  0.00  0.00    -0.082 Cl
ENDROOT
BRANCH   6   8
ATOM      8  C   UNL     1      -1.266  -0.761   0.011  0.00  0.00    +0.094 C 
ATOM      9  N   UNL     1      -1.246  -2.094   0.003  0.00  0.00    -0.387 N 
ATOM     10  N   UNL     1      -2.430  -0.112   0.026  0.00  0.00    -0.345 N 
ATOM     11  H   UNL     1      -0.399  -2.566  -0.008  0.00  0.00    +0.157 HD
ATOM     12  H   UNL     1      -2.444   0.858   0.031  0.00  0.00    +0.144 HD
ATOM     13  H   UNL     1      -3.263  -0.609   0.031  0.00  0.00    +0.144 HD
ATOM     14  H   UNL     1      -2.079  -2.591   0.009  0.00  0.00    +0.157 HD
ENDBRANCH   6   8
BRANCH   3  15
ATOM     15  N   UNL     1       3.576   2.132  -0.021  0.00  0.00    -0.324 N 
BRANCH  15  16
ATOM     16  C   UNL     1       4.192   2.515  -1.293  0.00  0.00    +0.074 C 
ATOM     17  C   UNL     1       3.226   3.402  -2.082  0.00  0.00    +0.022 C 
ATOM     18  C   UNL     1       3.870   3.801  -3.411  0.00  0.00    +0.002 C 
ATOM     19  C   UNL     1       4.186   2.544  -4.223  0.00  0.00    +0.000 C 
ATOM     20  C   UNL     1       5.152   1.657  -3.434  0.00  0.00    +0.002 C 
ATOM     21  C   UNL     1       4.508   1.257  -2.105  0.00  0.00    +0.022 C 
ENDBRANCH  15  16
BRANCH  15  22
ATOM     22  C   UNL     1       4.216   2.501   1.244  0.00  0.00    +0.133 C 
BRANCH  22  23
ATOM     23  C   UNL     1       5.180   1.392   1.671  0.00  0.00    +0.174 C 
BRANCH  23  24
ATOM     24  O   UNL     1       6.244   1.294   0.722  0.00  0.00    -0.393 OA
ATOM     25  H   UNL     1       6.894   0.609   0.929  0.00  0.00    +0.209 HD
ENDBRANCH  23  24
ENDBRANCH  22  23
ENDBRANCH  15  22
ENDBRANCH   3  15
TORSDOF 6
