REMARK  Name = ZINC04308488
REMARK  5 active torsions:
REMARK  status: ('A' for Active; 'I' for Inactive)
REMARK    1  A    between atoms: C_1  and  C_2
REMARK    2  A    between atoms: C_2  and  C_3
REMARK    3  A    between atoms: C_3  and  C_17
REMARK    4  A    between atoms: N_6  and  C_10
REMARK    5  A    between atoms: C_10  and  C_11
REMARK                            x       y       z     vdW  Elec       q    Type
REMARK                         _______ _______ _______ _____ _____    ______ ____
ROOT
ATOM      1  C   UNL     1       4.671  -3.346   0.574  0.00  0.00    +0.138 C 
ATOM      2  C   UNL     1       3.314  -2.887   1.070  0.00  0.00    +0.251 C 
ATOM      3  O   UNL     1       2.958  -2.769   2.223  0.00  0.00    -0.272 OA
ATOM      4  N   UNL     1       2.586  -2.638  -0.037  0.00  0.00    -0.215 N 
ATOM      5  C   UNL     1       3.286  -2.879  -1.152  0.00  0.00    +0.310 C 
ATOM      6  O   UNL     1       2.841  -2.731  -2.273  0.00  0.00    -0.252 OA
ATOM      7  N   UNL     1       4.537  -3.298  -0.893  0.00  0.00    -0.281 N 
ATOM      8  H   UNL     1       5.218  -3.527  -1.544  0.00  0.00    +0.152 HD
ENDROOT
BRANCH   1   9
ATOM      9  C   UNL     1       5.752  -2.406   1.042  0.00  0.00    -0.015 A 
ATOM     10  C   UNL     1       6.395  -2.637   2.244  0.00  0.00    +0.009 A 
ATOM     11  C   UNL     1       7.391  -1.780   2.672  0.00  0.00    +0.039 A 
ATOM     12  C   UNL     1       7.736  -0.682   1.901  0.00  0.00    +0.123 A 
ATOM     13  C   UNL     1       7.088  -0.449   0.700  0.00  0.00    +0.039 A 
ATOM     14  C   UNL     1       6.097  -1.312   0.272  0.00  0.00    +0.009 A 
ATOM     15  F   UNL     1       8.705   0.160   2.321  0.00  0.00    -0.205 F 
ENDBRANCH   1   9
BRANCH   1  17
ATOM     16  C   UNL     1       3.951  -5.733   0.408  0.00  0.00    +0.007 C 
ATOM     17  C   UNL     1       4.960  -4.774   1.042  0.00  0.00    +0.037 C 
ENDBRANCH   1  17
BRANCH   4  18
ATOM     18  C   UNL     1       1.199  -2.169  -0.021  0.00  0.00    +0.214 C 
BRANCH  18  19
ATOM     19  C   UNL     1       1.178  -0.662  -0.013  0.00  0.00    +0.238 C 
ATOM     20  O   UNL     1       2.220  -0.042  -0.019  0.00  0.00    -0.274 OA
ATOM     21  N   UNL     1       0.002  -0.004   0.002  0.00  0.00    -0.239 N 
ATOM     22  C   UNL     1      -0.016   1.344   0.009  0.00  0.00    +0.303 C 
ATOM     23  O   UNL     1       1.028   1.966   0.003  0.00  0.00    -0.253 OA
ATOM     24  N   UNL     1      -1.192   2.002   0.019  0.00  0.00    -0.313 N 
ATOM     25  H   UNL     1      -0.831  -0.500   0.007  0.00  0.00    +0.159 HD
ATOM     26  H   UNL     1      -2.026   1.505   0.020  0.00  0.00    +0.146 HD
ATOM     27  H   UNL     1      -1.206   2.971   0.024  0.00  0.00    +0.146 HD
ENDBRANCH  18  19
ENDBRANCH   4  18
TORSDOF 4
