REMARK  Name = ZINC66057741
REMARK  3 active torsions:
REMARK  status: ('A' for Active; 'I' for Inactive)
REMARK    1  A    between atoms: N_13  and  C_17
REMARK    2  A    between atoms: C_17  and  C_18
REMARK    3  A    between atoms: C_21  and  N_24
REMARK                            x       y       z     vdW  Elec       q    Type
REMARK                         _______ _______ _______ _____ _____    ______ ____
ROOT
ATOM      1  C   UNL     1      -0.017   1.375   0.010  0.00  0.00    +0.000 A 
ATOM      2  C   UNL     1       1.174   2.078   0.002  0.00  0.00    +0.000 A 
ATOM      3  C   UNL     1       2.372   1.395  -0.017  0.00  0.00    +0.004 A 
ATOM      4  C   UNL     1       2.393   0.006  -0.027  0.00  0.00    -0.042 A 
ATOM      5  C   UNL     1       1.208  -0.694  -0.013  0.00  0.00    -0.044 A 
ATOM      6  C   UNL     1       0.002  -0.004   0.002  0.00  0.00    +0.004 A 
ATOM      7  C   UNL     1       1.151  -2.200  -0.003  0.00  0.00    +0.038 C 
ATOM      8  C   UNL     1       2.485  -2.794  -0.452  0.00  0.00    +0.040 C 
ATOM      9  C   UNL     1       3.604  -2.135   0.351  0.00  0.00    +0.117 C 
ATOM     10  C   UNL     1       3.737  -0.675  -0.056  0.00  0.00    +0.070 C 
ATOM     11  C   UNL     1       3.334  -2.256   1.832  0.00  0.00    +0.247 C 
ATOM     12  O   UNL     1       2.387  -1.810   2.445  0.00  0.00    -0.273 OA
ATOM     13  N   UNL     1       4.368  -2.965   2.329  0.00  0.00    -0.220 N 
ATOM     14  C   UNL     1       5.241  -3.302   1.371  0.00  0.00    +0.310 C 
ATOM     15  O   UNL     1       6.253  -3.943   1.574  0.00  0.00    -0.252 OA
ATOM     16  N   UNL     1       4.870  -2.850   0.157  0.00  0.00    -0.285 N 
ATOM     17  H   UNL     1       5.346  -2.974  -0.679  0.00  0.00    +0.151 HD
ENDROOT
BRANCH  13  18
ATOM     18  C   UNL     1       4.519  -3.323   3.742  0.00  0.00    +0.153 C 
BRANCH  18  19
ATOM     19  C   UNL     1       3.853  -4.650   3.998  0.00  0.00    -0.029 A 
ATOM     20  C   UNL     1       2.520  -4.697   4.361  0.00  0.00    +0.007 A 
ATOM     21  C   UNL     1       1.910  -5.915   4.596  0.00  0.00    +0.033 A 
ATOM     22  C   UNL     1       2.633  -7.086   4.467  0.00  0.00    +0.126 A 
ATOM     23  C   UNL     1       3.966  -7.040   4.103  0.00  0.00    +0.033 A 
ATOM     24  C   UNL     1       4.575  -5.822   3.864  0.00  0.00    +0.007 A 
BRANCH  22  25
ATOM     25  N   UNL     1       1.980  -8.390   4.719  0.00  0.00    +0.056 N 
ATOM     26  O   UNL     1       0.814  -8.431   5.038  0.00  0.00    -0.126 OA
ATOM     27  O   UNL     1       2.612  -9.415   4.606  0.00  0.00    -0.126 OA
ENDBRANCH  22  25
ENDBRANCH  18  19
ENDBRANCH  13  18
TORSDOF 3
