REMARK  Name = ZINC44628817
REMARK  9 active torsions:
REMARK  status: ('A' for Active; 'I' for Inactive)
REMARK    1  A    between atoms: C_1  and  C_2
REMARK    2  A    between atoms: C_2  and  C_4
REMARK    3  A    between atoms: C_2  and  N_17
REMARK    4  A    between atoms: C_7  and  N_10
REMARK    5  A    between atoms: N_13  and  C_14
REMARK    6  A    between atoms: C_18  and  C_20
REMARK    7  A    between atoms: C_20  and  C_21
REMARK    8  A    between atoms: C_21  and  C_22
REMARK    9  A    between atoms: C_27  and  O_28
REMARK                            x       y       z     vdW  Elec       q    Type
REMARK                         _______ _______ _______ _____ _____    ______ ____
ROOT
ATOM      1  C   UNL     1       0.002   1.489   0.238  0.00  0.00    +0.033 C 
ATOM      2  C   UNL     1       0.010  -0.025   0.017  0.00  0.00    +0.100 C 
ENDROOT
BRANCH   2   3
ATOM      3  C   UNL     1      -1.406  -0.541   0.024  0.00  0.00    -0.027 A 
ATOM      4  C   UNL     1      -2.059  -0.749   1.225  0.00  0.00    +0.007 A 
ATOM      5  C   UNL     1      -3.357  -1.222   1.234  0.00  0.00    +0.023 A 
ATOM      6  C   UNL     1      -4.006  -1.488   0.036  0.00  0.00    +0.035 A 
ATOM      7  C   UNL     1      -3.347  -1.279  -1.168  0.00  0.00    +0.023 A 
ATOM      8  C   UNL     1      -2.051  -0.801  -1.171  0.00  0.00    +0.007 A 
BRANCH   6   9
ATOM      9  N   UNL     1      -5.320  -1.968   0.042  0.00  0.00    -0.269 N 
ATOM     10  C   UNL     1      -6.177  -1.575   1.006  0.00  0.00    +0.304 C 
ATOM     11  O   UNL     1      -5.838  -0.730   1.812  0.00  0.00    -0.253 OA
ATOM     12  N   UNL     1      -7.408  -2.117   1.075  0.00  0.00    -0.296 N 
ATOM     13  H   UNL     1      -5.615  -2.584  -0.647  0.00  0.00    +0.156 HD
ATOM     14  H   UNL     1      -7.678  -2.791   0.432  0.00  0.00    +0.151 HD
BRANCH  12  15
ATOM     15  C   UNL     1      -8.339  -1.690   2.123  0.00  0.00    +0.075 C 
ATOM     16  C   UNL     1      -9.137  -2.776   2.846  0.00  0.00    +0.024 C 
ATOM     17  C   UNL     1      -9.835  -1.851   1.847  0.00  0.00    +0.024 C 
ENDBRANCH  12  15
ENDBRANCH   6   9
ENDBRANCH   2   3
BRANCH   2  18
ATOM     18  N   UNL     1       0.770  -0.671   1.090  0.00  0.00    -0.309 N 
ATOM     19  C   UNL     1       2.110  -0.780   0.995  0.00  0.00    +0.214 C 
ATOM     20  O   UNL     1       2.687  -0.344   0.021  0.00  0.00    -0.276 OA
ATOM     21  H   UNL     1       0.309  -1.020   1.869  0.00  0.00    +0.149 HD
BRANCH  19  22
ATOM     22  C   UNL     1       2.892  -1.445   2.098  0.00  0.00    +0.100 C 
BRANCH  22  23
ATOM     23  C   UNL     1       4.381  -1.437   1.744  0.00  0.00    +0.048 C 
BRANCH  23  24
ATOM     24  C   UNL     1       5.163  -2.102   2.848  0.00  0.00    -0.005 A 
ATOM     25  C   UNL     1       5.730  -1.339   3.850  0.00  0.00    +0.007 A 
ATOM     26  C   UNL     1       6.448  -1.948   4.862  0.00  0.00    +0.000 A 
ATOM     27  C   UNL     1       6.600  -3.322   4.875  0.00  0.00    +0.004 A 
ATOM     28  C   UNL     1       6.035  -4.090   3.875  0.00  0.00    +0.045 A 
ATOM     29  C   UNL     1       5.309  -3.481   2.861  0.00  0.00    +0.120 A 
BRANCH  29  30
ATOM     30  O   UNL     1       4.747  -4.235   1.879  0.00  0.00    -0.506 OA
ATOM     31  H   UNL     1       5.323  -4.379   1.116  0.00  0.00    +0.292 HD
ENDBRANCH  29  30
ENDBRANCH  23  24
ENDBRANCH  22  23
ENDBRANCH  19  22
ENDBRANCH   2  18
TORSDOF 8
