REMARK  Name = ZINC38994414
REMARK  6 active torsions:
REMARK  status: ('A' for Active; 'I' for Inactive)
REMARK    1  A    between atoms: C_1  and  C_2
REMARK    2  A    between atoms: C_4  and  C_15
REMARK    3  A    between atoms: C_5  and  C_14
REMARK    4  A    between atoms: N_7  and  C_8
REMARK    5  A    between atoms: N_16  and  N_17
REMARK    6  A    between atoms: C_18  and  C_24
REMARK                            x       y       z     vdW  Elec       q    Type
REMARK                         _______ _______ _______ _____ _____    ______ ____
ROOT
ATOM      1  C   UNL     1      -2.456  -0.328  -0.836  0.00  0.00    +0.137 C 
ATOM      2  N   UNL     1      -3.623  -0.875  -0.644  0.00  0.00    -0.184 NA
ENDROOT
BRANCH   1   5
ATOM      3  C   UNL     1      -0.043   1.552   0.046  0.00  0.00    +0.035 C 
ATOM      4  C   UNL     1      -0.008   0.023   0.024  0.00  0.00    +0.124 C 
ATOM      5  C   UNL     1      -1.411  -0.539   0.100  0.00  0.00    +0.012 C 
ATOM      6  C   UNL     1      -1.481  -1.273   1.222  0.00  0.00    +0.025 C 
ATOM      7  N   UNL     1      -0.292  -1.268   1.903  0.00  0.00    -0.267 N 
ATOM      8  N   UNL     1       0.664  -0.494   1.227  0.00  0.00    -0.246 N 
ATOM      9  C   UNL     1      -2.715  -2.010   1.676  0.00  0.00    +0.062 C 
ATOM     10  H   UNL     1      -0.132  -1.737   2.737  0.00  0.00    +0.170 HD
BRANCH   8  11
ATOM     11  C   UNL     1       1.985  -0.260   1.616  0.00  0.00    +0.048 A 
ATOM     12  C   UNL     1       2.809   0.541   0.835  0.00  0.00    +0.025 A 
ATOM     13  C   UNL     1       4.115   0.771   1.223  0.00  0.00    +0.002 A 
ATOM     14  C   UNL     1       4.602   0.205   2.387  0.00  0.00    +0.000 A 
ATOM     15  C   UNL     1       3.784  -0.592   3.166  0.00  0.00    +0.002 A 
ATOM     16  C   UNL     1       2.476  -0.822   2.787  0.00  0.00    +0.025 A 
ENDBRANCH   8  11
ENDBRANCH   1   5
BRANCH   2  17
ATOM     17  N   UNL     1      -4.685  -0.582  -1.510  0.00  0.00    -0.172 N 
ATOM     18  C   UNL     1      -6.093  -1.000  -1.384  0.00  0.00    +0.265 C 
ATOM     19  N   UNL     1      -6.743  -0.409  -2.564  0.00  0.00    -0.189 NA
ATOM     20  N   UNL     1      -5.886   0.204  -3.206  0.00  0.00    -0.219 N 
ATOM     21  C   UNL     1      -4.649   0.152  -2.643  0.00  0.00    +0.174 C 
ATOM     22  S   UNL     1      -3.250   0.904  -3.280  0.00  0.00    -0.015 S 
ATOM     23  H   UNL     1      -6.077   0.680  -4.029  0.00  0.00    +0.176 HD
BRANCH  18  24
ATOM     24  C   UNL     1      -6.204  -2.503  -1.413  0.00  0.00    +0.016 A 
ATOM     25  C   UNL     1      -7.339  -3.114  -1.926  0.00  0.00    +0.010 A 
ATOM     26  C   UNL     1      -7.396  -4.499  -1.933  0.00  0.00    +0.020 A 
ATOM     27  C   UNL     1      -6.329  -5.220  -1.432  0.00  0.00    +0.111 A 
ATOM     28  N   UNL     1      -5.265  -4.605  -0.953  0.00  0.00    -0.263 NA
ATOM     29  C   UNL     1      -5.173  -3.290  -0.936  0.00  0.00    +0.118 A 
ENDBRANCH  18  24
ENDBRANCH   2  17
TORSDOF 4
