REMARK  Name = ZINC04828885
REMARK  9 active torsions:
REMARK  status: ('A' for Active; 'I' for Inactive)
REMARK    1  A    between atoms: C_1  and  C_2
REMARK    2  A    between atoms: C_3  and  C_29
REMARK    3  A    between atoms: C_11  and  C_13
REMARK    4  A    between atoms: C_13  and  C_15
REMARK    5  A    between atoms: C_13  and  O_16
REMARK    6  A    between atoms: O_16  and  C_17
REMARK    7  A    between atoms: C_17  and  C_19
REMARK    8  A    between atoms: C_23  and  N_26
REMARK    9  A    between atoms: C_24  and  C_25
REMARK                            x       y       z     vdW  Elec       q    Type
REMARK                         _______ _______ _______ _____ _____    ______ ____
ROOT
ATOM      1  C   UNL     1      -2.588   0.287  -0.363  0.00  0.00    +0.239 C 
ATOM      2  C   UNL     1      -3.747   1.197  -0.774  0.00  0.00    +0.060 C 
ENDROOT
BRANCH   1  13
ATOM      3  C   UNL     1       3.622   2.732  -1.003  0.00  0.00    +0.045 C 
ATOM      4  C   UNL     1       2.217   3.279  -0.978  0.00  0.00    -0.026 A 
ATOM      5  C   UNL     1       1.999   4.597  -1.110  0.00  0.00    -0.008 A 
ATOM      6  S   UNL     1       0.224   4.732  -1.016  0.00  0.00    -0.073 S 
ATOM      7  C   UNL     1      -0.172   3.016  -0.802  0.00  0.00    +0.116 A 
ATOM      8  C   UNL     1       1.086   2.386  -0.810  0.00  0.00    +0.075 A 
ATOM      9  C   UNL     1       1.066   0.962  -0.651  0.00  0.00    +0.260 A 
ATOM     10  O   UNL     1       2.106   0.326  -0.645  0.00  0.00    -0.267 OA
ATOM     11  N   UNL     1      -0.118   0.339  -0.509  0.00  0.00    -0.307 N 
ATOM     12  H   UNL     1      -0.138  -0.655  -0.394  0.00  0.00    +0.170 HD
ATOM     13  C   UNL     1      -1.286   1.030  -0.519  0.00  0.00    +0.152 A 
ATOM     14  N   UNL     1      -1.302   2.329  -0.657  0.00  0.00    -0.223 NA
ATOM     15  C   UNL     1       3.011   5.698  -1.294  0.00  0.00    +0.052 C 
ENDBRANCH   1  13
BRANCH   1  16
ATOM     16  O   UNL     1      -2.754  -0.112   1.024  0.00  0.00    -0.450 OA
BRANCH  16  17
ATOM     17  C   UNL     1      -3.453  -1.240   1.256  0.00  0.00    +0.340 C 
ATOM     18  O   UNL     1      -3.911  -1.873   0.326  0.00  0.00    -0.245 OA
BRANCH  17  19
ATOM     19  C   UNL     1      -3.661  -1.707   2.642  0.00  0.00    +0.064 A 
ATOM     20  C   UNL     1      -3.027  -1.058   3.704  0.00  0.00    +0.015 A 
ATOM     21  C   UNL     1      -3.227  -1.500   4.995  0.00  0.00    +0.003 A 
ATOM     22  C   UNL     1      -4.054  -2.582   5.239  0.00  0.00    +0.033 A 
ATOM     23  C   UNL     1      -4.685  -3.229   4.192  0.00  0.00    +0.130 A 
ATOM     24  C   UNL     1      -4.498  -2.795   2.896  0.00  0.00    -0.006 A 
ATOM     25  C   UNL     1      -5.191  -3.498   1.757  0.00  0.00    +0.047 C 
BRANCH  23  26
ATOM     26  N   UNL     1      -5.568  -4.386   4.463  0.00  0.00    +0.057 N 
ATOM     27  O   UNL     1      -5.837  -4.691   5.612  0.00  0.00    -0.126 OA
ATOM     28  O   UNL     1      -6.026  -5.033   3.538  0.00  0.00    -0.126 OA
ENDBRANCH  23  26
ENDBRANCH  17  19
ENDBRANCH  16  17
ENDBRANCH   1  16
TORSDOF 5
