REMARK  Name = ZINC45699305
REMARK  11 active torsions:
REMARK  status: ('A' for Active; 'I' for Inactive)
REMARK    1  A    between atoms: C_1  and  C_2
REMARK    2  A    between atoms: C_2  and  C_3
REMARK    3  A    between atoms: C_6  and  C_9
REMARK    4  A    between atoms: C_9  and  C_11
REMARK    5  A    between atoms: C_9  and  N_14
REMARK    6  A    between atoms: C_11  and  C_12
REMARK    7  A    between atoms: C_11  and  C_13
REMARK    8  A    between atoms: N_17  and  C_18
REMARK    9  A    between atoms: C_21  and  O_24
REMARK   10  A    between atoms: O_24  and  C_25
REMARK   11  A    between atoms: C_25  and  C_26
REMARK                            x       y       z     vdW  Elec       q    Type
REMARK                         _______ _______ _______ _____ _____    ______ ____
ROOT
ATOM      1  N   UNL     1      -6.193  -1.334  -1.005  0.00  0.00    -0.292 N 
ATOM      2  C   UNL     1      -7.533  -1.240  -0.897  0.00  0.00    +0.304 C 
ATOM      3  O   UNL     1      -8.099  -1.709   0.072  0.00  0.00    -0.252 OA
ATOM      4  N   UNL     1      -8.245  -0.627  -1.863  0.00  0.00    -0.269 N 
ATOM      5  H   UNL     1      -5.741  -0.961  -1.778  0.00  0.00    +0.151 HD
ATOM      6  H   UNL     1      -7.789  -0.195  -2.602  0.00  0.00    +0.156 HD
ENDROOT
BRANCH   4   7
ATOM      7  C   UNL     1      -9.645  -0.613  -1.799  0.00  0.00    +0.035 A 
ATOM      8  C   UNL     1     -10.394  -0.691  -2.966  0.00  0.00    +0.027 A 
ATOM      9  C   UNL     1     -11.774  -0.678  -2.903  0.00  0.00    +0.047 A 
ATOM     10  C   UNL     1     -12.411  -0.588  -1.674  0.00  0.00    +0.121 A 
ATOM     11  C   UNL     1     -11.664  -0.509  -0.508  0.00  0.00    +0.047 A 
ATOM     12  C   UNL     1     -10.284  -0.528  -0.570  0.00  0.00    +0.027 A 
BRANCH  10  13
ATOM     13  O   UNL     1     -13.770  -0.575  -1.612  0.00  0.00    -0.483 OA
BRANCH  13  14
ATOM     14  C   UNL     1     -14.359  -0.480  -0.314  0.00  0.00    +0.324 C 
BRANCH  14  15
ATOM     15  C   UNL     1     -15.861  -0.480  -0.443  0.00  0.00    +0.248 C 
ATOM     16  O   UNL     1     -16.375  -0.554  -1.539  0.00  0.00    -0.272 OA
ATOM     17  N   UNL     1     -16.632  -0.398   0.659  0.00  0.00    -0.327 N 
ATOM     18  H   UNL     1     -16.220  -0.338   1.535  0.00  0.00    +0.145 HD
ATOM     19  H   UNL     1     -17.598  -0.398   0.576  0.00  0.00    +0.145 HD
ENDBRANCH  14  15
ENDBRANCH  13  14
ENDBRANCH  10  13
ENDBRANCH   4   7
BRANCH   1  20
ATOM     20  C   UNL     1      -5.418  -2.001   0.045  0.00  0.00    +0.107 C 
BRANCH  20  24
ATOM     21  C   UNL     1      -1.418  -0.503   0.034  0.00  0.00    -0.048 A 
ATOM     22  C   UNL     1      -2.059  -0.753   1.233  0.00  0.00    +0.004 A 
ATOM     23  C   UNL     1      -3.354  -1.237   1.236  0.00  0.00    +0.006 A 
ATOM     24  C   UNL     1      -4.007  -1.472   0.041  0.00  0.00    -0.027 A 
ATOM     25  C   UNL     1      -3.366  -1.222  -1.158  0.00  0.00    +0.006 A 
ATOM     26  C   UNL     1      -2.073  -0.733  -1.161  0.00  0.00    +0.004 A 
BRANCH  21  28
ATOM     27  C   UNL     1      -0.035   1.555   0.046  0.00  0.00    +0.009 C 
ATOM     28  C   UNL     1      -0.007   0.025   0.030  0.00  0.00    +0.032 C 
ENDBRANCH  21  28
ENDBRANCH  20  24
BRANCH  20  29
ATOM     29  C   UNL     1      -5.398  -3.509  -0.216  0.00  0.00    +0.008 C 
ATOM     30  C   UNL     1      -4.590  -4.205   0.880  0.00  0.00    +0.009 C 
ATOM     31  C   UNL     1      -6.831  -4.046  -0.212  0.00  0.00    +0.009 C 
ENDBRANCH  20  29
ENDBRANCH   1  20
TORSDOF 8
