REMARK  Name = ZINC09972531
REMARK  8 active torsions:
REMARK  status: ('A' for Active; 'I' for Inactive)
REMARK    1  A    between atoms: C_1  and  C_2
REMARK    2  A    between atoms: C_2  and  C_3
REMARK    3  A    between atoms: C_3  and  C_4
REMARK    4  A    between atoms: C_4  and  N_5
REMARK    5  A    between atoms: C_11  and  C_25
REMARK    6  A    between atoms: C_13  and  O_24
REMARK    7  A    between atoms: C_15  and  O_22
REMARK    8  A    between atoms: C_15  and  O_23
REMARK                            x       y       z     vdW  Elec       q    Type
REMARK                         _______ _______ _______ _____ _____    ______ ____
ROOT
ATOM      1  N   UNL     1       2.053  -0.919  -0.370  0.00  0.00    -0.274 N 
ATOM      2  C   UNL     1       1.095  -1.746  -0.919  0.00  0.00    +0.288 C 
ATOM      3  O   UNL     1       1.276  -2.616  -1.746  0.00  0.00    -0.266 OA
ATOM      4  C   UNL     1      -0.228  -1.356  -0.286  0.00  0.00    +0.249 C 
ATOM      5  O   UNL     1      -1.219  -2.033  -0.083  0.00  0.00    -0.282 OA
ATOM      6  C   UNL     1       0.002  -0.004   0.002  0.00  0.00    +0.082 C 
ATOM      7  C   UNL     1      -0.017   1.366   0.010  0.00  0.00    +0.141 C 
ATOM      8  O   UNL     1       1.301   1.831  -0.001  0.00  0.00    -0.453 OA
ATOM      9  C   UNL     1       1.744   1.152   1.167  0.00  0.00    +0.269 C 
ATOM     10  C   UNL     1       1.298  -0.275   0.713  0.00  0.00    +0.198 C 
ATOM     11  C   UNL     1       1.628  -0.980   1.996  0.00  0.00    +0.226 C 
ATOM     12  C   UNL     1       3.057  -0.435   2.187  0.00  0.00    +0.023 A 
ATOM     13  C   UNL     1       3.151   0.814   1.540  0.00  0.00    +0.034 A 
ATOM     14  C   UNL     1       4.364   1.454   1.476  0.00  0.00    +0.010 A 
ATOM     15  C   UNL     1       5.473   0.910   2.100  0.00  0.00    +0.000 A 
ATOM     16  C   UNL     1       5.364  -0.282   2.791  0.00  0.00    +0.000 A 
ATOM     17  C   UNL     1       4.153  -0.950   2.832  0.00  0.00    +0.009 A 
ENDROOT
BRANCH   7  18
ATOM     18  C   UNL     1      -1.224   2.209   0.020  0.00  0.00    +0.017 A 
ATOM     19  C   UNL     1      -2.493   1.619   0.017  0.00  0.00    +0.012 A 
ATOM     20  C   UNL     1      -3.619   2.414   0.032  0.00  0.00    +0.016 A 
ATOM     21  C   UNL     1      -3.497   3.794   0.039  0.00  0.00    +0.018 A 
ATOM     22  C   UNL     1      -2.244   4.385   0.036  0.00  0.00    +0.016 A 
ATOM     23  C   UNL     1      -1.109   3.603   0.027  0.00  0.00    +0.012 A 
ATOM     24 BR   UNL     1      -5.047   4.876   0.051  0.00  0.00    -0.050 Br
ENDBRANCH   7  18
BRANCH  11  25
ATOM     25  O   UNL     1       0.763  -0.574   3.058  0.00  0.00    -0.359 OA
ATOM     26  H   UNL     1       0.947  -1.008   3.903  0.00  0.00    +0.213 HD
ENDBRANCH  11  25
BRANCH  11  27
ATOM     27  O   UNL     1       1.623  -2.400   1.833  0.00  0.00    -0.359 OA
ATOM     28  H   UNL     1       1.831  -2.889   2.640  0.00  0.00    +0.213 HD
ENDBRANCH  11  27
BRANCH   9  29
ATOM     29  O   UNL     1       1.008   1.575   2.317  0.00  0.00    -0.350 OA
ATOM     30  H   UNL     1       1.250   2.455   2.637  0.00  0.00    +0.214 HD
ENDBRANCH   9  29
BRANCH   1  31
ATOM     31  C   UNL     1       3.452  -0.733  -0.762  0.00  0.00    +0.109 C 
BRANCH  31  32
ATOM     32  C   UNL     1       3.546   0.386  -1.801  0.00  0.00    +0.019 C 
BRANCH  32  34
ATOM     33  C   UNL     1       5.102   1.699  -3.249  0.00  0.00    +0.004 C 
ATOM     34  C   UNL     1       5.008   0.580  -2.210  0.00  0.00    -0.002 C 
ENDBRANCH  32  34
ENDBRANCH  31  32
ENDBRANCH   1  31
TORSDOF 7
