REMARK  Name = ZINC51147180
REMARK  6 active torsions:
REMARK  status: ('A' for Active; 'I' for Inactive)
REMARK    1  A    between atoms: C_3  and  N_20
REMARK    2  A    between atoms: C_4  and  C_10
REMARK    3  A    between atoms: C_6  and  N_7
REMARK    4  A    between atoms: C_10  and  N_11
REMARK    5  A    between atoms: C_15  and  C_17
REMARK    6  A    between atoms: N_20  and  N_21
REMARK                            x       y       z     vdW  Elec       q    Type
REMARK                         _______ _______ _______ _____ _____    ______ ____
ROOT
ATOM      1  C   UNL     1      -0.127   1.077  -0.098  0.00  0.00    +0.034 A 
ATOM      2  C   UNL     1      -0.037  -0.231   0.338  0.00  0.00    +0.026 A 
ATOM      3  C   UNL     1       1.198  -0.865   0.378  0.00  0.00    +0.042 A 
ATOM      4  C   UNL     1       2.340  -0.180  -0.021  0.00  0.00    -0.040 A 
ATOM      5  C   UNL     1       2.243   1.127  -0.456  0.00  0.00    +0.036 A 
ATOM      6  C   UNL     1       1.011   1.755  -0.494  0.00  0.00    +0.126 A 
ENDROOT
BRANCH   6   7
ATOM      7  N   UNL     1       0.911   3.156  -0.961  0.00  0.00    +0.056 N 
ATOM      8  O   UNL     1      -0.165   3.706  -0.995  0.00  0.00    -0.126 OA
ATOM      9  O   UNL     1       1.905   3.750  -1.308  0.00  0.00    -0.126 OA
ENDBRANCH   6   7
BRANCH   3  10
ATOM     10  N   UNL     1       1.293  -2.187   0.818  0.00  0.00    -0.283 N 
ATOM     11  H   UNL     1       2.143  -2.652   0.777  0.00  0.00    +0.166 HD
BRANCH  10  12
ATOM     12  N   UNL     1       0.189  -2.825   1.307  0.00  0.00    -0.257 NA
ATOM     13  H   UNL     1       0.409  -3.769   1.585  0.00  0.00    +0.140 HD
ATOM     14  H   UNL     1      -0.218  -2.308   2.072  0.00  0.00    +0.140 HD
ENDBRANCH  10  12
ENDBRANCH   3  10
BRANCH   4  15
ATOM     15  C   UNL     1       3.683  -0.864   0.021  0.00  0.00    -0.040 C 
BRANCH  15  16
ATOM     16  N   UNL     1       4.141  -0.957   1.413  0.00  0.00    +0.390 N 
ATOM     17  C   UNL     1       4.411   0.398   1.940  0.00  0.00    -0.077 C 
ATOM     18  C   UNL     1       5.640   0.225   2.866  0.00  0.00    -0.020 C 
ATOM     19  C   UNL     1       6.471  -0.830   2.090  0.00  0.00    -0.008 C 
ATOM     20  C   UNL     1       5.388  -1.741   1.473  0.00  0.00    +0.019 C 
ATOM     21  H   UNL     1       3.432  -1.403   1.976  0.00  0.00    -0.080 HD
BRANCH  20  22
ATOM     22  C   UNL     1       5.188  -2.958   2.340  0.00  0.00    +0.197 C 
ATOM     23  O   UNL     1       4.112  -3.160   2.861  0.00  0.00    -0.278 OA
ATOM     24  N   UNL     1       6.205  -3.821   2.535  0.00  0.00    -0.331 N 
ATOM     25  H   UNL     1       7.065  -3.659   2.118  0.00  0.00    +0.145 HD
ATOM     26  H   UNL     1       6.075  -4.604   3.092  0.00  0.00    +0.145 HD
ENDBRANCH  20  22
ENDBRANCH  15  16
ENDBRANCH   4  15
TORSDOF 6
