REMARK  Name = ZINC38798814
REMARK  11 active torsions:
REMARK  status: ('A' for Active; 'I' for Inactive)
REMARK    1  A    between atoms: C_1  and  C_2
REMARK    2  A    between atoms: C_2  and  C_3
REMARK    3  A    between atoms: C_2  and  C_4
REMARK    4  A    between atoms: C_2  and  O_5
REMARK    5  A    between atoms: O_5  and  C_6
REMARK    6  A    between atoms: C_12  and  C_15
REMARK    7  A    between atoms: N_17  and  C_18
REMARK    8  A    between atoms: C_21  and  C_24
REMARK    9  A    between atoms: C_24  and  C_25
REMARK   10  A    between atoms: N_31  and  C_32
REMARK   11  A    between atoms: C_32  and  C_33
REMARK                            x       y       z     vdW  Elec       q    Type
REMARK                         _______ _______ _______ _____ _____    ______ ____
ROOT
ATOM      1  C   UNL     1       5.639   0.868  -4.257  0.00  0.00    +0.220 C 
ATOM      2  O   UNL     1       6.196   0.366  -5.210  0.00  0.00    -0.275 OA
ATOM      3  N   UNL     1       6.318   1.694  -3.437  0.00  0.00    -0.287 N 
ATOM      4  H   UNL     1       5.872   2.095  -2.675  0.00  0.00    +0.151 HD
ENDROOT
BRANCH   1  11
ATOM      5  C   UNL     1       1.952  -0.085  -1.337  0.00  0.00    +0.403 C 
ATOM      6  O   UNL     1       2.488   0.619  -0.503  0.00  0.00    -0.226 OA
ATOM      7  N   UNL     1       2.641  -0.485  -2.424  0.00  0.00    -0.267 N 
ATOM      8  C   UNL     1       2.005  -1.331  -3.443  0.00  0.00    +0.111 C 
ATOM      9  C   UNL     1       2.172  -0.664  -4.812  0.00  0.00    +0.020 C 
ATOM     10  C   UNL     1       3.656  -0.387  -5.062  0.00  0.00    +0.016 C 
ATOM     11  C   UNL     1       4.186   0.570  -3.991  0.00  0.00    +0.092 C 
ATOM     12  C   UNL     1       4.040  -0.078  -2.616  0.00  0.00    +0.123 C 
BRANCH   5  13
ATOM     13  O   UNL     1       0.671  -0.465  -1.174  0.00  0.00    -0.445 OA
BRANCH  13  15
ATOM     14  C   UNL     1      -0.019   1.526   0.010  0.00  0.00    +0.055 C 
ATOM     15  C   UNL     1       0.002  -0.004   0.002  0.00  0.00    +0.107 C 
ATOM     16  C   UNL     1       0.742  -0.511   1.242  0.00  0.00    +0.055 C 
ATOM     17  C   UNL     1      -1.433  -0.534   0.013  0.00  0.00    +0.055 C 
ENDBRANCH  13  15
ENDBRANCH   5  13
ENDBRANCH   1  11
BRANCH   3  18
ATOM     18  C   UNL     1       7.731   1.984  -3.695  0.00  0.00    +0.243 C 
ATOM     19  N   UNL     1       8.213   3.099  -2.852  0.00  0.00    -0.221 NA
ATOM     20  C   UNL     1       9.222   2.783  -1.969  0.00  0.00    +0.042 C 
ATOM     21  C   UNL     1       9.730   1.565  -1.877  0.00  0.00    +0.064 C 
ATOM     22  S   UNL     1       8.813   0.625  -3.089  0.00  0.00    -0.088 S 
BRANCH  20  23
ATOM     23  C   UNL     1       9.767   3.866  -1.074  0.00  0.00    +0.129 C 
BRANCH  23  24
ATOM     24  C   UNL     1      10.834   4.636  -1.810  0.00  0.00    +0.138 A 
ATOM     25  H   UNL     1      12.700   5.408  -4.182  0.00  0.00    +0.191 HD
ATOM     26  N   UNL     1      11.222   4.412  -3.024  0.00  0.00    -0.158 NA
ATOM     27  N   UNL     1      12.225   5.339  -3.339  0.00  0.00    -0.254 N 
ATOM     28  C   UNL     1      12.408   6.117  -2.252  0.00  0.00    +0.176 A 
ATOM     29  S   UNL     1      13.521   7.410  -2.107  0.00  0.00    -0.011 S 
ATOM     30  N   UNL     1      11.548   5.693  -1.304  0.00  0.00    -0.303 N 
BRANCH  30  31
ATOM     31  C   UNL     1      11.404   6.262   0.039  0.00  0.00    +0.152 C 
BRANCH  31  32
ATOM     32  C   UNL     1      12.341   5.557   0.986  0.00  0.00    -0.013 C 
ATOM     33  C   UNL     1      13.200   6.248   1.693  0.00  0.00    +0.005 C 
ENDBRANCH  31  32
ENDBRANCH  30  31
ENDBRANCH  23  24
ENDBRANCH  20  23
ENDBRANCH   3  18
TORSDOF 8
