REMARK  Name = ZINC20681805
REMARK  9 active torsions:
REMARK  status: ('A' for Active; 'I' for Inactive)
REMARK    1  A    between atoms: C_1  and  C_2
REMARK    2  A    between atoms: C_4  and  C_40
REMARK    3  A    between atoms: C_6  and  N_8
REMARK    4  A    between atoms: N_8  and  C_9
REMARK    5  A    between atoms: C_9  and  N_11
REMARK    6  A    between atoms: N_11  and  C_12
REMARK    7  A    between atoms: C_14  and  C_34
REMARK    8  A    between atoms: C_17  and  N_18
REMARK    9  A    between atoms: N_36  and  C_37
REMARK                            x       y       z     vdW  Elec       q    Type
REMARK                         _______ _______ _______ _____ _____    ______ ____
ROOT
ATOM      1  C   UNL     1       1.046   2.256   3.171  0.00  0.00    +0.055 A 
ATOM      2  C   UNL     1       2.129   2.048   4.004  0.00  0.00    +0.038 A 
ATOM      3  C   UNL     1       2.601   0.750   4.221  0.00  0.00    +0.039 A 
ATOM      4  C   UNL     1       1.975  -0.333   3.596  0.00  0.00    +0.015 A 
ATOM      5  C   UNL     1       0.892  -0.121   2.772  0.00  0.00    +0.026 A 
ATOM      6  C   UNL     1       0.425   1.169   2.550  0.00  0.00    +0.051 A 
ENDROOT
BRANCH   6   7
ATOM      7  N   UNL     1      -0.667   1.378   1.712  0.00  0.00    -0.328 N 
ATOM      8  C   UNL     1      -0.389   0.895   0.355  0.00  0.00    +0.110 C 
ATOM      9  C   UNL     1      -1.559   1.175  -0.576  0.00  0.00    +0.027 C 
ATOM     10  C   UNL     1      -2.854   0.579  -0.017  0.00  0.00    +0.018 C 
ATOM     11  C   UNL     1      -3.069   1.169   1.382  0.00  0.00    +0.053 C 
ATOM     12  C   UNL     1      -1.879   0.752   2.261  0.00  0.00    +0.114 C 
ATOM     13  C   UNL     1      -3.061   2.678   1.291  0.00  0.00    +0.027 A 
ATOM     14  C   UNL     1      -3.782   3.366   2.215  0.00  0.00    +0.022 A 
ATOM     15  C   UNL     1      -3.770   4.765   2.229  0.00  0.00    +0.007 A 
ATOM     16  C   UNL     1      -3.001   5.426   1.317  0.00  0.00    +0.070 A 
ATOM     17  C   UNL     1      -2.266   4.686   0.380  0.00  0.00    +0.251 A 
ATOM     18  O   UNL     1      -1.528   5.265  -0.402  0.00  0.00    -0.268 OA
ATOM     19  N   UNL     1      -2.367   3.335   0.333  0.00  0.00    -0.312 N 
ATOM     20  C   UNL     1      -1.749   2.664  -0.812  0.00  0.00    +0.130 C 
ENDBRANCH   6   7
BRANCH   3  21
ATOM     21  C   UNL     1       3.757   0.523   5.108  0.00  0.00    +0.244 C 
ATOM     22  O   UNL     1       4.301   1.466   5.651  0.00  0.00    -0.270 OA
ATOM     23  N   UNL     1       4.211  -0.728   5.317  0.00  0.00    -0.308 N 
ATOM     24  H   UNL     1       3.719  -1.581   4.826  0.00  0.00    +0.149 HD
BRANCH  23  25
ATOM     25  C   UNL     1       5.360  -0.954   6.198  0.00  0.00    +0.073 C 
ATOM     26  C   UNL     1       6.429  -1.941   5.726  0.00  0.00    +0.024 C 
ATOM     27  C   UNL     1       5.481  -2.326   6.864  0.00  0.00    +0.024 C 
ENDBRANCH  23  25
ENDBRANCH   3  21
BRANCH   1  28
ATOM     28  N   UNL     1       0.570   3.555   2.951  0.00  0.00    -0.295 N 
ATOM     29  H   UNL     1       0.359   3.898   1.927  0.00  0.00    +0.154 HD
BRANCH  28  30
ATOM     30  C   UNL     1       0.370   4.386   3.994  0.00  0.00    +0.139 C 
ATOM     31  S   UNL     1       0.803   3.893   5.575  0.00  0.00    -0.018 S 
BRANCH  30  32
ATOM     32  N   UNL     1      -0.171   5.603   3.792  0.00  0.00    -0.297 N 
ATOM     33  H   UNL     1      -0.532   5.886   2.792  0.00  0.00    +0.154 HD
BRANCH  32  39
ATOM     34  C   UNL     1      -2.772   8.984   6.237  0.00  0.00    +0.044 C 
ATOM     35  C   UNL     1      -1.522   8.160   6.062  0.00  0.00    -0.048 A 
ATOM     36  C   UNL     1      -0.474   8.298   6.954  0.00  0.00    +0.006 A 
ATOM     37  C   UNL     1       0.675   7.544   6.798  0.00  0.00    -0.048 A 
ATOM     38  C   UNL     1       0.778   6.650   5.751  0.00  0.00    +0.026 A 
ATOM     39  C   UNL     1      -0.273   6.508   4.854  0.00  0.00    +0.033 A 
ATOM     40  C   UNL     1      -1.422   7.272   5.010  0.00  0.00    +0.026 A 
ATOM     41  C   UNL     1       1.814   7.698   7.772  0.00  0.00    +0.044 C 
ENDBRANCH  32  39
ENDBRANCH  30  32
ENDBRANCH  28  30
ENDBRANCH   1  28
TORSDOF 7
