REMARK  Name = ZINC03443227
REMARK  12 active torsions:
REMARK  status: ('A' for Active; 'I' for Inactive)
REMARK    1  A    between atoms: C_1  and  C_2
REMARK    2  A    between atoms: C_2  and  C_3
REMARK    3  A    between atoms: C_3  and  C_4
REMARK    4  A    between atoms: C_4  and  N_5
REMARK    5  A    between atoms: N_5  and  C_6
REMARK    6  A    between atoms: C_7  and  N_22
REMARK    7  A    between atoms: N_8  and  C_15
REMARK    8  A    between atoms: C_15  and  C_16
REMARK    9  A    between atoms: C_23  and  C_25
REMARK   10  A    between atoms: C_25  and  N_26
REMARK   11  A    between atoms: N_26  and  C_27
REMARK   12  A    between atoms: C_32  and  C_33
REMARK                            x       y       z     vdW  Elec       q    Type
REMARK                         _______ _______ _______ _____ _____    ______ ____
ROOT
ATOM      1  C   UNL     1       5.304   7.674   0.002  0.00  0.00    +0.140 A 
ATOM      2  C   UNL     1       6.181   7.303   1.000  0.00  0.00    +0.128 A 
ATOM      3  N   UNL     1       7.441   7.856   1.027  0.00  0.00    -0.276 N 
ATOM      4  C   UNL     1       7.809   8.755   0.096  0.00  0.00    +0.331 A 
ATOM      5  O   UNL     1       8.926   9.235   0.140  0.00  0.00    -0.246 OA
ATOM      6  N   UNL     1       6.966   9.131  -0.882  0.00  0.00    -0.273 N 
ATOM      7  H   UNL     1       7.266   9.801  -1.561  0.00  0.00    +0.173 HD
ATOM      8  C   UNL     1       5.723   8.617  -0.956  0.00  0.00    +0.277 A 
ATOM      9  O   UNL     1       4.967   8.966  -1.846  0.00  0.00    -0.266 OA
ENDROOT
BRANCH   1  10
ATOM     10  N   UNL     1       4.007   7.122  -0.056  0.00  0.00    -0.263 N 
ATOM     11  C   UNL     1       3.845   5.797  -0.256  0.00  0.00    +0.237 C 
ATOM     12  O   UNL     1       4.811   5.094  -0.470  0.00  0.00    -0.274 OA
BRANCH  10  13
ATOM     13  C   UNL     1       2.835   7.987   0.103  0.00  0.00    +0.114 C 
BRANCH  13  14
ATOM     14  C   UNL     1       2.484   8.103   1.587  0.00  0.00    +0.019 C 
BRANCH  14  16
ATOM     15  C   UNL     1       0.909   9.123   3.237  0.00  0.00    +0.004 C 
ATOM     16  C   UNL     1       1.260   9.007   1.752  0.00  0.00    -0.002 C 
ENDBRANCH  14  16
ENDBRANCH  13  14
ENDBRANCH  10  13
BRANCH  11  17
ATOM     17  C   UNL     1       2.466   5.191  -0.213  0.00  0.00    +0.198 C 
BRANCH  17  18
ATOM     18  N   UNL     1       2.559   3.750  -0.459  0.00  0.00    -0.335 N 
ATOM     19  H   UNL     1       3.423   3.339  -0.615  0.00  0.00    +0.147 HD
BRANCH  18  20
ATOM     20  C   UNL     1       1.402   2.967  -0.468  0.00  0.00    +0.033 A 
ATOM     21  C   UNL     1       0.163   3.555  -0.245  0.00  0.00    +0.061 A 
ATOM     22  C   UNL     1      -0.981   2.777  -0.256  0.00  0.00    +0.125 A 
ATOM     23  C   UNL     1      -0.891   1.415  -0.493  0.00  0.00    +0.039 A 
ATOM     24  C   UNL     1       0.342   0.829  -0.710  0.00  0.00    +0.008 A 
ATOM     25  C   UNL     1       1.488   1.601  -0.701  0.00  0.00    -0.029 A 
ATOM     26  C   UNL     1       2.830   0.960  -0.943  0.00  0.00    +0.045 C 
ATOM     27  F   UNL     1      -2.187   3.347  -0.040  0.00  0.00    -0.205 F 
ENDBRANCH  18  20
ENDBRANCH  17  18
ENDBRANCH  11  17
ENDBRANCH   1  10
BRANCH   2  28
ATOM     28  N   UNL     1       5.803   6.389   1.954  0.00  0.00    -0.343 N 
ATOM     29  H   UNL     1       4.883   6.082   1.994  0.00  0.00    +0.144 HD
ATOM     30  H   UNL     1       6.455   6.051   2.588  0.00  0.00    +0.144 HD
ENDBRANCH   2  28
BRANCH   3  31
ATOM     31  C   UNL     1       8.384   7.468   2.078  0.00  0.00    +0.163 C 
BRANCH  31  32
ATOM     32  C   UNL     1       8.222   8.386   3.262  0.00  0.00    -0.028 A 
ATOM     33  C   UNL     1       8.972   9.545   3.346  0.00  0.00    +0.005 A 
ATOM     34  C   UNL     1       8.820  10.389   4.429  0.00  0.00    +0.000 A 
ATOM     35  C   UNL     1       7.926  10.071   5.434  0.00  0.00    +0.000 A 
ATOM     36  C   UNL     1       7.180   8.910   5.353  0.00  0.00    +0.000 A 
ATOM     37  C   UNL     1       7.328   8.067   4.267  0.00  0.00    +0.005 A 
ENDBRANCH  31  32
ENDBRANCH   3  31
TORSDOF 10
