REMARK  Name = ZINC39636626
REMARK  9 active torsions:
REMARK  status: ('A' for Active; 'I' for Inactive)
REMARK    1  A    between atoms: C_1  and  C_2
REMARK    2  A    between atoms: C_5  and  C_37
REMARK    3  A    between atoms: C_6  and  C_8
REMARK    4  A    between atoms: C_8  and  N_9
REMARK    5  A    between atoms: C_10  and  C_12
REMARK    6  A    between atoms: C_23  and  C_25
REMARK    7  A    between atoms: C_26  and  C_36
REMARK    8  A    between atoms: C_29  and  C_30
REMARK    9  A    between atoms: C_32  and  C_35
REMARK                            x       y       z     vdW  Elec       q    Type
REMARK                         _______ _______ _______ _____ _____    ______ ____
ROOT
ATOM      1  C   UNL     1       3.085  -4.431   4.205  0.00  0.00    +0.100 C 
ATOM      2  C   UNL     1       4.035  -3.214   4.273  0.00  0.00    +0.121 C 
ATOM      3  N   UNL     1       4.102  -2.871   5.713  0.00  0.00    -0.296 N 
ATOM      4  C   UNL     1       4.135  -4.183   6.403  0.00  0.00    +0.115 C 
ATOM      5  C   UNL     1       3.156  -5.066   5.604  0.00  0.00    -0.004 C 
ATOM      6  C   UNL     1       1.779  -5.053   6.261  0.00  0.00    -0.010 C 
ATOM      7  C   UNL     1       1.864  -5.741   7.626  0.00  0.00    -0.082 C 
ATOM      8  N   UNL     1       2.333  -7.121   7.453  0.00  0.00    +0.379 N 
ATOM      9  C   UNL     1       3.695  -7.122   6.907  0.00  0.00    -0.082 C 
ATOM     10  C   UNL     1       3.688  -6.493   5.511  0.00  0.00    -0.010 C 
ATOM     11  C   UNL     1       4.127  -1.644   6.270  0.00  0.00    +0.252 C 
ATOM     12  O   UNL     1       4.183  -1.526   7.479  0.00  0.00    -0.270 OA
ATOM     13  H   UNL     1       2.330  -7.590   8.346  0.00  0.00    -0.086 HD
ATOM     14  H   UNL     1       1.717  -7.607   6.819  0.00  0.00    -0.086 HD
ENDROOT
BRANCH  11  15
ATOM     15  C   UNL     1       4.085  -0.446   5.414  0.00  0.00    +0.108 A 
ATOM     16  C   UNL     1       2.922   0.239   4.984  0.00  0.00    +0.093 A 
ATOM     17  N   UNL     1       3.293   1.243   4.245  0.00  0.00    -0.082 NA
ATOM     18  O   UNL     1       4.705   1.254   4.163  0.00  0.00    -0.352 OA
ATOM     19  C   UNL     1       5.178   0.224   4.883  0.00  0.00    +0.201 A 
ATOM     20  C   UNL     1       1.501  -0.130   5.324  0.00  0.00    +0.070 C 
BRANCH  19  21
ATOM     21  C   UNL     1       6.601  -0.132   5.073  0.00  0.00    +0.152 A 
ATOM     22  C   UNL     1       7.714   0.559   4.534  0.00  0.00    +0.079 A 
ATOM     23  C   UNL     1       8.831  -0.073   4.934  0.00  0.00    +0.135 A 
ATOM     24  O   UNL     1       8.473  -1.120   5.693  0.00  0.00    -0.359 OA
ATOM     25  N   UNL     1       7.059  -1.141   5.776  0.00  0.00    -0.075 NA
ATOM     26  C   UNL     1      10.243   0.325   4.589  0.00  0.00    +0.089 C 
ENDBRANCH  19  21
ENDBRANCH  11  15
BRANCH   1  28
ATOM     27  N   UNL     1       0.814  -4.830   3.310  0.00  0.00    -0.311 N 
ATOM     28  C   UNL     1       1.679  -3.983   3.903  0.00  0.00    +0.218 C 
ATOM     29  O   UNL     1       1.325  -2.860   4.193  0.00  0.00    -0.275 OA
ATOM     30  H   UNL     1       1.097  -5.728   3.078  0.00  0.00    +0.149 HD
BRANCH  27  31
ATOM     31  C   UNL     1      -0.553  -4.394   3.017  0.00  0.00    +0.139 C 
BRANCH  31  37
ATOM     32  C   UNL     1      -2.352  -6.576  -1.112  0.00  0.00    +0.044 C 
ATOM     33  C   UNL     1      -2.170  -6.563   0.384  0.00  0.00    -0.050 A 
ATOM     34  C   UNL     1      -2.697  -7.584   1.153  0.00  0.00    +0.003 A 
ATOM     35  C   UNL     1      -2.530  -7.573   2.525  0.00  0.00    +0.004 A 
ATOM     36  C   UNL     1      -1.836  -6.540   3.128  0.00  0.00    -0.046 A 
ATOM     37  C   UNL     1      -1.309  -5.520   2.359  0.00  0.00    -0.027 A 
ATOM     38  C   UNL     1      -1.472  -5.534   0.986  0.00  0.00    +0.008 A 
ATOM     39  C   UNL     1      -1.655  -6.527   4.624  0.00  0.00    +0.044 C 
ENDBRANCH  31  37
ENDBRANCH  27  31
ENDBRANCH   1  28
TORSDOF 5
