REMARK  Name = ZINC21706627
REMARK  11 active torsions:
REMARK  status: ('A' for Active; 'I' for Inactive)
REMARK    1  A    between atoms: C_1  and  C_2
REMARK    2  A    between atoms: C_7  and  N_12
REMARK    3  A    between atoms: C_9  and  C_11
REMARK    4  A    between atoms: C_13  and  C_15
REMARK    5  A    between atoms: C_15  and  N_16
REMARK    6  A    between atoms: C_19  and  C_23
REMARK    7  A    between atoms: C_19  and  C_24
REMARK    8  A    between atoms: C_27  and  C_30
REMARK    9  A    between atoms: C_30  and  C_31
REMARK   10  A    between atoms: C_30  and  C_32
REMARK   11  A    between atoms: C_30  and  C_33
REMARK                            x       y       z     vdW  Elec       q    Type
REMARK                         _______ _______ _______ _____ _____    ______ ____
ROOT
ATOM      1  N   UNL     1       1.048   2.037   0.003  0.00  0.00    -0.215 N 
ATOM      2  C   UNL     1      -0.014   1.208   0.009  0.00  0.00    +0.251 C 
ATOM      3  O   UNL     1       0.002  -0.004   0.002  0.00  0.00    -0.272 OA
ATOM      4  C   UNL     1      -1.235   2.107   0.018  0.00  0.00    +0.135 C 
ATOM      5  N   UNL     1      -0.664   3.465   0.026  0.00  0.00    -0.281 N 
ATOM      6  C   UNL     1       0.673   3.321   0.013  0.00  0.00    +0.310 C 
ATOM      7  O   UNL     1       1.453   4.253   0.010  0.00  0.00    -0.252 OA
ATOM      8  C   UNL     1      -2.068   1.870   1.279  0.00  0.00    +0.047 C 
ATOM      9  H   UNL     1      -1.329   4.341   0.039  0.00  0.00    +0.152 HD
ENDROOT
BRANCH   4  10
ATOM     10  C   UNL     1      -2.067   1.885  -1.218  0.00  0.00    -0.015 A 
ATOM     11  C   UNL     1      -2.078   0.646  -1.831  0.00  0.00    +0.006 A 
ATOM     12  C   UNL     1      -2.844   0.442  -2.963  0.00  0.00    +0.004 A 
ATOM     13  C   UNL     1      -3.592   1.479  -3.488  0.00  0.00    -0.042 A 
ATOM     14  C   UNL     1      -3.577   2.719  -2.878  0.00  0.00    +0.004 A 
ATOM     15  C   UNL     1      -2.814   2.923  -1.744  0.00  0.00    +0.006 A 
BRANCH  13  16
ATOM     16  C   UNL     1      -4.424   1.257  -4.725  0.00  0.00    -0.013 C 
ATOM     17  C   UNL     1      -3.958   2.206  -5.830  0.00  0.00    +0.015 C 
ATOM     18  C   UNL     1      -4.264  -0.190  -5.194  0.00  0.00    +0.015 C 
ATOM     19  C   UNL     1      -5.895   1.530  -4.405  0.00  0.00    +0.015 C 
ENDBRANCH  13  16
ENDBRANCH   4  10
BRANCH   1  20
ATOM     20  C   UNL     1       2.443   1.587  -0.011  0.00  0.00    +0.213 C 
BRANCH  20  22
ATOM     21  N   UNL     1       4.167   1.033  -1.696  0.00  0.00    -0.311 N 
ATOM     22  C   UNL     1       2.908   1.439  -1.437  0.00  0.00    +0.231 C 
ATOM     23  O   UNL     1       2.150   1.685  -2.351  0.00  0.00    -0.274 OA
ATOM     24  H   UNL     1       4.855   0.810  -0.867  0.00  0.00    +0.149 HD
BRANCH  21  30
ATOM     25  C   UNL     1       5.962   1.969  -5.451  0.00  0.00    +0.008 C 
ATOM     26  C   UNL     1       6.614   0.888  -4.587  0.00  0.00    -0.009 C 
ATOM     27  C   UNL     1       6.217  -0.493  -5.112  0.00  0.00    +0.003 C 
ATOM     28  C   UNL     1       4.695  -0.642  -5.054  0.00  0.00    +0.002 C 
ATOM     29  C   UNL     1       4.223  -0.492  -3.607  0.00  0.00    +0.022 C 
ATOM     30  C   UNL     1       4.620   0.889  -3.082  0.00  0.00    +0.076 C 
ATOM     31  C   UNL     1       6.141   1.039  -3.140  0.00  0.00    +0.009 C 
ATOM     32  C   UNL     1       6.538   2.420  -2.614  0.00  0.00    +0.009 C 
ENDBRANCH  21  30
ENDBRANCH  20  22
ENDBRANCH   1  20
TORSDOF 5
