REMARK  Name = ZINC03849012
REMARK  4 active torsions:
REMARK  status: ('A' for Active; 'I' for Inactive)
REMARK    1  A    between atoms: C_1  and  C_2
REMARK    2  A    between atoms: C_4  and  C_22
REMARK    3  A    between atoms: C_8  and  N_12
REMARK    4  A    between atoms: N_13  and  C_14
REMARK                            x       y       z     vdW  Elec       q    Type
REMARK                         _______ _______ _______ _____ _____    ______ ____
ROOT
ATOM      1  C   UNL     1      -4.774  -1.320   0.042  0.00  0.00    +0.066 C 
ATOM      2  C   UNL     1      -3.295  -1.612   0.025  0.00  0.00    +0.043 A 
ATOM      3  C   UNL     1      -2.846  -2.937   0.013  0.00  0.00    +0.055 A 
ATOM      4  C   UNL     1      -1.511  -3.187  -0.001  0.00  0.00    +0.149 A 
ATOM      5  N   UNL     1      -0.639  -2.140  -0.004  0.00  0.00    -0.206 N 
ATOM      6  C   UNL     1      -1.118  -0.859   0.008  0.00  0.00    +0.186 A 
ATOM      7  N   UNL     1      -2.430  -0.621   0.023  0.00  0.00    -0.231 NA
ATOM      8  C   UNL     1       0.002  -0.004   0.002  0.00  0.00    +0.171 A 
ATOM      9  C   UNL     1       1.148  -0.830  -0.020  0.00  0.00    +0.168 A 
ATOM     10  N   UNL     1       0.759  -2.085  -0.017  0.00  0.00    -0.147 NA
ATOM     11  N   UNL     1       2.469  -0.389  -0.037  0.00  0.00    -0.340 N 
ATOM     12  H   UNL     1       2.663   0.562  -0.035  0.00  0.00    +0.144 HD
ATOM     13  H   UNL     1       3.195  -1.032  -0.051  0.00  0.00    +0.144 HD
ENDROOT
BRANCH   4  14
ATOM     14  C   UNL     1      -1.000  -4.605  -0.015  0.00  0.00    +0.434 C 
ATOM     15  F   UNL     1      -0.829  -5.052   1.300  0.00  0.00    -0.164 F 
ATOM     16  F   UNL     1      -1.924  -5.427  -0.670  0.00  0.00    -0.164 F 
ATOM     17  F   UNL     1       0.226  -4.653  -0.687  0.00  0.00    -0.164 F 
ENDBRANCH   4  14
BRANCH   8  18
ATOM     18  N   UNL     1      -0.016   1.345   0.009  0.00  0.00    -0.142 NA
ATOM     19  N   UNL     1       1.092   2.006   0.002  0.00  0.00    -0.148 NA
BRANCH  19  20
ATOM     20  C   UNL     1       1.073   3.373   0.010  0.00  0.00    +0.104 A 
ATOM     21  C   UNL     1      -0.144   4.058   0.019  0.00  0.00    +0.032 A 
ATOM     22  C   UNL     1      -0.156   5.437   0.031  0.00  0.00    +0.022 A 
ATOM     23  C   UNL     1       1.036   6.144   0.024  0.00  0.00    +0.042 A 
ATOM     24  C   UNL     1       2.246   5.472   0.009  0.00  0.00    +0.042 A 
ATOM     25  C   UNL     1       2.273   4.092   0.002  0.00  0.00    +0.069 A 
ATOM     26 CL   UNL     1       3.791   3.251  -0.015  0.00  0.00    -0.081 Cl
ATOM     27 CL   UNL     1       1.011   7.879   0.032  0.00  0.00    -0.083 Cl
ENDBRANCH  19  20
ENDBRANCH   8  18
TORSDOF 3
