REMARK  Name = ZINC66106591
REMARK  5 active torsions:
REMARK  status: ('A' for Active; 'I' for Inactive)
REMARK    1  A    between atoms: C_1  and  C_2
REMARK    2  A    between atoms: C_9  and  C_11
REMARK    3  A    between atoms: C_11  and  C_12
REMARK    4  A    between atoms: C_14  and  C_17
REMARK    5  A    between atoms: C_19  and  C_22
REMARK                            x       y       z     vdW  Elec       q    Type
REMARK                         _______ _______ _______ _____ _____    ______ ____
ROOT
ATOM      1  C   UNL     1       1.223  -0.563   5.261  0.00  0.00    +0.085 A 
ATOM      2  N   UNL     1       1.242   0.717   5.524  0.00  0.00    -0.241 NA
ATOM      3  C   UNL     1       2.346   1.318   5.947  0.00  0.00    +0.113 A 
ATOM      4  C   UNL     1       3.456   0.526   6.090  0.00  0.00    +0.078 A 
ATOM      5  S   UNL     1       2.795  -1.058   5.598  0.00  0.00    -0.079 S 
ENDROOT
BRANCH   3   6
ATOM      6  C   UNL     1       2.379   2.766   6.247  0.00  0.00    +0.154 A 
ATOM      7  C   UNL     1       1.330   3.618   6.138  0.00  0.00    +0.064 A 
ATOM      8  C   UNL     1       1.839   4.935   6.540  0.00  0.00    +0.075 A 
ATOM      9  C   UNL     1       3.154   4.744   6.853  0.00  0.00    +0.208 A 
ATOM     10  O   UNL     1       3.453   3.452   6.679  0.00  0.00    -0.461 OA
BRANCH   8  11
ATOM     11  C   UNL     1       1.087   6.202   6.593  0.00  0.00    +0.245 C 
ATOM     12  O   UNL     1      -0.089   6.224   6.282  0.00  0.00    -0.270 OA
ATOM     13  N   UNL     1       1.702   7.335   6.986  0.00  0.00    -0.325 N 
ATOM     14  H   UNL     1       2.640   7.317   7.233  0.00  0.00    +0.145 HD
ATOM     15  H   UNL     1       1.207   8.168   7.021  0.00  0.00    +0.145 HD
ENDBRANCH   8  11
ENDBRANCH   3   6
BRANCH   1  16
ATOM     16  C   UNL     1       0.066  -1.399   4.777  0.00  0.00    +0.119 C 
BRANCH  16  25
ATOM     17  C   UNL     1      -0.018   1.503   0.010  0.00  0.00    +0.047 C 
ATOM     18  C   UNL     1       0.002  -0.004   0.002  0.00  0.00    -0.008 A 
ATOM     19  C   UNL     1       0.006  -0.685  -1.176  0.00  0.00    +0.008 A 
ATOM     20  C   UNL     1       0.025  -2.089  -1.168  0.00  0.00    +0.018 A 
ATOM     21  C   UNL     1       0.039  -2.763   0.001  0.00  0.00    +0.093 A 
ATOM     22  N   UNL     1       0.035  -2.093   1.190  0.00  0.00    -0.306 N 
ATOM     23  C   UNL     1       0.023  -0.722   1.214  0.00  0.00    +0.141 A 
ATOM     24  N   UNL     1       0.030  -0.334   2.482  0.00  0.00    -0.232 NA
ATOM     25  C   UNL     1       0.051  -1.412   3.270  0.00  0.00    +0.066 A 
ATOM     26  C   UNL     1       0.046  -2.516   2.491  0.00  0.00    +0.116 A 
ENDBRANCH  16  25
ENDBRANCH   1  16
TORSDOF 4
