REMARK  Name = ZINC05341788
REMARK  5 active torsions:
REMARK  status: ('A' for Active; 'I' for Inactive)
REMARK    1  A    between atoms: C_1  and  C_2
REMARK    2  A    between atoms: C_7  and  C_8
REMARK    3  A    between atoms: C_10  and  C_13
REMARK    4  A    between atoms: C_13  and  N_14
REMARK    5  A    between atoms: C_28  and  O_29
REMARK                            x       y       z     vdW  Elec       q    Type
REMARK                         _______ _______ _______ _____ _____    ______ ____
ROOT
ATOM      1  N   UNL     1       2.032   0.577   6.304  0.00  0.00    -0.215 N 
ATOM      2  C   UNL     1       2.879  -0.475   6.335  0.00  0.00    +0.256 C 
ATOM      3  O   UNL     1       2.618  -1.640   6.123  0.00  0.00    -0.272 OA
ATOM      4  C   UNL     1       4.224   0.118   6.691  0.00  0.00    +0.168 C 
ATOM      5  C   UNL     1       4.722  -0.461   8.010  0.00  0.00    +0.045 C 
ATOM      6  C   UNL     1       6.163   0.015   8.236  0.00  0.00    +0.008 C 
ATOM      7  C   UNL     1       7.063  -0.665   7.207  0.00  0.00    +0.035 C 
ATOM      8  C   UNL     1       6.515  -0.480   5.816  0.00  0.00    -0.041 A 
ATOM      9  C   UNL     1       5.205  -0.123   5.579  0.00  0.00    -0.008 A 
ATOM     10  C   UNL     1       4.759   0.026   4.272  0.00  0.00    +0.007 A 
ATOM     11  C   UNL     1       5.617  -0.179   3.211  0.00  0.00    +0.000 A 
ATOM     12  C   UNL     1       6.931  -0.534   3.449  0.00  0.00    +0.000 A 
ATOM     13  C   UNL     1       7.377  -0.684   4.746  0.00  0.00    +0.004 A 
ATOM     14  N   UNL     1       3.957   1.555   6.832  0.00  0.00    -0.216 NA
ATOM     15  C   UNL     1       2.697   1.741   6.594  0.00  0.00    +0.286 C 
ENDROOT
BRANCH  15  16
ATOM     16  O   UNL     1       2.100   2.953   6.630  0.00  0.00    -0.481 OA
ATOM     17  H   UNL     1       2.700   3.680   6.848  0.00  0.00    +0.295 HD
ENDBRANCH  15  16
BRANCH   1  18
ATOM     18  C   UNL     1       0.602   0.487   5.998  0.00  0.00    +0.216 C 
BRANCH  18  21
ATOM     19  C   UNL     1       0.174   0.157   2.410  0.00  0.00    +0.202 A 
ATOM     20  N   UNL     1       0.382  -0.333   3.645  0.00  0.00    -0.190 NA
ATOM     21  C   UNL     1       0.396   0.637   4.513  0.00  0.00    +0.246 A 
ATOM     22  O   UNL     1       0.195   1.792   3.864  0.00  0.00    -0.336 OA
ATOM     23  N   UNL     1       0.058   1.460   2.490  0.00  0.00    -0.056 NA
BRANCH  19  30
ATOM     24  C   UNL     1      -1.965   0.648   0.524  0.00  0.00    +0.044 C 
ATOM     25  C   UNL     1      -0.932  -0.414   0.248  0.00  0.00    -0.040 A 
ATOM     26  C   UNL     1      -0.997  -1.157  -0.913  0.00  0.00    +0.004 A 
ATOM     27  C   UNL     1      -0.050  -2.132  -1.167  0.00  0.00    +0.000 A 
ATOM     28  C   UNL     1       0.968  -2.368  -0.260  0.00  0.00    +0.001 A 
ATOM     29  C   UNL     1       1.043  -1.631   0.904  0.00  0.00    +0.012 A 
ATOM     30  C   UNL     1       0.095  -0.643   1.162  0.00  0.00    +0.025 A 
ENDBRANCH  19  30
ENDBRANCH  18  21
ENDBRANCH   1  18
TORSDOF 4
