REMARK  Name = ZINC34954311
REMARK  6 active torsions:
REMARK  status: ('A' for Active; 'I' for Inactive)
REMARK    1  A    between atoms: C_1  and  C_2
REMARK    2  A    between atoms: C_5  and  C_37
REMARK    3  A    between atoms: C_6  and  C_8
REMARK    4  A    between atoms: C_8  and  C_9
REMARK    5  A    between atoms: C_10  and  C_27
REMARK    6  A    between atoms: C_30  and  N_33
REMARK                            x       y       z     vdW  Elec       q    Type
REMARK                         _______ _______ _______ _____ _____    ______ ____
ROOT
ATOM      1  C   UNL     1      -0.235  -1.841   4.017  0.00  0.00    +0.077 C 
ATOM      2  C   UNL     1      -0.059  -0.351   3.835  0.00  0.00    +0.152 C 
ATOM      3  N   UNL     1      -0.005   0.222   5.185  0.00  0.00    -0.232 N 
ATOM      4  C   UNL     1      -0.132  -0.785   6.068  0.00  0.00    +0.293 C 
ATOM      5  O   UNL     1      -0.129  -0.657   7.276  0.00  0.00    -0.266 OA
ATOM      6  C   UNL     1      -0.280  -2.068   5.351  0.00  0.00    +0.250 C 
ATOM      7  O   UNL     1      -0.434  -3.279   5.935  0.00  0.00    -0.282 OA
ATOM      8  C   UNL     1       0.149   1.562   5.495  0.00  0.00    +0.169 A 
ATOM      9  N   UNL     1       0.271   2.586   4.683  0.00  0.00    -0.224 NA
ATOM     10  C   UNL     1       0.416   3.853   5.128  0.00  0.00    +0.080 A 
ATOM     11  C   UNL     1       0.557   5.036   4.366  0.00  0.00    +0.032 A 
ATOM     12  C   UNL     1       0.696   6.253   4.980  0.00  0.00    +0.040 A 
ATOM     13  C   UNL     1       0.703   6.371   6.364  0.00  0.00    +0.125 A 
ATOM     14  C   UNL     1       0.567   5.233   7.141  0.00  0.00    +0.055 A 
ATOM     15  C   UNL     1       0.428   4.010   6.533  0.00  0.00    +0.043 A 
ATOM     16  S   UNL     1       0.223   2.340   7.102  0.00  0.00    -0.052 S 
ATOM     17  F   UNL     1       0.842   7.582   6.946  0.00  0.00    -0.205 F 
ENDROOT
BRANCH   2  18
ATOM     18  C   UNL     1      -1.228   0.220   3.075  0.00  0.00    -0.022 A 
ATOM     19  C   UNL     1      -2.457   0.350   3.695  0.00  0.00    +0.008 A 
ATOM     20  C   UNL     1      -3.530   0.874   2.998  0.00  0.00    +0.033 A 
ATOM     21  C   UNL     1      -3.374   1.267   1.682  0.00  0.00    +0.126 A 
ATOM     22  C   UNL     1      -2.145   1.138   1.063  0.00  0.00    +0.033 A 
ATOM     23  C   UNL     1      -1.071   0.618   1.761  0.00  0.00    +0.008 A 
BRANCH  21  24
ATOM     24  N   UNL     1      -4.523   1.827   0.935  0.00  0.00    +0.056 N 
ATOM     25  O   UNL     1      -5.598   1.940   1.477  0.00  0.00    -0.126 OA
ATOM     26  O   UNL     1      -4.386   2.171  -0.215  0.00  0.00    -0.126 OA
ENDBRANCH  21  24
ENDBRANCH   2  18
BRANCH   1  27
ATOM     27  C   UNL     1      -0.342  -2.845   2.955  0.00  0.00    +0.195 C 
ATOM     28  O   UNL     1      -0.588  -4.003   3.235  0.00  0.00    -0.287 OA
BRANCH  27  34
ATOM     29  C   UNL     1      -2.251  -1.879  -1.554  0.00  0.00    +0.044 C 
ATOM     30  C   UNL     1      -1.066  -1.984  -0.629  0.00  0.00    -0.050 A 
ATOM     31  C   UNL     1       0.206  -1.711  -1.102  0.00  0.00    +0.003 A 
ATOM     32  C   UNL     1       1.299  -1.806  -0.260  0.00  0.00    +0.004 A 
ATOM     33  C   UNL     1       1.129  -2.174   1.058  0.00  0.00    -0.040 A 
ATOM     34  C   UNL     1      -0.151  -2.450   1.543  0.00  0.00    +0.025 A 
ATOM     35  C   UNL     1      -1.252  -2.348   0.688  0.00  0.00    +0.015 A 
ATOM     36  C   UNL     1       2.321  -2.277   1.974  0.00  0.00    +0.044 C 
ENDBRANCH  27  34
ENDBRANCH   1  27
TORSDOF 4
