REMARK  Name = ZINC04724139
REMARK  9 active torsions:
REMARK  status: ('A' for Active; 'I' for Inactive)
REMARK    1  A    between atoms: C_1  and  C_2
REMARK    2  A    between atoms: C_2  and  C_3
REMARK    3  A    between atoms: C_2  and  C_4
REMARK    4  A    between atoms: C_2  and  C_5
REMARK    5  A    between atoms: C_8  and  O_11
REMARK    6  A    between atoms: O_11  and  C_12
REMARK    7  A    between atoms: C_12  and  C_13
REMARK    8  A    between atoms: N_15  and  N_16
REMARK    9  A    between atoms: C_17  and  C_18
REMARK                            x       y       z     vdW  Elec       q    Type
REMARK                         _______ _______ _______ _____ _____    ______ ____
ROOT
ATOM      1  C   UNL     1       1.266   2.123  -0.176  0.00  0.00    +0.326 C 
ENDROOT
BRANCH   1   2
ATOM      2  C   UNL     1      -0.024   1.348  -0.089  0.00  0.00    +0.270 C 
ATOM      3  O   UNL     1      -1.082   1.938  -0.019  0.00  0.00    -0.270 OA
ATOM      4  N   UNL     1      -0.002   0.001  -0.093  0.00  0.00    -0.204 N 
ATOM      5  H   UNL     1       0.844  -0.470  -0.152  0.00  0.00    +0.177 HD
BRANCH   4   6
ATOM      6  N   UNL     1      -1.201  -0.720  -0.011  0.00  0.00    -0.185 NA
ATOM      7  C   UNL     1      -1.187  -2.018  -0.096  0.00  0.00    +0.176 C 
BRANCH   7   8
ATOM      8  C   UNL     1       0.090  -2.737  -0.112  0.00  0.00    +0.149 A 
ATOM      9  C   UNL     1       0.252  -4.078  -0.312  0.00  0.00    +0.052 A 
ATOM     10  C   UNL     1       1.634  -4.332  -0.248  0.00  0.00    +0.057 A 
ATOM     11  C   UNL     1       2.244  -3.151  -0.013  0.00  0.00    +0.171 A 
ATOM     12  O   UNL     1       1.310  -2.190   0.063  0.00  0.00    -0.447 OA
ATOM     13 BR   UNL     1       4.109  -2.892   0.170  0.00  0.00    -0.008 Br
ENDBRANCH   7   8
ENDBRANCH   4   6
ENDBRANCH   1   2
BRANCH   1  14
ATOM     14  O   UNL     1       0.983   3.523  -0.154  0.00  0.00    -0.483 OA
BRANCH  14  18
ATOM     15  C   UNL     1       4.205   6.090  -0.373  0.00  0.00    -0.042 A 
ATOM     16  C   UNL     1       2.923   6.598  -0.283  0.00  0.00    +0.008 A 
ATOM     17  C   UNL     1       1.842   5.741  -0.209  0.00  0.00    +0.046 A 
ATOM     18  C   UNL     1       2.044   4.369  -0.226  0.00  0.00    +0.121 A 
ATOM     19  C   UNL     1       3.333   3.861  -0.311  0.00  0.00    +0.046 A 
ATOM     20  C   UNL     1       4.410   4.722  -0.390  0.00  0.00    +0.008 A 
BRANCH  15  22
ATOM     21  C   UNL     1       5.420   7.907   0.799  0.00  0.00    +0.015 C 
ATOM     22  C   UNL     1       5.383   7.027  -0.453  0.00  0.00    -0.013 C 
ATOM     23  C   UNL     1       6.676   6.215  -0.544  0.00  0.00    +0.015 C 
ATOM     24  C   UNL     1       5.247   7.911  -1.694  0.00  0.00    +0.015 C 
ENDBRANCH  15  22
ENDBRANCH  14  18
ENDBRANCH   1  14
TORSDOF 6
