REMARK  Name = ZINC21722899
REMARK  6 active torsions:
REMARK  status: ('A' for Active; 'I' for Inactive)
REMARK    1  A    between atoms: C_1  and  C_2
REMARK    2  A    between atoms: C_2  and  C_3
REMARK    3  A    between atoms: C_3  and  N_4
REMARK    4  A    between atoms: C_17  and  C_19
REMARK    5  A    between atoms: C_29  and  C_31
REMARK    6  A    between atoms: C_29  and  C_32
REMARK                            x       y       z     vdW  Elec       q    Type
REMARK                         _______ _______ _______ _____ _____    ______ ____
ROOT
ATOM      1  N   UNL     1       1.183   1.687   0.101  0.00  0.00    -0.299 N 
ATOM      2  C   UNL     1      -0.013   1.067   0.058  0.00  0.00    +0.307 C 
ATOM      3  O   UNL     1      -0.069  -0.146   0.002  0.00  0.00    -0.252 OA
ATOM      4  N   UNL     1      -1.149   1.794   0.072  0.00  0.00    -0.242 N 
ATOM      5  C   UNL     1      -1.073   3.184   0.136  0.00  0.00    +0.060 A 
ATOM      6  C   UNL     1      -0.573   3.828   1.258  0.00  0.00    +0.025 A 
ATOM      7  C   UNL     1      -0.558   5.211   1.300  0.00  0.00    +0.002 A 
ATOM      8  C   UNL     1      -1.042   5.950   0.236  0.00  0.00    +0.002 A 
ATOM      9  C   UNL     1      -1.526   5.311  -0.893  0.00  0.00    +0.025 A 
ATOM     10  C   UNL     1      -1.519   3.929  -0.945  0.00  0.00    +0.053 A 
ATOM     11  N   UNL     1      -1.917   3.224  -2.077  0.00  0.00    -0.316 N 
ATOM     12  C   UNL     1      -2.972   2.370  -2.125  0.00  0.00    +0.017 C 
ATOM     13  C   UNL     1      -3.233   1.410  -1.225  0.00  0.00    +0.037 C 
ATOM     14  C   UNL     1      -2.428   1.117   0.014  0.00  0.00    +0.148 C 
ATOM     15  C   UNL     1      -4.348   0.555  -1.396  0.00  0.00    +0.163 C 
ATOM     16  O   UNL     1      -4.569  -0.293  -0.554  0.00  0.00    -0.292 OA
ATOM     17  C   UNL     1      -5.266   0.656  -2.577  0.00  0.00    +0.086 C 
ATOM     18  C   UNL     1      -4.482   1.241  -3.758  0.00  0.00    -0.023 C 
ATOM     19  C   UNL     1      -3.900   2.581  -3.311  0.00  0.00    +0.058 C 
ATOM     20  C   UNL     1      -3.350   0.289  -4.151  0.00  0.00    +0.011 C 
ATOM     21  C   UNL     1      -5.420   1.454  -4.948  0.00  0.00    +0.011 C 
ATOM     22  H   UNL     1       1.233   2.784   0.151  0.00  0.00    +0.150 HD
ATOM     23  H   UNL     1      -1.363   3.340  -3.020  0.00  0.00    +0.152 HD
ENDROOT
BRANCH  14  24
ATOM     24  C   UNL     1      -3.240   1.525   1.216  0.00  0.00    -0.022 A 
ATOM     25  C   UNL     1      -3.541   2.858   1.427  0.00  0.00    +0.008 A 
ATOM     26  C   UNL     1      -4.290   3.232   2.526  0.00  0.00    +0.038 A 
ATOM     27  C   UNL     1      -4.730   2.272   3.422  0.00  0.00    +0.123 A 
ATOM     28  C   UNL     1      -4.424   0.939   3.213  0.00  0.00    +0.038 A 
ATOM     29  C   UNL     1      -3.679   0.566   2.110  0.00  0.00    +0.008 A 
ATOM     30  F   UNL     1      -5.458   2.638   4.500  0.00  0.00    -0.205 F 
ENDBRANCH  14  24
BRANCH   1  31
ATOM     31  C   UNL     1       2.417   0.897   0.080  0.00  0.00    +0.105 C 
BRANCH  31  33
ATOM     32  C   UNL     1       4.913   1.012   0.115  0.00  0.00    +0.005 C 
ATOM     33  C   UNL     1       3.624   1.836   0.137  0.00  0.00    +0.015 C 
ENDBRANCH  31  33
ENDBRANCH   1  31
TORSDOF 3
