REMARK  Name = ZINC02654088
REMARK  9 active torsions:
REMARK  status: ('A' for Active; 'I' for Inactive)
REMARK    1  A    between atoms: C_1  and  O_2
REMARK    2  A    between atoms: O_2  and  C_3
REMARK    3  A    between atoms: C_6  and  C_9
REMARK    4  A    between atoms: C_9  and  N_11
REMARK    5  A    between atoms: N_11  and  N_12
REMARK    6  A    between atoms: C_17  and  C_20
REMARK    7  A    between atoms: C_20  and  C_21
REMARK    8  A    between atoms: N_23  and  C_24
REMARK    9  A    between atoms: C_28  and  C_30
REMARK                            x       y       z     vdW  Elec       q    Type
REMARK                         _______ _______ _______ _____ _____    ______ ____
ROOT
ATOM      1  N   UNL     1      -6.274  -4.656   0.052  0.00  0.00    -0.160 NA
ATOM      2  C   UNL     1      -6.318  -5.955   0.046  0.00  0.00    +0.178 C 
ATOM      3  N   UNL     1      -5.255  -6.851   0.035  0.00  0.00    -0.263 N 
ATOM      4  C   UNL     1      -5.439  -8.160   0.030  0.00  0.00    +0.233 C 
ATOM      5  O   UNL     1      -4.510  -8.939   0.021  0.00  0.00    -0.274 OA
ATOM      6  C   UNL     1      -6.884  -8.629   0.037  0.00  0.00    +0.149 C 
ATOM      7  S   UNL     1      -7.760  -7.010   0.058  0.00  0.00    -0.076 S 
ATOM      8  H   UNL     1      -4.350  -6.504   0.031  0.00  0.00    +0.157 HD
ENDROOT
BRANCH   1   9
ATOM      9  N   UNL     1      -5.037  -3.997   0.040  0.00  0.00    -0.236 N 
ATOM     10  H   UNL     1      -4.215  -4.510   0.028  0.00  0.00    +0.174 HD
BRANCH   9  11
ATOM     11  C   UNL     1      -4.990  -2.607   0.046  0.00  0.00    +0.048 C 
ATOM     12  C   UNL     1      -6.124  -1.900   0.063  0.00  0.00    +0.035 C 
BRANCH  11  16
ATOM     13  C   UNL     1      -1.238  -0.608   0.013  0.00  0.00    +0.120 A 
ATOM     14  C   UNL     1      -2.415   0.128   0.029  0.00  0.00    +0.046 A 
ATOM     15  C   UNL     1      -3.634  -0.517   0.040  0.00  0.00    +0.013 A 
ATOM     16  C   UNL     1      -3.683  -1.911   0.034  0.00  0.00    -0.003 A 
ATOM     17  C   UNL     1      -2.499  -2.647   0.017  0.00  0.00    +0.013 A 
ATOM     18  C   UNL     1      -1.284  -1.996   0.002  0.00  0.00    +0.046 A 
BRANCH  13  20
ATOM     19  C   UNL     1      -0.065   1.459   0.015  0.00  0.00    +0.277 C 
ATOM     20  O   UNL     1      -0.039   0.031   0.002  0.00  0.00    -0.495 OA
ENDBRANCH  13  20
ENDBRANCH  11  16
ENDBRANCH   9  11
ENDBRANCH   1   9
BRANCH   6  21
ATOM     21  C   UNL     1      -7.213  -9.428  -1.226  0.00  0.00    +0.120 C 
BRANCH  21  22
ATOM     22  C   UNL     1      -8.613  -9.976  -1.123  0.00  0.00    +0.219 C 
ATOM     23  O   UNL     1      -9.282  -9.750  -0.136  0.00  0.00    -0.275 OA
ATOM     24  N   UNL     1      -9.122 -10.717  -2.127  0.00  0.00    -0.285 N 
ATOM     25  H   UNL     1      -8.614 -10.842  -2.943  0.00  0.00    +0.155 HD
BRANCH  24  26
ATOM     26  C   UNL     1     -10.384 -11.308  -1.991  0.00  0.00    +0.034 A 
ATOM     27  C   UNL     1     -11.389 -10.648  -1.295  0.00  0.00    +0.025 A 
ATOM     28  C   UNL     1     -12.633 -11.233  -1.162  0.00  0.00    +0.022 A 
ATOM     29  C   UNL     1     -12.879 -12.475  -1.722  0.00  0.00    +0.053 A 
ATOM     30  C   UNL     1     -11.879 -13.134  -2.415  0.00  0.00    +0.075 A 
ATOM     31  C   UNL     1     -10.635 -12.551  -2.556  0.00  0.00    +0.037 A 
ATOM     32 CL   UNL     1     -14.443 -13.207  -1.552  0.00  0.00    -0.083 Cl
BRANCH  30  33
ATOM     33  C   UNL     1     -12.150 -14.486  -3.023  0.00  0.00    +0.419 C 
ATOM     34  F   UNL     1     -10.997 -14.947  -3.667  0.00  0.00    -0.166 F 
ATOM     35  F   UNL     1     -12.512 -15.386  -2.015  0.00  0.00    -0.166 F 
ATOM     36  F   UNL     1     -13.192 -14.380  -3.950  0.00  0.00    -0.166 F 
ENDBRANCH  30  33
ENDBRANCH  24  26
ENDBRANCH  21  22
ENDBRANCH   6  21
TORSDOF 8
