REMARK  Name = ZINC44785286
REMARK  6 active torsions:
REMARK  status: ('A' for Active; 'I' for Inactive)
REMARK    1  A    between atoms: C_1  and  N_2
REMARK    2  A    between atoms: N_2  and  C_3
REMARK    3  A    between atoms: C_3  and  C_4
REMARK    4  A    between atoms: C_10  and  C_12
REMARK    5  A    between atoms: C_12  and  C_18
REMARK    6  A    between atoms: N_19  and  O_20
REMARK                            x       y       z     vdW  Elec       q    Type
REMARK                         _______ _______ _______ _____ _____    ______ ____
ROOT
ATOM      1  C   UNL     1       0.023   0.168  -2.424  0.00  0.00    +0.105 C 
ATOM      2  C   UNL     1      -1.112   1.167  -2.656  0.00  0.00    +0.024 C 
ATOM      3  C   UNL     1      -2.457   0.466  -2.453  0.00  0.00    +0.001 C 
ATOM      4  C   UNL     1      -2.584  -0.692  -3.446  0.00  0.00    +0.000 C 
ATOM      5  C   UNL     1      -1.449  -1.690  -3.214  0.00  0.00    +0.001 C 
ATOM      6  C   UNL     1      -0.104  -0.989  -3.417  0.00  0.00    +0.024 C 
ENDROOT
BRANCH   1   7
ATOM      7  C   UNL     1       1.348   0.858  -2.624  0.00  0.00    +0.147 C 
ATOM      8  N   UNL     1       2.114   0.513  -3.606  0.00  0.00    -0.076 NA
ATOM      9  N   UNL     1       1.741   1.857  -1.762  0.00  0.00    -0.343 N 
ATOM     10  H   UNL     1       1.203   2.065  -0.982  0.00  0.00    +0.144 HD
ATOM     11  H   UNL     1       2.557   2.353  -1.933  0.00  0.00    +0.144 HD
BRANCH   8  12
ATOM     12  O   UNL     1       3.359   1.162  -3.794  0.00  0.00    -0.408 OA
ATOM     13  H   UNL     1       3.861   0.836  -4.553  0.00  0.00    +0.328 HD
ENDBRANCH   8  12
ENDBRANCH   1   7
BRANCH   1  16
ATOM     14  C   UNL     1       1.872  -1.774  -1.500  0.00  0.00    +0.132 C 
ATOM     15  N   UNL     1       0.794  -1.330  -0.613  0.00  0.00    -0.299 N 
ATOM     16  C   UNL     1      -0.057  -0.366  -1.017  0.00  0.00    +0.229 C 
ATOM     17  O   UNL     1      -0.887   0.071  -0.249  0.00  0.00    -0.275 OA
BRANCH  15  18
ATOM     18  C   UNL     1       0.640  -1.933   0.713  0.00  0.00    +0.142 C 
BRANCH  18  19
ATOM     19  C   UNL     1       1.447  -1.151   1.717  0.00  0.00    -0.027 A 
ATOM     20  C   UNL     1       2.769  -1.480   1.976  0.00  0.00    +0.025 A 
ATOM     21  C   UNL     1       3.477  -0.740   2.904  0.00  0.00    +0.111 A 
ATOM     22  N   UNL     1       2.910   0.267   3.539  0.00  0.00    -0.263 NA
ATOM     23  C   UNL     1       1.655   0.608   3.318  0.00  0.00    +0.111 A 
ATOM     24  C   UNL     1       0.887  -0.083   2.400  0.00  0.00    +0.025 A 
ENDBRANCH  18  19
ENDBRANCH  15  18
ENDBRANCH   1  16
TORSDOF 5
