REMARK  Name = ZINC13116184
REMARK  5 active torsions:
REMARK  status: ('A' for Active; 'I' for Inactive)
REMARK    1  A    between atoms: C_1  and  O_2
REMARK    2  A    between atoms: O_2  and  C_3
REMARK    3  A    between atoms: C_3  and  C_5
REMARK    4  A    between atoms: C_8  and  C_10
REMARK    5  A    between atoms: C_11  and  N_29
REMARK                            x       y       z     vdW  Elec       q    Type
REMARK                         _______ _______ _______ _____ _____    ______ ____
ROOT
ATOM      1  C   UNL     1       0.077  -5.454   0.178  0.00  0.00    +0.078 A 
ATOM      2  C   UNL     1      -0.698  -5.463   1.315  0.00  0.00    +0.052 A 
ATOM      3  C   UNL     1      -1.085  -6.748   1.877  0.00  0.00    +0.031 A 
ATOM      4  C   UNL     1      -1.873  -7.002   3.035  0.00  0.00    -0.030 A 
ATOM      5  C   UNL     1      -2.130  -8.283   3.396  0.00  0.00    -0.005 A 
ATOM      6  C   UNL     1      -1.611  -9.341   2.634  0.00  0.00    +0.103 A 
ATOM      7  N   UNL     1      -0.875  -9.106   1.561  0.00  0.00    -0.337 N 
ATOM      8  C   UNL     1      -0.610  -7.876   1.175  0.00  0.00    +0.089 A 
ATOM      9  S   UNL     1       0.306  -7.185  -0.179  0.00  0.00    -0.066 S 
ATOM     10  N   UNL     1      -1.872 -10.651   3.012  0.00  0.00    -0.312 N 
ATOM     11  C   UNL     1      -3.009 -11.391   2.444  0.00  0.00    +0.134 C 
ATOM     12  C   UNL     1      -2.500 -12.744   1.933  0.00  0.00    +0.178 C 
ATOM     13  O   UNL     1      -1.774 -13.398   2.977  0.00  0.00    -0.377 OA
ATOM     14  C   UNL     1      -0.606 -12.695   3.407  0.00  0.00    +0.178 C 
ATOM     15  C   UNL     1      -1.015 -11.342   3.989  0.00  0.00    +0.134 C 
ATOM     16  C   UNL     1      -2.972  -8.633   4.596  0.00  0.00    +0.039 C 
ATOM     17  C   UNL     1      -3.085  -7.438   5.540  0.00  0.00    +0.005 C 
ATOM     18  C   UNL     1      -3.527  -6.216   4.724  0.00  0.00    +0.005 C 
ATOM     19  C   UNL     1      -2.376  -5.812   3.804  0.00  0.00    +0.036 C 
ATOM     20  H   UNL     1      -0.526  -9.852   1.049  0.00  0.00    +0.168 HD
ENDROOT
BRANCH   1  24
ATOM     21  C   UNL     1       0.997  -2.221  -1.157  0.00  0.00    +0.212 A 
ATOM     22  C   UNL     1       1.619  -3.035  -2.085  0.00  0.00    +0.057 A 
ATOM     23  C   UNL     1       1.359  -4.351  -1.710  0.00  0.00    +0.051 A 
ATOM     24  C   UNL     1       0.585  -4.300  -0.564  0.00  0.00    +0.144 A 
ATOM     25  O   UNL     1       0.384  -3.009  -0.244  0.00  0.00    -0.448 OA
BRANCH  21  26
ATOM     26  C   UNL     1       1.006  -0.807  -1.158  0.00  0.00    +0.375 C 
ATOM     27  O   UNL     1       1.595  -0.203  -2.035  0.00  0.00    -0.241 OA
BRANCH  26  29
ATOM     28  C   UNL     1       0.410   1.300  -0.249  0.00  0.00    +0.280 C 
ATOM     29  O   UNL     1       0.360  -0.127  -0.186  0.00  0.00    -0.462 OA
ENDBRANCH  26  29
ENDBRANCH  21  26
ENDBRANCH   1  24
BRANCH   2  30
ATOM     30  N   UNL     1      -1.102  -4.271   1.915  0.00  0.00    -0.356 N 
ATOM     31  H   UNL     1      -1.212  -3.471   1.377  0.00  0.00    +0.142 HD
ATOM     32  H   UNL     1      -1.273  -4.241   2.869  0.00  0.00    +0.142 HD
ENDBRANCH   2  30
TORSDOF 4
