REMARK  Name = ZINC12382746
REMARK  12 active torsions:
REMARK  status: ('A' for Active; 'I' for Inactive)
REMARK    1  A    between atoms: C_1  and  C_2
REMARK    2  A    between atoms: C_2  and  C_3
REMARK    3  A    between atoms: C_2  and  O_4
REMARK    4  A    between atoms: O_4  and  C_5
REMARK    5  A    between atoms: C_8  and  C_11
REMARK    6  A    between atoms: C_12  and  C_13
REMARK    7  A    between atoms: C_12  and  N_20
REMARK    8  A    between atoms: N_15  and  C_16
REMARK    9  A    between atoms: C_16  and  C_17
REMARK   10  A    between atoms: C_17  and  C_18
REMARK   11  A    between atoms: C_18  and  O_19
REMARK   12  A    between atoms: C_21  and  C_23
REMARK                            x       y       z     vdW  Elec       q    Type
REMARK                         _______ _______ _______ _____ _____    ______ ____
ROOT
ATOM      1  C   UNL     1       0.914   2.467   0.134  0.00  0.00    +0.036 C 
ATOM      2  C   UNL     1      -0.106   1.648  -0.213  0.00  0.00    +0.097 C 
ENDROOT
BRANCH   1   6
ATOM      3  C   UNL     1       4.857   0.933   0.439  0.00  0.00    +0.121 A 
ATOM      4  C   UNL     1       4.648   2.212  -0.064  0.00  0.00    +0.046 A 
ATOM      5  C   UNL     1       3.370   2.715  -0.165  0.00  0.00    +0.011 A 
ATOM      6  C   UNL     1       2.280   1.936   0.239  0.00  0.00    -0.023 A 
ATOM      7  C   UNL     1       2.496   0.651   0.750  0.00  0.00    +0.011 A 
ATOM      8  C   UNL     1       3.778   0.156   0.842  0.00  0.00    +0.046 A 
BRANCH   3   9
ATOM      9  O   UNL     1       6.119   0.442   0.537  0.00  0.00    -0.489 OA
BRANCH   9  11
ATOM     10  C   UNL     1       8.461   0.884   0.937  0.00  0.00    +0.051 C 
ATOM     11  C   UNL     1       7.189   1.334   0.216  0.00  0.00    +0.167 C 
ATOM     12  C   UNL     1       7.428   1.321  -1.295  0.00  0.00    +0.051 C 
ENDBRANCH   9  11
ENDBRANCH   3   9
ENDBRANCH   1   6
BRANCH   2  13
ATOM     13  C   UNL     1       0.170   0.267  -0.629  0.00  0.00    +0.258 C 
ATOM     14  O   UNL     1      -0.083  -0.657   0.122  0.00  0.00    -0.269 OA
ATOM     15  N   UNL     1       0.703   0.022  -1.842  0.00  0.00    -0.310 N 
ATOM     16  H   UNL     1       0.834   0.749  -2.470  0.00  0.00    +0.149 HD
BRANCH  15  17
ATOM     17  C   UNL     1       1.087  -1.343  -2.212  0.00  0.00    +0.107 C 
BRANCH  17  18
ATOM     18  C   UNL     1       1.662  -1.345  -3.630  0.00  0.00    +0.046 C 
BRANCH  18  19
ATOM     19  C   UNL     1       2.062  -2.770  -4.016  0.00  0.00    +0.157 C 
BRANCH  19  20
ATOM     20  O   UNL     1       2.599  -2.772  -5.340  0.00  0.00    -0.395 OA
ATOM     21  H   UNL     1       2.875  -3.645  -5.651  0.00  0.00    +0.209 HD
ENDBRANCH  19  20
ENDBRANCH  18  19
ENDBRANCH  17  18
ENDBRANCH  15  17
ENDBRANCH   2  13
BRANCH   2  22
ATOM     22  N   UNL     1      -1.423   2.119  -0.181  0.00  0.00    -0.275 N 
ATOM     23  C   UNL     1      -2.441   1.296  -0.503  0.00  0.00    +0.284 C 
ATOM     24  O   UNL     1      -2.225   0.119  -0.725  0.00  0.00    -0.266 OA
ATOM     25  H   UNL     1      -1.604   3.038   0.072  0.00  0.00    +0.155 HD
BRANCH  23  26
ATOM     26  C   UNL     1      -3.807   1.819  -0.587  0.00  0.00    +0.191 A 
ATOM     27  C   UNL     1      -4.925   1.099  -0.902  0.00  0.00    +0.056 A 
ATOM     28  C   UNL     1      -6.005   1.992  -0.864  0.00  0.00    +0.058 A 
ATOM     29  C   UNL     1      -5.507   3.206  -0.533  0.00  0.00    +0.171 A 
ATOM     30  O   UNL     1      -4.183   3.096  -0.361  0.00  0.00    -0.444 OA
ATOM     31 BR   UNL     1      -6.515   4.794  -0.336  0.00  0.00    -0.008 Br
ENDBRANCH  23  26
ENDBRANCH   2  22
TORSDOF 10
