REMARK  Name = ZINC29033441
REMARK  9 active torsions:
REMARK  status: ('A' for Active; 'I' for Inactive)
REMARK    1  A    between atoms: C_1  and  C_2
REMARK    2  A    between atoms: C_4  and  C_27
REMARK    3  A    between atoms: C_8  and  N_26
REMARK    4  A    between atoms: C_9  and  C_11
REMARK    5  A    between atoms: C_11  and  O_13
REMARK    6  A    between atoms: O_13  and  C_14
REMARK    7  A    between atoms: C_14  and  C_15
REMARK    8  A    between atoms: C_18  and  C_20
REMARK    9  A    between atoms: N_24  and  C_25
REMARK                            x       y       z     vdW  Elec       q    Type
REMARK                         _______ _______ _______ _____ _____    ______ ____
ROOT
ATOM      1  C   UNL     1       3.037  -0.450   2.282  0.00  0.00    +0.348 C 
ATOM      2  O   UNL     1       3.064   0.742   2.528  0.00  0.00    -0.244 OA
ENDROOT
BRANCH   1  11
ATOM      3  C   UNL     1       1.282   1.202  -2.699  0.00  0.00    +0.044 C 
ATOM      4  C   UNL     1       1.409  -0.290  -2.529  0.00  0.00    -0.037 A 
ATOM      5  C   UNL     1       1.104  -1.139  -3.567  0.00  0.00    +0.025 A 
ATOM      6  C   UNL     1       1.221  -2.512  -3.409  0.00  0.00    +0.014 A 
ATOM      7  N   UNL     1       1.625  -3.020  -2.261  0.00  0.00    -0.353 N 
ATOM      8  C   UNL     1       1.929  -2.249  -1.238  0.00  0.00    +0.088 A 
ATOM      9  C   UNL     1       1.848  -0.839  -1.299  0.00  0.00    +0.030 A 
ATOM     10  C   UNL     1       2.228  -0.145  -0.079  0.00  0.00    +0.055 A 
ATOM     11  C   UNL     1       2.627  -0.899   1.004  0.00  0.00    +0.119 A 
ATOM     12  S   UNL     1       2.492  -2.575   0.414  0.00  0.00    -0.062 S 
ATOM     13  C   UNL     1       0.882  -3.429  -4.556  0.00  0.00    +0.063 C 
ATOM     14  H   UNL     1       1.700  -3.982  -2.168  0.00  0.00    +0.166 HD
BRANCH  10  15
ATOM     15  N   UNL     1       2.188   1.239  -0.006  0.00  0.00    -0.356 N 
ATOM     16  H   UNL     1       2.207   1.768  -0.819  0.00  0.00    +0.142 HD
ATOM     17  H   UNL     1       2.141   1.678   0.858  0.00  0.00    +0.142 HD
ENDBRANCH  10  15
ENDBRANCH   1  11
BRANCH   1  18
ATOM     18  O   UNL     1       3.397  -1.343   3.228  0.00  0.00    -0.451 OA
BRANCH  18  19
ATOM     19  C   UNL     1       3.800  -0.819   4.495  0.00  0.00    +0.328 C 
BRANCH  19  20
ATOM     20  C   UNL     1       4.163  -1.955   5.416  0.00  0.00    +0.257 C 
ATOM     21  O   UNL     1       4.085  -3.100   5.026  0.00  0.00    -0.272 OA
ATOM     22  N   UNL     1       4.575  -1.698   6.673  0.00  0.00    -0.248 N 
ATOM     23  C   UNL     1       4.899  -2.715   7.497  0.00  0.00    +0.267 C 
ATOM     24  O   UNL     1       4.881  -3.860   7.087  0.00  0.00    -0.268 OA
ATOM     25  H   UNL     1       4.637  -0.782   6.986  0.00  0.00    +0.158 HD
BRANCH  23  26
ATOM     26  C   UNL     1       5.274  -2.440   8.887  0.00  0.00    +0.105 A 
ATOM     27  C   UNL     1       5.474  -1.195   9.448  0.00  0.00    +0.032 A 
ATOM     28  C   UNL     1       5.815  -1.401  10.788  0.00  0.00    +0.020 A 
ATOM     29  C   UNL     1       5.818  -2.737  11.014  0.00  0.00    +0.086 A 
ATOM     30  N   UNL     1       5.486  -3.377   9.873  0.00  0.00    -0.346 N 
ATOM     31  C   UNL     1       5.374  -4.828   9.710  0.00  0.00    +0.149 C 
ENDBRANCH  23  26
ENDBRANCH  19  20
ENDBRANCH  18  19
ENDBRANCH   1  18
TORSDOF 6
