REMARK  Name = ZINC15418338
REMARK  11 active torsions:
REMARK  status: ('A' for Active; 'I' for Inactive)
REMARK    1  A    between atoms: C_1  and  C_2
REMARK    2  A    between atoms: C_2  and  C_3
REMARK    3  A    between atoms: C_3  and  C_4
REMARK    4  A    between atoms: C_4  and  N_5
REMARK    5  A    between atoms: C_6  and  N_33
REMARK    6  A    between atoms: C_7  and  N_14
REMARK    7  A    between atoms: N_14  and  C_15
REMARK    8  A    between atoms: C_15  and  C_16
REMARK    9  A    between atoms: C_22  and  C_24
REMARK   10  A    between atoms: C_24  and  S_25
REMARK   11  A    between atoms: S_25  and  C_26
REMARK                            x       y       z     vdW  Elec       q    Type
REMARK                         _______ _______ _______ _____ _____    ______ ____
ROOT
ATOM      1  N   UNL     1       2.364   3.756   0.045  0.00  0.00    -0.259 N 
ATOM      2  C   UNL     1       2.172   5.091   0.004  0.00  0.00    +0.230 C 
ATOM      3  O   UNL     1       1.090   5.538  -0.317  0.00  0.00    -0.274 OA
ENDROOT
BRANCH   1   6
ATOM      4  N   UNL     1      -0.248   1.231   0.598  0.00  0.00    -0.280 N 
ATOM      5  C   UNL     1       0.811   2.075   0.843  0.00  0.00    +0.127 A 
ATOM      6  C   UNL     1       1.280   2.880  -0.175  0.00  0.00    +0.140 A 
ATOM      7  C   UNL     1       0.659   2.812  -1.436  0.00  0.00    +0.277 A 
ATOM      8  O   UNL     1       1.053   3.512  -2.353  0.00  0.00    -0.266 OA
ATOM      9  N   UNL     1      -0.375   1.968  -1.623  0.00  0.00    -0.273 N 
ATOM     10  H   UNL     1      -0.814   1.916  -2.520  0.00  0.00    +0.173 HD
ATOM     11  C   UNL     1      -0.822   1.195  -0.618  0.00  0.00    +0.331 A 
ATOM     12  O   UNL     1      -1.760   0.445  -0.813  0.00  0.00    -0.246 OA
BRANCH   5  13
ATOM     13  N   UNL     1       1.394   2.116   2.087  0.00  0.00    -0.343 N 
ATOM     14  H   UNL     1       2.079   2.775   2.279  0.00  0.00    +0.144 HD
ATOM     15  H   UNL     1       1.121   1.486   2.771  0.00  0.00    +0.144 HD
ENDBRANCH   5  13
BRANCH   4  16
ATOM     16  C   UNL     1      -0.756   0.371   1.670  0.00  0.00    +0.128 C 
BRANCH  16  17
ATOM     17  C   UNL     1      -1.853   1.110   2.439  0.00  0.00    +0.021 C 
BRANCH  17  19
ATOM     18  C   UNL     1      -3.481   0.951   4.328  0.00  0.00    +0.004 C 
ATOM     19  C   UNL     1      -2.384   0.212   3.558  0.00  0.00    -0.002 C 
ENDBRANCH  17  19
ENDBRANCH  16  17
ENDBRANCH   4  16
ENDBRANCH   1   6
BRANCH   1  20
ATOM     20  C   UNL     1       3.698   3.216   0.317  0.00  0.00    +0.149 C 
BRANCH  20  21
ATOM     21  C   UNL     1       4.420   2.981  -0.984  0.00  0.00    -0.030 A 
ATOM     22  C   UNL     1       4.228   1.801  -1.678  0.00  0.00    +0.005 A 
ATOM     23  C   UNL     1       4.887   1.588  -2.875  0.00  0.00    +0.000 A 
ATOM     24  C   UNL     1       5.746   2.550  -3.372  0.00  0.00    +0.000 A 
ATOM     25  C   UNL     1       5.943   3.727  -2.675  0.00  0.00    +0.000 A 
ATOM     26  C   UNL     1       5.280   3.943  -1.482  0.00  0.00    +0.005 A 
ENDBRANCH  20  21
ENDBRANCH   1  20
BRANCH   2  27
ATOM     27  C   UNL     1       3.300   6.026   0.355  0.00  0.00    +0.170 C 
BRANCH  27  28
ATOM     28  S   UNL     1       2.680   7.730   0.405  0.00  0.00    -0.116 S 
BRANCH  28  29
ATOM     29  C   UNL     1       4.099   8.688   0.824  0.00  0.00    +0.009 A 
ATOM     30  C   UNL     1       5.322   8.064   1.032  0.00  0.00    +0.017 A 
ATOM     31  C   UNL     1       6.434   8.817   1.355  0.00  0.00    +0.039 A 
ATOM     32  C   UNL     1       6.327  10.192   1.482  0.00  0.00    +0.123 A 
ATOM     33  C   UNL     1       5.107  10.815   1.280  0.00  0.00    +0.039 A 
ATOM     34  C   UNL     1       3.994  10.067   0.952  0.00  0.00    +0.017 A 
ATOM     35  F   UNL     1       7.415  10.926   1.802  0.00  0.00    -0.205 F 
ENDBRANCH  28  29
ENDBRANCH  27  28
ENDBRANCH   2  27
TORSDOF 10
