REMARK  Name = ZINC65964708
REMARK  7 active torsions:
REMARK  status: ('A' for Active; 'I' for Inactive)
REMARK    1  A    between atoms: C_1  and  C_2
REMARK    2  A    between atoms: C_2  and  C_3
REMARK    3  A    between atoms: C_2  and  N_13
REMARK    4  A    between atoms: N_9  and  C_10
REMARK    5  A    between atoms: N_9  and  C_11
REMARK    6  A    between atoms: C_16  and  C_19
REMARK    7  A    between atoms: N_21  and  C_22
REMARK                            x       y       z     vdW  Elec       q    Type
REMARK                         _______ _______ _______ _____ _____    ______ ____
ROOT
ATOM      1  N   UNL     1       0.876  -0.371   1.124  0.00  0.00    -0.293 NA
ATOM      2  C   UNL     1       0.255  -0.029   2.409  0.00  0.00    +0.086 C 
ATOM      3  C   UNL     1       1.123  -0.555   3.554  0.00  0.00    +0.028 C 
ATOM      4  C   UNL     1       2.518   0.069   3.458  0.00  0.00    +0.077 C 
ATOM      5  C   UNL     1       3.124  -0.262   2.091  0.00  0.00    +0.028 C 
ATOM      6  C   UNL     1       2.197   0.256   0.989  0.00  0.00    +0.086 C 
ENDROOT
BRANCH   4   7
ATOM      7  C   UNL     1       3.397  -0.491   4.547  0.00  0.00    +0.216 C 
ATOM      8  O   UNL     1       2.952  -1.309   5.324  0.00  0.00    -0.276 OA
ATOM      9  N   UNL     1       4.676  -0.083   4.657  0.00  0.00    -0.312 N 
ATOM     10  H   UNL     1       5.032   0.571   4.036  0.00  0.00    +0.149 HD
BRANCH   9  11
ATOM     11  C   UNL     1       5.530  -0.627   5.716  0.00  0.00    +0.073 C 
ATOM     12  C   UNL     1       5.318   0.172   7.004  0.00  0.00    +0.022 C 
ATOM     13  C   UNL     1       6.210  -0.397   8.109  0.00  0.00    +0.002 C 
ATOM     14  C   UNL     1       7.676  -0.298   7.683  0.00  0.00    +0.000 C 
ATOM     15  C   UNL     1       7.888  -1.097   6.396  0.00  0.00    +0.002 C 
ATOM     16  C   UNL     1       6.996  -0.528   5.290  0.00  0.00    +0.022 C 
ENDBRANCH   9  11
ENDBRANCH   4   7
BRANCH   1  18
ATOM     17  C   UNL     1      -1.316  -0.773   0.110  0.00  0.00    +0.032 C 
ATOM     18  C   UNL     1       0.002  -0.004   0.002  0.00  0.00    +0.122 C 
BRANCH  18  19
ATOM     19  C   UNL     1       0.681  -0.351  -1.298  0.00  0.00    +0.153 A 
ATOM     20  N   UNL     1       1.243  -1.537  -1.452  0.00  0.00    -0.198 NA
ATOM     21  C   UNL     1       1.843  -1.847  -2.599  0.00  0.00    +0.217 A 
ATOM     22  N   UNL     1       1.877  -0.962  -3.590  0.00  0.00    -0.181 NA
ATOM     23  C   UNL     1       1.310   0.229  -3.431  0.00  0.00    +0.222 A 
ATOM     24  N   UNL     1       0.708   0.530  -2.283  0.00  0.00    -0.198 NA
ATOM     25  N   UNL     1       1.343   1.152  -4.457  0.00  0.00    -0.306 N 
ATOM     26  C   UNL     1       2.002   0.818  -5.722  0.00  0.00    +0.132 C 
ATOM     27  C   UNL     1       0.718   2.465  -4.281  0.00  0.00    +0.132 C 
ATOM     28  N   UNL     1       2.430  -3.085  -2.759  0.00  0.00    -0.327 N 
ATOM     29  H   UNL     1       2.406  -3.731  -2.035  0.00  0.00    +0.145 HD
ATOM     30  H   UNL     1       2.867  -3.311  -3.595  0.00  0.00    +0.145 HD
ENDBRANCH  18  19
ENDBRANCH   1  18
TORSDOF 4
