REMARK  Name = ZINC17089766
REMARK  4 active torsions:
REMARK  status: ('A' for Active; 'I' for Inactive)
REMARK    1  A    between atoms: C_3  and  C_19
REMARK    2  A    between atoms: C_6  and  C_7
REMARK    3  A    between atoms: C_7  and  O_8
REMARK    4  A    between atoms: O_8  and  C_9
REMARK                            x       y       z     vdW  Elec       q    Type
REMARK                         _______ _______ _______ _____ _____    ______ ____
ROOT
ATOM      1  C   UNL     1      -0.017   1.379   0.010  0.00  0.00    +0.007 A 
ATOM      2  C   UNL     1       1.168   2.088   0.002  0.00  0.00    +0.012 A 
ATOM      3  C   UNL     1       2.384   1.408  -0.013  0.00  0.00    +0.021 A 
ATOM      4  C   UNL     1       2.397   0.014  -0.021  0.00  0.00    +0.012 A 
ATOM      5  C   UNL     1       1.206  -0.684  -0.013  0.00  0.00    +0.007 A 
ATOM      6  C   UNL     1       0.002  -0.004   0.002  0.00  0.00    -0.010 A 
ENDROOT
BRANCH   3   7
ATOM      7  C   UNL     1       3.660   2.164  -0.022  0.00  0.00    +0.182 A 
ATOM      8  N   UNL     1       3.768   3.477  -0.011  0.00  0.00    -0.143 NA
ATOM      9  N   UNL     1       5.138   3.777  -0.024  0.00  0.00    -0.201 N 
ATOM     10  C   UNL     1       5.837   4.949  -0.020  0.00  0.00    +0.227 A 
ATOM     11  N   UNL     1       7.130   5.021  -0.035  0.00  0.00    -0.214 NA
ATOM     12  C   UNL     1       7.913   3.910  -0.055  0.00  0.00    +0.186 A 
ATOM     13  N   UNL     1       9.207   3.686  -0.073  0.00  0.00    -0.154 NA
ATOM     14  N   UNL     1       9.431   2.304  -0.089  0.00  0.00    -0.282 N 
ATOM     15  C   UNL     1       8.255   1.653  -0.081  0.00  0.00    +0.118 A 
ATOM     16  C   UNL     1       7.256   2.593  -0.060  0.00  0.00    +0.082 A 
ATOM     17  C   UNL     1       5.789   2.572  -0.043  0.00  0.00    +0.170 A 
ATOM     18  N   UNL     1       4.882   1.621  -0.036  0.00  0.00    -0.206 NA
ATOM     19  H   UNL     1      10.303   1.880  -0.104  0.00  0.00    +0.188 HD
ENDBRANCH   3   7
BRANCH   6  20
ATOM     20  C   UNL     1      -1.294  -0.772   0.011  0.00  0.00    +0.264 C 
BRANCH  20  21
ATOM     21  O   UNL     1      -1.717  -1.008  -1.334  0.00  0.00    -0.482 OA
BRANCH  21  22
ATOM     22  C   UNL     1      -2.879  -1.695  -1.504  0.00  0.00    +0.197 A 
ATOM     23  C   UNL     1      -2.861  -3.080  -1.597  0.00  0.00    +0.203 A 
ATOM     24  C   UNL     1      -4.045  -3.777  -1.770  0.00  0.00    +0.165 A 
ATOM     25  C   UNL     1      -5.246  -3.094  -1.850  0.00  0.00    +0.082 A 
ATOM     26  C   UNL     1      -5.267  -1.713  -1.758  0.00  0.00    +0.165 A 
ATOM     27  C   UNL     1      -4.085  -1.012  -1.579  0.00  0.00    +0.203 A 
ATOM     28  F   UNL     1      -4.106   0.336  -1.484  0.00  0.00    -0.199 F 
ATOM     29  F   UNL     1      -6.441  -1.048  -1.837  0.00  0.00    -0.202 F 
ATOM     30  F   UNL     1      -4.027  -5.125  -1.861  0.00  0.00    -0.202 F 
ATOM     31  F   UNL     1      -1.688  -3.747  -1.519  0.00  0.00    -0.199 F 
ENDBRANCH  21  22
ENDBRANCH  20  21
ENDBRANCH   6  20
TORSDOF 4
