REMARK  Name = ZINC42871625
REMARK  3 active torsions:
REMARK  status: ('A' for Active; 'I' for Inactive)
REMARK    1  A    between atoms: C_2  and  C_21
REMARK    2  A    between atoms: N_8  and  N_9
REMARK    3  A    between atoms: N_12  and  C_13
REMARK                            x       y       z     vdW  Elec       q    Type
REMARK                         _______ _______ _______ _____ _____    ______ ____
ROOT
ATOM      1  C   UNL     1      -0.017   1.380   0.010  0.00  0.00    +0.037 A 
ATOM      2  C   UNL     1       1.195   2.059   0.002  0.00  0.00    +0.074 A 
ATOM      3  C   UNL     1       2.373   1.340  -0.013  0.00  0.00    +0.125 A 
ATOM      4  N   UNL     1       2.361   0.020  -0.020  0.00  0.00    -0.237 NA
ATOM      5  C   UNL     1       1.228  -0.664  -0.013  0.00  0.00    +0.153 A 
ATOM      6  C   UNL     1       0.002  -0.004   0.002  0.00  0.00    +0.083 A 
ATOM      7 CL   UNL     1      -1.482  -0.904   0.012  0.00  0.00    -0.080 Cl
ATOM      8  N   UNL     1       1.262  -2.054  -0.021  0.00  0.00    -0.246 N 
ATOM      9  H   UNL     1       0.435  -2.560  -0.016  0.00  0.00    +0.172 HD
ENDROOT
BRANCH   8  10
ATOM     10  N   UNL     1       2.493  -2.725  -0.036  0.00  0.00    -0.219 N 
ATOM     11  C   UNL     1       2.526  -4.072  -0.044  0.00  0.00    +0.316 C 
ATOM     12  O   UNL     1       3.593  -4.654  -0.057  0.00  0.00    -0.251 OA
ATOM     13  N   UNL     1       1.376  -4.774  -0.037  0.00  0.00    -0.294 N 
ATOM     14  H   UNL     1       3.320  -2.219  -0.042  0.00  0.00    +0.174 HD
ATOM     15  H   UNL     1       0.524  -4.310  -0.026  0.00  0.00    +0.151 HD
BRANCH  13  16
ATOM     16  C   UNL     1       1.412  -6.239  -0.045  0.00  0.00    +0.097 C 
ATOM     17  C   UNL     1       1.552  -6.754   1.397  0.00  0.00    +0.046 C 
ATOM     18  C   UNL     1       1.274  -8.285   1.394  0.00  0.00    +0.168 C 
ATOM     19  S   UNL     1      -0.147  -8.366   0.224  0.00  0.00    -0.029 S 
ATOM     20  O   UNL     1       0.057  -9.446  -0.677  0.00  0.00    -0.174 OA
ATOM     21  O   UNL     1      -1.359  -8.292   0.962  0.00  0.00    -0.174 OA
ATOM     22  C   UNL     1       0.105  -6.782  -0.673  0.00  0.00    +0.188 C 
ENDBRANCH  13  16
ENDBRANCH   8  10
BRANCH   2  23
ATOM     23  C   UNL     1       1.223   3.566   0.009  0.00  0.00    +0.419 C 
ATOM     24  F   UNL     1       1.244   4.025   1.330  0.00  0.00    -0.166 F 
ATOM     25  F   UNL     1       2.367   4.014  -0.659  0.00  0.00    -0.166 F 
ATOM     26  F   UNL     1       0.083   4.056  -0.637  0.00  0.00    -0.166 F 
ENDBRANCH   2  23
TORSDOF 3
