REMARK  Name = ZINC39663242
REMARK  3 active torsions:
REMARK  status: ('A' for Active; 'I' for Inactive)
REMARK    1  A    between atoms: C_9  and  C_12
REMARK    2  A    between atoms: C_16  and  C_25
REMARK    3  A    between atoms: N_27  and  C_28
REMARK                            x       y       z     vdW  Elec       q    Type
REMARK                         _______ _______ _______ _____ _____    ______ ____
ROOT
ATOM      1  C   UNL     1       4.651  -2.625  -0.061  0.00  0.00    +0.260 C 
ATOM      2  O   UNL     1       5.446  -1.949  -0.679  0.00  0.00    -0.271 OA
ATOM      3  N   UNL     1       5.004  -3.851   0.375  0.00  0.00    -0.297 N 
ATOM      4  C   UNL     1       4.150  -4.855   1.052  0.00  0.00    +0.121 C 
ATOM      5  C   UNL     1       4.591  -6.209   0.453  0.00  0.00    +0.100 C 
ATOM      6  C   UNL     1       6.026  -5.970  -0.046  0.00  0.00    -0.004 C 
ATOM      7  C   UNL     1       6.333  -4.501   0.281  0.00  0.00    +0.115 C 
ATOM      8  C   UNL     1       6.999  -6.890   0.684  0.00  0.00    -0.010 C 
ATOM      9  C   UNL     1       8.411  -6.674   0.130  0.00  0.00    -0.082 C 
ATOM     10  N   UNL     1       8.422  -6.959  -1.310  0.00  0.00    +0.379 N 
ATOM     11  C   UNL     1       7.554  -6.010  -2.016  0.00  0.00    -0.082 C 
ATOM     12  C   UNL     1       6.106  -6.197  -1.553  0.00  0.00    -0.010 C 
ATOM     13  H   UNL     1       9.365  -6.876  -1.660  0.00  0.00    -0.086 HD
ATOM     14  H   UNL     1       8.090  -7.899  -1.468  0.00  0.00    -0.086 HD
ENDROOT
BRANCH   1  23
ATOM     15  C   UNL     1      -0.505   1.069  -0.307  0.00  0.00    +0.004 A 
ATOM     16  C   UNL     1       0.623   1.848  -0.126  0.00  0.00    +0.004 A 
ATOM     17  C   UNL     1       1.868   1.256  -0.041  0.00  0.00    +0.049 A 
ATOM     18  C   UNL     1       1.991  -0.122  -0.137  0.00  0.00    +0.163 A 
ATOM     19  C   UNL     1       0.857  -0.906  -0.317  0.00  0.00    +0.162 A 
ATOM     20  C   UNL     1      -0.390  -0.305  -0.402  0.00  0.00    +0.049 A 
ATOM     21  O   UNL     1       0.954  -2.260  -0.406  0.00  0.00    -0.484 OA
ATOM     22  C   UNL     1       2.251  -2.796  -0.689  0.00  0.00    +0.283 C 
ATOM     23  C   UNL     1       3.269  -2.095   0.220  0.00  0.00    +0.296 C 
ATOM     24  O   UNL     1       3.225  -0.691  -0.056  0.00  0.00    -0.473 OA
ENDBRANCH   1  23
BRANCH   5  25
ATOM     25  C   UNL     1       4.573  -7.282   1.511  0.00  0.00    +0.218 C 
ATOM     26  O   UNL     1       4.813  -6.998   2.666  0.00  0.00    -0.275 OA
ATOM     27  N   UNL     1       4.290  -8.556   1.175  0.00  0.00    -0.314 N 
ATOM     28  H   UNL     1       4.098  -8.783   0.251  0.00  0.00    +0.149 HD
BRANCH  27  29
ATOM     29  C   UNL     1       4.273  -9.599   2.204  0.00  0.00    +0.059 C 
ATOM     30  C   UNL     1       5.691 -10.132   2.417  0.00  0.00    -0.056 C 
ATOM     31  N   UNL     1       5.738 -11.566   2.121  0.00  0.00    +0.381 N 
ATOM     32  C   UNL     1       4.851 -12.307   3.021  0.00  0.00    -0.078 C 
ATOM     33  C   UNL     1       3.404 -11.846   2.827  0.00  0.00    -0.014 C 
ATOM     34  C   UNL     1       3.370 -10.754   1.750  0.00  0.00    +0.004 C 
ATOM     35  C   UNL     1       3.946 -11.338   0.454  0.00  0.00    -0.014 C 
ATOM     36  C   UNL     1       5.381 -11.816   0.723  0.00  0.00    -0.078 C 
ATOM     37  H   UNL     1       6.681 -11.893   2.274  0.00  0.00    -0.082 HD
ENDBRANCH  27  29
ENDBRANCH   5  25
TORSDOF 3
