REMARK  Name = ZINC44686643
REMARK  5 active torsions:
REMARK  status: ('A' for Active; 'I' for Inactive)
REMARK    1  A    between atoms: C_2  and  N_22
REMARK    2  A    between atoms: C_5  and  S_8
REMARK    3  A    between atoms: S_8  and  N_11
REMARK    4  A    between atoms: N_11  and  C_12
REMARK    5  A    between atoms: N_16  and  C_18
REMARK                            x       y       z     vdW  Elec       q    Type
REMARK                         _______ _______ _______ _____ _____    ______ ____
ROOT
ATOM      1  S   UNL     1       1.229  -2.443  -0.024  0.00  0.00    +0.061 S 
ATOM      2  O   UNL     1      -0.017  -2.860  -0.565  0.00  0.00    -0.153 OA
ATOM      3  O   UNL     1       2.474  -2.831  -0.589  0.00  0.00    -0.153 OA
ENDROOT
BRANCH   1   8
ATOM      4  C   UNL     1      -0.017   1.378   0.010  0.00  0.00    +0.044 A 
ATOM      5  C   UNL     1       1.177   2.088   0.002  0.00  0.00    +0.027 A 
ATOM      6  C   UNL     1       2.387   1.406  -0.013  0.00  0.00    +0.044 A 
ATOM      7  C   UNL     1       2.400   0.023  -0.021  0.00  0.00    +0.070 A 
ATOM      8  C   UNL     1       1.209  -0.681  -0.014  0.00  0.00    +0.142 A 
ATOM      9  C   UNL     1       0.002  -0.004   0.002  0.00  0.00    +0.070 A 
ATOM     10 CL   UNL     1      -1.490  -0.892   0.011  0.00  0.00    -0.081 Cl
ATOM     11 CL   UNL     1       3.912  -0.830  -0.040  0.00  0.00    -0.081 Cl
BRANCH   5  12
ATOM     12  N   UNL     1       1.161   3.484   0.009  0.00  0.00    -0.358 N 
ATOM     13  H   UNL     1       0.316   3.959   0.019  0.00  0.00    +0.142 HD
ATOM     14  H   UNL     1       1.996   3.979   0.004  0.00  0.00    +0.142 HD
ENDBRANCH   5  12
ENDBRANCH   1   8
BRANCH   1  15
ATOM     15  N   UNL     1       1.250  -2.941   1.555  0.00  0.00    -0.189 NA
ATOM     16  H   UNL     1       2.020  -3.417   1.904  0.00  0.00    +0.148 HD
BRANCH  15  17
ATOM     17  C   UNL     1       0.104  -2.664   2.426  0.00  0.00    +0.058 C 
ATOM     18  C   UNL     1       0.373  -1.404   3.280  0.00  0.00    -0.000 C 
ATOM     19  C   UNL     1      -0.233  -1.782   4.655  0.00  0.00    -0.077 C 
ATOM     20  N   UNL     1       0.101  -3.223   4.788  0.00  0.00    +0.383 N 
ATOM     21  C   UNL     1      -0.085  -3.807   3.440  0.00  0.00    -0.058 C 
ATOM     22  H   UNL     1       1.058  -3.333   5.087  0.00  0.00    -0.081 HD
BRANCH  20  23
ATOM     23  C   UNL     1      -0.808  -3.866   5.747  0.00  0.00    -0.069 C 
ATOM     24  C   UNL     1      -0.208  -4.366   7.063  0.00  0.00    -0.017 C 
ATOM     25  C   UNL     1      -0.634  -5.367   5.988  0.00  0.00    -0.017 C 
ENDBRANCH  20  23
ENDBRANCH  15  17
ENDBRANCH   1  15
TORSDOF 5
