REMARK  Name = ZINC42421396
REMARK  5 active torsions:
REMARK  status: ('A' for Active; 'I' for Inactive)
REMARK    1  A    between atoms: C_1  and  C_2
REMARK    2  A    between atoms: C_2  and  O_3
REMARK    3  A    between atoms: O_3  and  C_4
REMARK    4  A    between atoms: N_9  and  C_11
REMARK    5  A    between atoms: C_20  and  N_21
REMARK                            x       y       z     vdW  Elec       q    Type
REMARK                         _______ _______ _______ _____ _____    ______ ____
ROOT
ATOM      1  C   UNL     1       3.129  -4.528   1.771  0.00  0.00    +0.061 A 
ATOM      2  C   UNL     1       4.215  -4.790   2.637  0.00  0.00    +0.022 A 
ATOM      3  C   UNL     1       4.243  -4.284   3.944  0.00  0.00    +0.027 A 
ATOM      4  C   UNL     1       5.307  -4.559   4.750  0.00  0.00    +0.019 A 
ATOM      5  C   UNL     1       6.368  -5.337   4.291  0.00  0.00    +0.017 A 
ATOM      6  C   UNL     1       6.372  -5.844   3.028  0.00  0.00    +0.027 A 
ATOM      7  C   UNL     1       5.291  -5.582   2.167  0.00  0.00    +0.048 A 
ATOM      8  N   UNL     1       5.271  -6.069   0.922  0.00  0.00    -0.359 N 
ATOM      9  C   UNL     1       4.270  -5.835   0.105  0.00  0.00    +0.107 A 
ATOM     10  C   UNL     1       3.171  -5.070   0.492  0.00  0.00    +0.063 A 
ATOM     11 BR   UNL     1       5.345  -3.875   6.513  0.00  0.00    -0.050 Br
ATOM     12  H   UNL     1       6.015  -6.610   0.614  0.00  0.00    +0.165 HD
ENDROOT
BRANCH   1  17
ATOM     13  C   UNL     1       0.770  -1.902   1.249  0.00  0.00    +0.135 C 
ATOM     14  C   UNL     1      -0.444  -2.431   2.015  0.00  0.00    +0.035 C 
ATOM     15  C   UNL     1      -0.380  -3.959   2.083  0.00  0.00    +0.021 C 
ATOM     16  C   UNL     1       0.887  -4.380   2.834  0.00  0.00    +0.105 C 
ATOM     17  N   UNL     1       2.049  -3.755   2.188  0.00  0.00    -0.325 N 
ATOM     18  C   UNL     1       2.050  -2.299   1.990  0.00  0.00    +0.136 C 
BRANCH  13  19
ATOM     19  O   UNL     1       0.693  -0.477   1.160  0.00  0.00    -0.375 OA
BRANCH  19  21
ATOM     20  C   UNL     1      -0.019   1.526   0.010  0.00  0.00    +0.034 C 
ATOM     21  C   UNL     1       0.002  -0.004   0.002  0.00  0.00    +0.157 C 
ENDBRANCH  19  21
ENDBRANCH  13  19
ENDBRANCH   1  17
BRANCH  10  22
ATOM     22  N   UNL     1       2.117  -4.846  -0.406  0.00  0.00    -0.355 N 
ATOM     23  H   UNL     1       1.355  -4.310  -0.134  0.00  0.00    +0.142 HD
ATOM     24  H   UNL     1       2.150  -5.226  -1.297  0.00  0.00    +0.142 HD
ENDBRANCH  10  22
TORSDOF 4
