REMARK  Name = ZINC37785638
REMARK  5 active torsions:
REMARK  status: ('A' for Active; 'I' for Inactive)
REMARK    1  A    between atoms: C_1  and  C_2
REMARK    2  A    between atoms: C_2  and  C_4
REMARK    3  A    between atoms: C_2  and  N_13
REMARK    4  A    between atoms: N_13  and  C_14
REMARK    5  A    between atoms: N_19  and  C_21
REMARK                            x       y       z     vdW  Elec       q    Type
REMARK                         _______ _______ _______ _____ _____    ______ ____
ROOT
ATOM      1  C   UNL     1      -0.076   1.524   0.019  0.00  0.00    +0.033 C 
ATOM      2  C   UNL     1       0.002  -0.004   0.002  0.00  0.00    +0.099 C 
ENDROOT
BRANCH   2   3
ATOM      3  C   UNL     1       0.858  -0.451  -1.155  0.00  0.00    -0.008 A 
ATOM      4  C   UNL     1       2.211  -0.668  -0.971  0.00  0.00    +0.008 A 
ATOM      5  C   UNL     1       2.997  -1.078  -2.031  0.00  0.00    +0.022 A 
ATOM      6  C   UNL     1       2.431  -1.270  -3.279  0.00  0.00    +0.061 A 
ATOM      7  C   UNL     1       1.077  -1.052  -3.465  0.00  0.00    +0.078 A 
ATOM      8  C   UNL     1       0.289  -0.648  -2.400  0.00  0.00    +0.066 A 
ATOM      9 CL   UNL     1      -1.411  -0.382  -2.630  0.00  0.00    -0.082 Cl
ATOM     10 CL   UNL     1       0.365  -1.292  -5.030  0.00  0.00    -0.081 Cl
ATOM     11 CL   UNL     1       3.419  -1.783  -4.611  0.00  0.00    -0.082 Cl
ENDBRANCH   2   3
BRANCH   2  12
ATOM     12  N   UNL     1       0.592  -0.477   1.257  0.00  0.00    -0.336 N 
ATOM     13  H   UNL     1       1.545  -0.649   1.310  0.00  0.00    +0.147 HD
BRANCH  12  14
ATOM     14  C   UNL     1      -0.221  -0.680   2.382  0.00  0.00    +0.044 A 
ATOM     15  C   UNL     1      -1.604  -0.437   2.305  0.00  0.00    +0.030 A 
ATOM     16  C   UNL     1      -2.379  -0.640   3.409  0.00  0.00    +0.072 A 
ATOM     17  C   UNL     1      -1.780  -1.089   4.598  0.00  0.00    +0.251 A 
ATOM     18  O   UNL     1      -2.465  -1.274   5.592  0.00  0.00    -0.268 OA
ATOM     19  N   UNL     1      -0.454  -1.315   4.645  0.00  0.00    -0.316 N 
ATOM     20  C   UNL     1       0.324  -1.119   3.546  0.00  0.00    +0.111 A 
ATOM     21  C   UNL     1       0.157  -1.782   5.891  0.00  0.00    +0.152 C 
ENDBRANCH  12  14
ENDBRANCH   2  12
TORSDOF 3
