REMARK  Name = ZINC04519362
REMARK  7 active torsions:
REMARK  status: ('A' for Active; 'I' for Inactive)
REMARK    1  A    between atoms: C_1  and  C_2
REMARK    2  A    between atoms: C_2  and  C_3
REMARK    3  A    between atoms: N_5  and  C_6
REMARK    4  A    between atoms: C_6  and  C_7
REMARK    5  A    between atoms: C_7  and  C_9
REMARK    6  A    between atoms: C_7  and  S_14
REMARK    7  A    between atoms: S_14  and  C_17
REMARK                            x       y       z     vdW  Elec       q    Type
REMARK                         _______ _______ _______ _____ _____    ______ ____
ROOT
ATOM      1  C   UNL     1      -2.892   4.531   1.808  0.00  0.00    +0.219 C 
ENDROOT
BRANCH   1   2
ATOM      2  C   UNL     1      -1.670   5.117   2.468  0.00  0.00    +0.131 A 
ATOM      3  C   UNL     1      -0.989   4.570   3.490  0.00  0.00    +0.047 A 
ATOM      4  C   UNL     1       0.077   5.449   3.790  0.00  0.00    +0.041 A 
ATOM      5  C   UNL     1      -0.016   6.481   2.932  0.00  0.00    +0.195 A 
ATOM      6  O   UNL     1      -1.073   6.271   2.130  0.00  0.00    -0.466 OA
ENDBRANCH   1   2
BRANCH   1   7
ATOM      7  S   UNL     1      -2.551   4.243   0.050  0.00  0.00    +0.014 S 
ATOM      8  O   UNL     1      -2.046   5.427  -0.551  0.00  0.00    -0.168 OA
ATOM      9  O   UNL     1      -3.625   3.529  -0.546  0.00  0.00    -0.168 OA
BRANCH   7  10
ATOM     10  C   UNL     1      -1.196   3.116   0.030  0.00  0.00    +0.126 A 
ATOM     11  C   UNL     1      -1.213   1.761   0.017  0.00  0.00    +0.035 A 
ATOM     12  C   UNL     1      -0.013   1.076   0.008  0.00  0.00    +0.009 A 
ATOM     13  C   UNL     1       1.146   1.780   0.001  0.00  0.00    +0.047 A 
ATOM     14  S   UNL     1       0.555   3.464   0.015  0.00  0.00    -0.078 S 
ENDBRANCH   7  10
ENDBRANCH   1   7
BRANCH   1  15
ATOM     15  C   UNL     1      -4.063   5.505   1.948  0.00  0.00    +0.138 C 
BRANCH  15  18
ATOM     16  C   UNL     1      -6.411   5.622   1.305  0.00  0.00    +0.213 C 
ATOM     17  O   UNL     1      -6.471   6.712   1.835  0.00  0.00    -0.276 OA
ATOM     18  N   UNL     1      -5.251   4.935   1.307  0.00  0.00    -0.313 N 
ATOM     19  H   UNL     1      -5.203   4.064   0.884  0.00  0.00    +0.149 HD
BRANCH  16  21
ATOM     20  C   UNL     1      -8.804   6.010   0.785  0.00  0.00    +0.013 C 
ATOM     21  C   UNL     1      -7.633   5.036   0.646  0.00  0.00    +0.092 C 
ENDBRANCH  16  21
ENDBRANCH  15  18
ENDBRANCH   1  15
TORSDOF 6
