REMARK  Name = ZINC37759236
REMARK  4 active torsions:
REMARK  status: ('A' for Active; 'I' for Inactive)
REMARK    1  A    between atoms: C_3  and  O_9
REMARK    2  A    between atoms: O_9  and  C_10
REMARK    3  A    between atoms: C_11  and  C_17
REMARK    4  A    between atoms: C_13  and  N_16
REMARK                            x       y       z     vdW  Elec       q    Type
REMARK                         _______ _______ _______ _____ _____    ______ ____
ROOT
ATOM      1  C   UNL     1       3.484   3.458  -0.118  0.00  0.00    +0.238 A 
ATOM      2  C   UNL     1       4.667   4.204  -0.241  0.00  0.00    +0.115 A 
ATOM      3  C   UNL     1       4.580   5.597  -0.340  0.00  0.00    +0.048 A 
ATOM      4  C   UNL     1       3.319   6.181  -0.312  0.00  0.00    +0.044 A 
ATOM      5  C   UNL     1       2.197   5.372  -0.188  0.00  0.00    +0.137 A 
ATOM      6  N   UNL     1       2.309   4.061  -0.101  0.00  0.00    -0.218 NA
ENDROOT
BRANCH   4   7
ATOM      7  N   UNL     1       3.182   7.571  -0.408  0.00  0.00    -0.357 N 
ATOM      8  H   UNL     1       3.969   8.132  -0.494  0.00  0.00    +0.142 HD
ATOM      9  H   UNL     1       2.300   7.974  -0.388  0.00  0.00    +0.142 HD
ENDBRANCH   4   7
BRANCH   2  10
ATOM     10  C   UNL     1       5.941   3.550  -0.265  0.00  0.00    +0.105 C 
ATOM     11  N   UNL     1       6.951   3.032  -0.283  0.00  0.00    -0.191 NA
ENDBRANCH   2  10
BRANCH   1  12
ATOM     12  O   UNL     1       3.549   2.107  -0.021  0.00  0.00    -0.436 OA
BRANCH  12  15
ATOM     13  C   UNL     1       0.618   0.364   1.251  0.00  0.00    +0.042 A 
ATOM     14  C   UNL     1       1.806   1.069   1.223  0.00  0.00    +0.050 A 
ATOM     15  C   UNL     1       2.380   1.413   0.008  0.00  0.00    +0.144 A 
ATOM     16  C   UNL     1       1.759   1.048  -1.179  0.00  0.00    +0.063 A 
ATOM     17  C   UNL     1       0.571   0.343  -1.148  0.00  0.00    +0.057 A 
ATOM     18  C   UNL     1       0.000   0.001   0.067  0.00  0.00    +0.125 A 
ATOM     19  F   UNL     1      -1.161  -0.688   0.096  0.00  0.00    -0.205 F 
ATOM     20 BR   UNL     1       2.538   1.517  -2.837  0.00  0.00    -0.046 Br
ENDBRANCH  12  15
ENDBRANCH   1  12
TORSDOF 4
