REMARK  Name = ZINC47571157
REMARK  8 active torsions:
REMARK  status: ('A' for Active; 'I' for Inactive)
REMARK    1  A    between atoms: C_1  and  N_2
REMARK    2  A    between atoms: N_2  and  C_3
REMARK    3  A    between atoms: C_6  and  C_10
REMARK    4  A    between atoms: C_10  and  N_11
REMARK    5  A    between atoms: C_12  and  C_14
REMARK    6  A    between atoms: C_14  and  C_15
REMARK    7  A    between atoms: C_15  and  N_16
REMARK    8  A    between atoms: N_19  and  C_20
REMARK                            x       y       z     vdW  Elec       q    Type
REMARK                         _______ _______ _______ _____ _____    ______ ____
ROOT
ATOM      1  C   UNL     1      -2.393  -8.159   3.055  0.00  0.00    +0.115 C 
ENDROOT
BRANCH   1   2
ATOM      2  N   UNL     1      -2.388  -8.650   4.436  0.00  0.00    -0.299 N 
ATOM      3  C   UNL     1      -2.400  -9.975   4.680  0.00  0.00    +0.300 C 
ATOM      4  O   UNL     1      -2.414 -10.764   3.754  0.00  0.00    -0.253 OA
ATOM      5  N   UNL     1      -2.395 -10.426   5.950  0.00  0.00    -0.294 N 
ATOM      6  H   UNL     1      -2.376  -8.021   5.174  0.00  0.00    +0.150 HD
ATOM      7  H   UNL     1      -2.383  -9.797   6.688  0.00  0.00    +0.151 HD
BRANCH   5   8
ATOM      8  C   UNL     1      -2.407 -11.867   6.215  0.00  0.00    +0.037 C 
ATOM      9  C   UNL     1      -3.667 -12.487   5.607  0.00  0.00    +0.029 C 
ATOM     10  C   UNL     1      -3.680 -13.991   5.885  0.00  0.00    -0.008 C 
ATOM     11  C   UNL     1      -3.672 -14.232   7.396  0.00  0.00    +0.007 C 
ATOM     12  C   UNL     1      -2.412 -13.612   8.003  0.00  0.00    -0.008 C 
ATOM     13  C   UNL     1      -2.399 -12.107   7.726  0.00  0.00    +0.029 C 
ATOM     14  C   UNL     1      -1.174 -14.257   7.377  0.00  0.00    +0.007 C 
ATOM     15  C   UNL     1      -1.182 -14.016   5.866  0.00  0.00    -0.008 C 
ATOM     16  C   UNL     1      -2.442 -14.636   5.259  0.00  0.00    +0.007 C 
ATOM     17  C   UNL     1      -1.169 -12.512   5.589  0.00  0.00    +0.029 C 
ENDBRANCH   5   8
ENDBRANCH   1   2
BRANCH   1  18
ATOM     18  C   UNL     1      -2.378  -6.629   3.058  0.00  0.00    +0.114 C 
BRANCH  18  20
ATOM     19  N   UNL     1      -2.372  -4.799   1.393  0.00  0.00    -0.311 N 
ATOM     20  C   UNL     1      -2.383  -6.125   1.637  0.00  0.00    +0.215 C 
ATOM     21  O   UNL     1      -2.398  -6.911   0.715  0.00  0.00    -0.276 OA
ATOM     22  H   UNL     1      -2.360  -4.170   2.131  0.00  0.00    +0.149 HD
BRANCH  19  23
ATOM     23  C   UNL     1      -2.377  -4.309   0.013  0.00  0.00    +0.139 C 
BRANCH  23  29
ATOM     24  C   UNL     1      -0.018   1.461   0.010  0.00  0.00    +0.130 C 
ATOM     25  N   UNL     1       0.002  -0.004   0.002  0.00  0.00    -0.323 N 
ATOM     26  C   UNL     1       1.281  -0.719  -0.014  0.00  0.00    +0.130 C 
ATOM     27  C   UNL     1      -1.192  -0.715   0.010  0.00  0.00    +0.098 A 
ATOM     28  C   UNL     1      -1.166  -2.107   0.008  0.00  0.00    +0.047 A 
ATOM     29  C   UNL     1      -2.362  -2.802   0.015  0.00  0.00    -0.026 A 
ATOM     30  C   UNL     1      -3.548  -2.080   0.025  0.00  0.00    +0.023 A 
ATOM     31  C   UNL     1      -3.500  -0.700   0.026  0.00  0.00    +0.084 A 
ATOM     32  N   UNL     1      -2.344  -0.063   0.024  0.00  0.00    -0.350 N 
ATOM     33  H   UNL     1      -2.339   0.907   0.029  0.00  0.00    +0.166 HD
ENDBRANCH  23  29
ENDBRANCH  19  23
ENDBRANCH  18  20
ENDBRANCH   1  18
TORSDOF 6
