REMARK  Name = ZINC12768799
REMARK  11 active torsions:
REMARK  status: ('A' for Active; 'I' for Inactive)
REMARK    1  A    between atoms: C_1  and  C_2
REMARK    2  A    between atoms: C_2  and  C_3
REMARK    3  A    between atoms: C_2  and  C_4
REMARK    4  A    between atoms: C_4  and  C_6
REMARK    5  A    between atoms: C_4  and  N_21
REMARK    6  A    between atoms: C_6  and  O_8
REMARK    7  A    between atoms: O_8  and  C_9
REMARK    8  A    between atoms: C_9  and  C_10
REMARK    9  A    between atoms: C_18  and  N_20
REMARK   10  A    between atoms: N_21  and  S_22
REMARK   11  A    between atoms: S_22  and  C_25
REMARK                            x       y       z     vdW  Elec       q    Type
REMARK                         _______ _______ _______ _____ _____    ______ ____
ROOT
ATOM      1  C   UNL     1       3.967  -0.286  -3.889  0.00  0.00    +0.327 C 
ATOM      2  O   UNL     1       3.430  -1.356  -4.052  0.00  0.00    -0.249 OA
ENDROOT
BRANCH   1   3
ATOM      3  C   UNL     1       4.551   0.067  -2.545  0.00  0.00    +0.187 C 
BRANCH   3   5
ATOM      4  C   UNL     1       6.267   1.578  -3.552  0.00  0.00    +0.009 C 
ATOM      5  C   UNL     1       6.051   0.330  -2.695  0.00  0.00    +0.012 C 
ATOM      6  C   UNL     1       6.671   0.547  -1.312  0.00  0.00    +0.009 C 
ENDBRANCH   3   5
BRANCH   3   7
ATOM      7  N   UNL     1       4.340  -1.045  -1.615  0.00  0.00    -0.176 NA
ATOM      8  H   UNL     1       4.776  -1.898  -1.771  0.00  0.00    +0.149 HD
BRANCH   7   9
ATOM      9  S   UNL     1       3.360  -0.846  -0.295  0.00  0.00    +0.059 S 
ATOM     10  O   UNL     1       3.800   0.333   0.364  0.00  0.00    -0.153 OA
ATOM     11  O   UNL     1       3.297  -2.106   0.358  0.00  0.00    -0.153 OA
BRANCH   9  12
ATOM     12  C   UNL     1       1.738  -0.510  -0.898  0.00  0.00    +0.105 A 
ATOM     13  C   UNL     1       0.860  -1.551  -1.137  0.00  0.00    +0.028 A 
ATOM     14  C   UNL     1      -0.412  -1.287  -1.610  0.00  0.00    +0.002 A 
ATOM     15  C   UNL     1      -0.806   0.017  -1.843  0.00  0.00    +0.000 A 
ATOM     16  C   UNL     1       0.072   1.058  -1.603  0.00  0.00    +0.002 A 
ATOM     17  C   UNL     1       1.344   0.794  -1.131  0.00  0.00    +0.028 A 
ENDBRANCH   9  12
ENDBRANCH   7   9
ENDBRANCH   3   7
ENDBRANCH   1   3
BRANCH   1  18
ATOM     18  O   UNL     1       4.043   0.589  -4.904  0.00  0.00    -0.456 OA
BRANCH  18  19
ATOM     19  C   UNL     1       3.459   0.183  -6.170  0.00  0.00    +0.308 C 
BRANCH  19  20
ATOM     20  C   UNL     1       3.639   1.284  -7.183  0.00  0.00    +0.169 A 
ATOM     21  N   UNL     1       4.722   1.284  -7.922  0.00  0.00    -0.228 NA
ATOM     22  C   UNL     1       4.922   2.245  -8.836  0.00  0.00    +0.076 A 
ATOM     23  C   UNL     1       6.067   2.275  -9.643  0.00  0.00    +0.028 A 
ATOM     24  C   UNL     1       6.220   3.276 -10.557  0.00  0.00    +0.002 A 
ATOM     25  C   UNL     1       5.256   4.269 -10.701  0.00  0.00    +0.001 A 
ATOM     26  C   UNL     1       4.130   4.269  -9.932  0.00  0.00    +0.013 A 
ATOM     27  C   UNL     1       3.942   3.257  -8.985  0.00  0.00    +0.040 A 
ATOM     28  C   UNL     1       2.794   3.203  -8.157  0.00  0.00    +0.128 A 
ATOM     29  N   UNL     1       2.694   2.204  -7.290  0.00  0.00    -0.214 NA
BRANCH  28  30
ATOM     30  N   UNL     1       1.806   4.158  -8.254  0.00  0.00    -0.343 N 
ATOM     31  H   UNL     1       1.891   4.881  -8.896  0.00  0.00    +0.144 HD
ATOM     32  H   UNL     1       1.025   4.109  -7.681  0.00  0.00    +0.144 HD
ENDBRANCH  28  30
ENDBRANCH  19  20
ENDBRANCH  18  19
ENDBRANCH   1  18
TORSDOF 9
