REMARK  Name = ZINC20459237
REMARK  5 active torsions:
REMARK  status: ('A' for Active; 'I' for Inactive)
REMARK    1  A    between atoms: C_1  and  C_2
REMARK    2  A    between atoms: C_5  and  S_8
REMARK    3  A    between atoms: S_8  and  N_11
REMARK    4  A    between atoms: C_14  and  C_23
REMARK    5  A    between atoms: C_15  and  O_22
REMARK                            x       y       z     vdW  Elec       q    Type
REMARK                         _______ _______ _______ _____ _____    ______ ____
ROOT
ATOM      1  N   UNL     1       1.651  -4.999  -0.034  0.00  0.00    -0.202 N 
ATOM      2  C   UNL     1       2.355  -5.196  -1.298  0.00  0.00    +0.137 C 
ATOM      3  C   UNL     1       3.201  -6.466  -1.258  0.00  0.00    +0.071 C 
ATOM      4  C   UNL     1       2.424  -7.608  -0.654  0.00  0.00    +0.073 C 
ATOM      5  C   UNL     1       2.200  -7.639   0.694  0.00  0.00    +0.139 C 
ATOM      6  C   UNL     1       2.647  -6.526   1.545  0.00  0.00    +0.040 A 
ATOM      7  C   UNL     1       2.334  -5.206   1.161  0.00  0.00    +0.062 A 
ATOM      8  C   UNL     1       2.712  -4.141   1.962  0.00  0.00    +0.025 A 
ATOM      9  C   UNL     1       3.416  -4.375   3.128  0.00  0.00    +0.002 A 
ATOM     10  C   UNL     1       3.748  -5.667   3.503  0.00  0.00    +0.001 A 
ATOM     11  C   UNL     1       3.365  -6.751   2.718  0.00  0.00    +0.013 A 
ENDROOT
BRANCH   1  12
ATOM     12  S   UNL     1       0.063  -4.530  -0.023  0.00  0.00    +0.075 S 
ATOM     13  O   UNL     1      -0.476  -4.950   1.223  0.00  0.00    -0.150 OA
ATOM     14  O   UNL     1      -0.490  -4.937  -1.267  0.00  0.00    -0.150 OA
BRANCH  12  19
ATOM     15  C   UNL     1      -0.018   1.503   0.010  0.00  0.00    +0.044 C 
ATOM     16  C   UNL     1       0.002  -0.004   0.002  0.00  0.00    -0.050 A 
ATOM     17  C   UNL     1       0.006  -0.689  -1.199  0.00  0.00    +0.005 A 
ATOM     18  C   UNL     1       0.025  -2.071  -1.206  0.00  0.00    +0.029 A 
ATOM     19  C   UNL     1       0.040  -2.768  -0.013  0.00  0.00    +0.109 A 
ATOM     20  C   UNL     1       0.037  -2.084   1.188  0.00  0.00    +0.029 A 
ATOM     21  C   UNL     1       0.023  -0.702   1.195  0.00  0.00    +0.005 A 
ENDBRANCH  12  19
ENDBRANCH   1  12
BRANCH   5  22
ATOM     22  O   UNL     1       1.565  -8.698   1.248  0.00  0.00    -0.505 OA
ATOM     23  H   UNL     1       1.309  -9.380   0.612  0.00  0.00    +0.292 HD
ENDBRANCH   5  22
BRANCH   4  24
ATOM     24  C   UNL     1       1.923  -8.658  -1.489  0.00  0.00    +0.099 C 
ATOM     25  N   UNL     1       1.525  -9.490  -2.152  0.00  0.00    -0.191 NA
ENDBRANCH   4  24
TORSDOF 4
