REMARK  Name = ZINC65737104
REMARK  3 active torsions:
REMARK  status: ('A' for Active; 'I' for Inactive)
REMARK    1  A    between atoms: C_3  and  N_8
REMARK    2  A    between atoms: C_9  and  C_11
REMARK    3  A    between atoms: C_14  and  C_19
REMARK                            x       y       z     vdW  Elec       q    Type
REMARK                         _______ _______ _______ _____ _____    ______ ____
ROOT
ATOM      1  C   UNL     1       4.916   4.045  -0.237  0.00  0.00    +0.101 A 
ATOM      2  C   UNL     1       4.966   5.439  -0.226  0.00  0.00    +0.020 A 
ATOM      3  C   UNL     1       6.200   6.072  -0.340  0.00  0.00    +0.027 A 
ATOM      4  C   UNL     1       7.351   5.319  -0.463  0.00  0.00    +0.049 A 
ATOM      5  N   UNL     1       7.298   3.956  -0.474  0.00  0.00    -0.321 N 
ATOM      6  H   UNL     1       8.118   3.446  -0.561  0.00  0.00    +0.169 HD
ATOM      7  C   UNL     1       6.123   3.309  -0.360  0.00  0.00    +0.261 A 
ATOM      8  O   UNL     1       6.095   2.091  -0.366  0.00  0.00    -0.267 OA
ENDROOT
BRANCH   4   9
ATOM      9  C   UNL     1       8.658   6.000  -0.585  0.00  0.00    +0.001 A 
ATOM     10  C   UNL     1       8.746   7.397  -0.572  0.00  0.00    +0.029 A 
ATOM     11  C   UNL     1       9.987   7.990  -0.688  0.00  0.00    +0.111 A 
ATOM     12  N   UNL     1      11.078   7.260  -0.810  0.00  0.00    -0.263 NA
ATOM     13  C   UNL     1      11.040   5.942  -0.827  0.00  0.00    +0.111 A 
ATOM     14  C   UNL     1       9.843   5.265  -0.711  0.00  0.00    +0.029 A 
ENDBRANCH   4   9
BRANCH   1  16
ATOM     15  N   UNL     1       3.598   2.003  -0.003  0.00  0.00    -0.266 N 
ATOM     16  C   UNL     1       3.628   3.346  -0.117  0.00  0.00    +0.255 C 
ATOM     17  O   UNL     1       2.590   3.980  -0.121  0.00  0.00    -0.270 OA
ATOM     18  H   UNL     1       4.426   1.503   0.062  0.00  0.00    +0.157 HD
BRANCH  15  21
ATOM     19  C   UNL     1       0.012   1.349   0.384  0.00  0.00    +0.025 A 
ATOM     20  C   UNL     1       1.219   2.025   0.362  0.00  0.00    +0.045 A 
ATOM     21  C   UNL     1       2.376   1.334   0.023  0.00  0.00    +0.125 A 
ATOM     22  N   UNL     1       2.328   0.045  -0.277  0.00  0.00    -0.239 NA
ATOM     23  C   UNL     1       1.193  -0.626  -0.265  0.00  0.00    +0.132 A 
ATOM     24  C   UNL     1       0.004  -0.003   0.063  0.00  0.00    +0.059 A 
ATOM     25 CL   UNL     1      -1.483  -0.898   0.075  0.00  0.00    -0.082 Cl
ENDBRANCH  15  21
ENDBRANCH   1  16
TORSDOF 3
