REMARK  Name = ZINC23498896
REMARK  8 active torsions:
REMARK  status: ('A' for Active; 'I' for Inactive)
REMARK    1  A    between atoms: C_1  and  C_2
REMARK    2  A    between atoms: C_7  and  N_8
REMARK    3  A    between atoms: C_9  and  C_11
REMARK    4  A    between atoms: C_11  and  N_12
REMARK    5  A    between atoms: C_13  and  C_15
REMARK    6  A    between atoms: C_19  and  O_21
REMARK    7  A    between atoms: O_21  and  C_22
REMARK    8  A    between atoms: C_24  and  C_27
REMARK                            x       y       z     vdW  Elec       q    Type
REMARK                         _______ _______ _______ _____ _____    ______ ____
ROOT
ATOM      1  N   UNL     1       3.501  -2.406   0.272  0.00  0.00    -0.303 N 
ATOM      2  C   UNL     1       4.540  -3.259   0.369  0.00  0.00    +0.245 C 
ATOM      3  O   UNL     1       5.678  -2.832   0.380  0.00  0.00    -0.270 OA
ATOM      4  H   UNL     1       2.471  -2.792   0.262  0.00  0.00    +0.150 HD
ENDROOT
BRANCH   2   5
ATOM      5  C   UNL     1       4.296  -4.712   0.462  0.00  0.00    +0.041 A 
ATOM      6  C   UNL     1       5.370  -5.601   0.557  0.00  0.00    +0.020 A 
ATOM      7  C   UNL     1       5.135  -6.952   0.649  0.00  0.00    +0.002 A 
ATOM      8  C   UNL     1       3.840  -7.456   0.633  0.00  0.00    +0.166 A 
ATOM      9  C   UNL     1       2.764  -6.566   0.534  0.00  0.00    +0.163 A 
ATOM     10  C   UNL     1       2.990  -5.208   0.450  0.00  0.00    +0.062 A 
ATOM     11  O   UNL     1       3.839  -8.815   0.714  0.00  0.00    -0.485 OA
ATOM     12  C   UNL     1       5.106  -9.260   1.226  0.00  0.00    +0.175 C 
ATOM     13  C   UNL     1       6.072  -8.139   0.776  0.00  0.00    +0.083 C 
ATOM     14  C   UNL     1       5.069  -9.362   2.752  0.00  0.00    +0.052 C 
BRANCH   9  15
ATOM     15  O   UNL     1       1.491  -7.043   0.521  0.00  0.00    -0.491 OA
ATOM     16  C   UNL     1       0.439  -6.080   0.417  0.00  0.00    +0.277 C 
ENDBRANCH   9  15
ENDBRANCH   2   5
BRANCH   1  17
ATOM     17  C   UNL     1       3.744  -0.964   0.179  0.00  0.00    +0.200 C 
BRANCH  17  19
ATOM     18  N   UNL     1       2.403   1.106  -0.014  0.00  0.00    -0.284 N 
ATOM     19  C   UNL     1       2.426  -0.238   0.081  0.00  0.00    +0.234 C 
ATOM     20  O   UNL     1       1.387  -0.864   0.088  0.00  0.00    -0.274 OA
ATOM     21  H   UNL     1       3.345   1.668  -0.095  0.00  0.00    +0.155 HD
BRANCH  18  28
ATOM     22  C   UNL     1       2.288   3.656   1.242  0.00  0.00    +0.046 C 
ATOM     23  C   UNL     1       1.080   3.034   0.592  0.00  0.00    -0.028 A 
ATOM     24  C   UNL     1      -0.129   3.703   0.594  0.00  0.00    +0.020 A 
ATOM     25  C   UNL     1      -1.238   3.131  -0.002  0.00  0.00    +0.018 A 
ATOM     26  C   UNL     1      -1.140   1.891  -0.607  0.00  0.00    +0.017 A 
ATOM     27  C   UNL     1       0.064   1.215  -0.608  0.00  0.00    +0.024 A 
ATOM     28  C   UNL     1       1.180   1.786  -0.010  0.00  0.00    +0.036 A 
ATOM     29 BR   UNL     1      -2.891   4.051   0.003  0.00  0.00    -0.050 Br
ENDBRANCH  18  28
ENDBRANCH  17  19
ENDBRANCH   1  17
TORSDOF 5
