REMARK  Name = ZINC08088019
REMARK  11 active torsions:
REMARK  status: ('A' for Active; 'I' for Inactive)
REMARK    1  A    between atoms: C_1  and  C_2
REMARK    2  A    between atoms: C_2  and  C_3
REMARK    3  A    between atoms: C_2  and  C_4
REMARK    4  A    between atoms: C_4  and  C_6
REMARK    5  A    between atoms: C_4  and  N_25
REMARK    6  A    between atoms: N_8  and  N_9
REMARK    7  A    between atoms: C_10  and  C_12
REMARK    8  A    between atoms: C_15  and  C_17
REMARK    9  A    between atoms: C_17  and  O_18
REMARK   10  A    between atoms: O_18  and  C_19
REMARK   11  A    between atoms: C_26  and  C_28
REMARK                            x       y       z     vdW  Elec       q    Type
REMARK                         _______ _______ _______ _____ _____    ______ ____
ROOT
ATOM      1  N   UNL     1       0.859   5.654   0.201  0.00  0.00    -0.228 N 
ATOM      2  C   UNL     1       1.453   4.445   0.263  0.00  0.00    +0.295 C 
ATOM      3  O   UNL     1       2.667   4.364   0.284  0.00  0.00    -0.265 OA
ATOM      4  H   UNL     1      -0.108   5.718   0.184  0.00  0.00    +0.173 HD
ENDROOT
BRANCH   2   5
ATOM      5  C   UNL     1       0.636   3.228   0.305  0.00  0.00    +0.191 A 
ATOM      6  C   UNL     1       1.106   1.948   0.369  0.00  0.00    +0.055 A 
ATOM      7  C   UNL     1      -0.017   1.106   0.391  0.00  0.00    +0.049 A 
ATOM      8  C   UNL     1      -1.109   1.899   0.335  0.00  0.00    +0.143 A 
ATOM      9  O   UNL     1      -0.712   3.177   0.289  0.00  0.00    -0.452 OA
BRANCH   8  10
ATOM     10  C   UNL     1      -2.539   1.424   0.328  0.00  0.00    +0.303 C 
BRANCH  10  11
ATOM     11  O   UNL     1      -3.018   1.333   1.671  0.00  0.00    -0.484 OA
BRANCH  11  12
ATOM     12  C   UNL     1      -4.300   0.916   1.843  0.00  0.00    +0.121 A 
ATOM     13  C   UNL     1      -5.083   0.606   0.741  0.00  0.00    +0.045 A 
ATOM     14  C   UNL     1      -6.384   0.176   0.919  0.00  0.00    +0.004 A 
ATOM     15  C   UNL     1      -6.909   0.067   2.193  0.00  0.00    +0.000 A 
ATOM     16  C   UNL     1      -6.132   0.381   3.293  0.00  0.00    +0.004 A 
ATOM     17  C   UNL     1      -4.829   0.805   3.121  0.00  0.00    +0.045 A 
ENDBRANCH  11  12
ENDBRANCH  10  11
ENDBRANCH   8  10
ENDBRANCH   2   5
BRANCH   1  20
ATOM     18  C   UNL     1       1.046   8.025   0.098  0.00  0.00    +0.250 C 
ATOM     19  O   UNL     1      -0.159   8.103  -0.016  0.00  0.00    -0.272 OA
ATOM     20  N   UNL     1       1.640   6.816   0.160  0.00  0.00    -0.233 N 
ATOM     21  H   UNL     1       2.608   6.752   0.176  0.00  0.00    +0.173 HD
BRANCH  18  22
ATOM     22  C   UNL     1       1.880   9.278   0.169  0.00  0.00    +0.163 C 
BRANCH  22  23
ATOM     23  N   UNL     1       1.086  10.359   0.759  0.00  0.00    -0.304 N 
ATOM     24  C   UNL     1       1.702  11.384   1.383  0.00  0.00    +0.211 C 
ATOM     25  O   UNL     1       2.912  11.411   1.454  0.00  0.00    -0.276 OA
ATOM     26  C   UNL     1       0.885  12.496   1.990  0.00  0.00    +0.109 C 
ATOM     27  H   UNL     1       0.118  10.338   0.702  0.00  0.00    +0.149 HD
ENDBRANCH  22  23
BRANCH  22  29
ATOM     28  C   UNL     1       3.245  10.895  -1.159  0.00  0.00    +0.009 C 
ATOM     29  C   UNL     1       2.319   9.680  -1.240  0.00  0.00    +0.012 C 
ATOM     30  C   UNL     1       3.063   8.514  -1.894  0.00  0.00    +0.009 C 
ENDBRANCH  22  29
ENDBRANCH  18  22
ENDBRANCH   1  20
TORSDOF 8
