REMARK  Name = ZINC04209682
REMARK  12 active torsions:
REMARK  status: ('A' for Active; 'I' for Inactive)
REMARK    1  A    between atoms: C_1  and  C_2
REMARK    2  A    between atoms: C_2  and  O_3
REMARK    3  A    between atoms: O_3  and  C_4
REMARK    4  A    between atoms: C_6  and  C_14
REMARK    5  A    between atoms: C_9  and  O_10
REMARK    6  A    between atoms: O_10  and  C_11
REMARK    7  A    between atoms: C_11  and  C_12
REMARK    8  A    between atoms: N_15  and  N_16
REMARK    9  A    between atoms: C_17  and  C_19
REMARK   10  A    between atoms: C_19  and  C_20
REMARK   11  A    between atoms: C_19  and  C_26
REMARK   12  A    between atoms: C_19  and  O_32
REMARK                            x       y       z     vdW  Elec       q    Type
REMARK                         _______ _______ _______ _____ _____    ______ ____
ROOT
ATOM      1  N   UNL     1       0.896  -6.556  -0.531  0.00  0.00    -0.204 N 
ATOM      2  C   UNL     1       2.158  -7.029  -0.510  0.00  0.00    +0.273 C 
ATOM      3  O   UNL     1       3.079  -6.316  -0.847  0.00  0.00    -0.270 OA
ATOM      4  H   UNL     1       0.160  -7.126  -0.262  0.00  0.00    +0.177 HD
ENDROOT
BRANCH   1   6
ATOM      5  C   UNL     1      -0.566  -4.783  -0.962  0.00  0.00    +0.138 C 
ATOM      6  N   UNL     1       0.649  -5.239  -0.942  0.00  0.00    -0.188 NA
BRANCH   5   9
ATOM      7  C   UNL     1      -2.371  -1.605  -1.824  0.00  0.00    +0.163 A 
ATOM      8  C   UNL     1      -2.133  -2.905  -1.417  0.00  0.00    +0.059 A 
ATOM      9  C   UNL     1      -0.826  -3.398  -1.395  0.00  0.00    -0.002 A 
ATOM     10  C   UNL     1       0.234  -2.575  -1.784  0.00  0.00    +0.013 A 
ATOM     11  C   UNL     1      -0.012  -1.282  -2.194  0.00  0.00    +0.050 A 
ATOM     12  C   UNL     1      -1.310  -0.791  -2.211  0.00  0.00    +0.163 A 
BRANCH   7  13
ATOM     13  O   UNL     1      -3.642  -1.122  -1.847  0.00  0.00    -0.489 OA
BRANCH  13  15
ATOM     14  C   UNL     1      -6.032  -1.298  -1.529  0.00  0.00    +0.048 C 
ATOM     15  C   UNL     1      -4.682  -2.013  -1.438  0.00  0.00    +0.226 C 
ENDBRANCH  13  15
ENDBRANCH   7  13
BRANCH  12  16
ATOM     16  O   UNL     1      -1.546   0.487  -2.611  0.00  0.00    -0.477 OA
BRANCH  16  17
ATOM     17  C   UNL     1      -0.412   1.267  -2.993  0.00  0.00    +0.354 C 
BRANCH  17  18
ATOM     18  C   UNL     1      -0.865   2.645  -3.403  0.00  0.00    +0.393 C 
ATOM     19  O   UNL     1      -2.039   2.929  -3.370  0.00  0.00    -0.243 OA
ATOM     20  O   UNL     1       0.035   3.556  -3.804  0.00  0.00    -0.243 OA
ENDBRANCH  17  18
ENDBRANCH  16  17
ENDBRANCH  12  16
ENDBRANCH   5   9
ENDBRANCH   1   6
BRANCH   2  21
ATOM     21  C   UNL     1       2.424  -8.445  -0.068  0.00  0.00    +0.194 C 
BRANCH  21  22
ATOM     22  C   UNL     1       2.247  -9.378  -1.238  0.00  0.00    -0.003 A 
ATOM     23  C   UNL     1       2.698  -9.009  -2.491  0.00  0.00    +0.007 A 
ATOM     24  C   UNL     1       2.539  -9.867  -3.563  0.00  0.00    +0.000 A 
ATOM     25  C   UNL     1       1.921 -11.090  -3.384  0.00  0.00    +0.000 A 
ATOM     26  C   UNL     1       1.465 -11.457  -2.132  0.00  0.00    +0.000 A 
ATOM     27  C   UNL     1       1.628 -10.602  -1.059  0.00  0.00    +0.007 A 
ENDBRANCH  21  22
BRANCH  21  28
ATOM     28  C   UNL     1       3.834  -8.553   0.451  0.00  0.00    -0.003 A 
ATOM     29  C   UNL     1       4.903  -8.355  -0.404  0.00  0.00    +0.007 A 
ATOM     30  C   UNL     1       6.197  -8.449   0.074  0.00  0.00    +0.000 A 
ATOM     31  C   UNL     1       6.422  -8.751   1.404  0.00  0.00    +0.000 A 
ATOM     32  C   UNL     1       5.354  -8.953   2.258  0.00  0.00    +0.000 A 
ATOM     33  C   UNL     1       4.060  -8.854   1.781  0.00  0.00    +0.007 A 
ENDBRANCH  21  28
BRANCH  21  34
ATOM     34  O   UNL     1       1.506  -8.801   0.968  0.00  0.00    -0.371 OA
ATOM     35  H   UNL     1       1.565  -8.241   1.754  0.00  0.00    +0.212 HD
ENDBRANCH  21  34
ENDBRANCH   2  21
TORSDOF 11
