REMARK  Name = ZINC43406200
REMARK  4 active torsions:
REMARK  status: ('A' for Active; 'I' for Inactive)
REMARK    1  A    between atoms: C_1  and  C_2
REMARK    2  A    between atoms: C_3  and  N_19
REMARK    3  A    between atoms: C_4  and  C_18
REMARK    4  A    between atoms: C_8  and  C_16
REMARK                            x       y       z     vdW  Elec       q    Type
REMARK                         _______ _______ _______ _____ _____    ______ ____
ROOT
ATOM      1  C   UNL     1      -0.018   1.503   0.010  0.00  0.00    +0.069 C 
ATOM      2  C   UNL     1       0.002  -0.004   0.002  0.00  0.00    +0.081 A 
ATOM      3  C   UNL     1       0.008  -0.819  -1.141  0.00  0.00    +0.069 A 
ATOM      4  C   UNL     1       0.027  -2.111  -0.731  0.00  0.00    +0.064 A 
ATOM      5  N   UNL     1       0.034  -2.109   0.633  0.00  0.00    -0.216 N 
ATOM      6  N   UNL     1       0.023  -0.775   1.059  0.00  0.00    -0.168 NA
ATOM      7  C   UNL     1       0.052  -3.234   1.456  0.00  0.00    +0.172 A 
ATOM      8  C   UNL     1       0.051  -3.077   2.850  0.00  0.00    +0.096 A 
ATOM      9  C   UNL     1       0.070  -4.223   3.653  0.00  0.00    +0.028 A 
ATOM     10  C   UNL     1       0.089  -5.463   3.036  0.00  0.00    -0.025 A 
ATOM     11  C   UNL     1       0.090  -5.539   1.654  0.00  0.00    +0.047 A 
ATOM     12  N   UNL     1       0.067  -4.439   0.918  0.00  0.00    -0.231 NA
ATOM     13  C   UNL     1       0.112  -6.993   1.227  0.00  0.00    +0.056 C 
ATOM     14  C   UNL     1       0.568  -7.776   2.477  0.00  0.00    +0.011 C 
ATOM     15  C   UNL     1       0.113  -6.854   3.629  0.00  0.00    +0.037 C 
ATOM     16  C   UNL     1       0.039  -3.328  -1.620  0.00  0.00    +0.068 C 
ENDROOT
BRANCH   3  17
ATOM     17  N   UNL     1      -0.004  -0.373  -2.476  0.00  0.00    -0.355 N 
ATOM     18  H   UNL     1      -0.018   0.577  -2.670  0.00  0.00    +0.142 HD
ATOM     19  H   UNL     1       0.001  -1.017  -3.202  0.00  0.00    +0.142 HD
ENDBRANCH   3  17
BRANCH   8  20
ATOM     20  C   UNL     1       0.031  -1.772   3.440  0.00  0.00    +0.103 C 
ATOM     21  N   UNL     1       0.015  -0.737   3.907  0.00  0.00    -0.191 NA
ENDBRANCH   8  20
TORSDOF 2
