REMARK  Name = ZINC18197295
REMARK  9 active torsions:
REMARK  status: ('A' for Active; 'I' for Inactive)
REMARK    1  A    between atoms: C_1  and  C_2
REMARK    2  A    between atoms: C_5  and  C_9
REMARK    3  A    between atoms: C_7  and  C_8
REMARK    4  A    between atoms: C_16  and  O_17
REMARK    5  A    between atoms: C_24  and  C_27
REMARK    6  A    between atoms: C_30  and  O_35
REMARK    7  A    between atoms: C_31  and  O_33
REMARK    8  A    between atoms: O_33  and  C_34
REMARK    9  A    between atoms: O_35  and  C_36
REMARK                            x       y       z     vdW  Elec       q    Type
REMARK                         _______ _______ _______ _____ _____    ______ ____
ROOT
ATOM      1  C   UNL     1      -2.514   0.979   0.019  0.00  0.00    +0.092 C 
ATOM      2  C   UNL     1      -3.311   1.339  -1.202  0.00  0.00    +0.067 A 
ATOM      3  C   UNL     1      -4.428   2.129  -1.143  0.00  0.00    +0.126 A 
ATOM      4  N   UNL     1      -4.904   2.263  -2.395  0.00  0.00    -0.260 N 
ATOM      5  H   UNL     1      -5.712   2.787  -2.666  0.00  0.00    +0.190 HD
ATOM      6  N   UNL     1      -4.064   1.534  -3.252  0.00  0.00    -0.134 NA
ATOM      7  C   UNL     1      -3.111   0.983  -2.533  0.00  0.00    +0.237 A 
ATOM      8  N   UNL     1      -4.891   2.641   0.064  0.00  0.00    -0.303 N 
ATOM      9  C   UNL     1      -4.399   2.113   1.231  0.00  0.00    +0.017 C 
ATOM     10  C   UNL     1      -3.303   1.324   1.264  0.00  0.00    +0.024 C 
ATOM     11  C   UNL     1      -2.841   0.781   2.476  0.00  0.00    +0.162 C 
ATOM     12  O   UNL     1      -1.849   0.079   2.471  0.00  0.00    -0.292 OA
ATOM     13  C   UNL     1      -3.544   1.048   3.777  0.00  0.00    +0.088 C 
ATOM     14  C   UNL     1      -5.029   1.301   3.496  0.00  0.00    +0.032 C 
ATOM     15  C   UNL     1      -5.140   2.459   2.503  0.00  0.00    +0.059 C 
ATOM     16  H   UNL     1      -5.547   3.355   0.081  0.00  0.00    +0.153 HD
ENDROOT
BRANCH   1  21
ATOM     17  C   UNL     1       2.451   3.937  -0.001  0.00  0.00    +0.044 C 
ATOM     18  C   UNL     1       1.157   3.165   0.008  0.00  0.00    -0.048 A 
ATOM     19  C   UNL     1      -0.050   3.840   0.022  0.00  0.00    +0.004 A 
ATOM     20  C   UNL     1      -1.238   3.133   0.030  0.00  0.00    +0.005 A 
ATOM     21  C   UNL     1      -1.219   1.750   0.017  0.00  0.00    -0.035 A 
ATOM     22  C   UNL     1      -0.013   1.076   0.008  0.00  0.00    +0.008 A 
ATOM     23  C   UNL     1       1.175   1.783   0.000  0.00  0.00    -0.047 A 
ATOM     24  C   UNL     1       2.490   1.048  -0.016  0.00  0.00    +0.044 C 
ENDBRANCH   1  21
BRANCH  14  25
ATOM     25  C   UNL     1      -5.734   1.661   4.778  0.00  0.00    -0.040 A 
ATOM     26  C   UNL     1      -5.319   2.759   5.508  0.00  0.00    +0.008 A 
ATOM     27  C   UNL     1      -5.966   3.097   6.682  0.00  0.00    +0.049 A 
ATOM     28  C   UNL     1      -7.027   2.329   7.134  0.00  0.00    +0.161 A 
ATOM     29  C   UNL     1      -7.442   1.221   6.402  0.00  0.00    +0.162 A 
ATOM     30  C   UNL     1      -6.792   0.891   5.223  0.00  0.00    +0.053 A 
BRANCH  29  31
ATOM     31  O   UNL     1      -8.482   0.464   6.842  0.00  0.00    -0.491 OA
ATOM     32  C   UNL     1      -8.852  -0.659   6.039  0.00  0.00    +0.277 C 
ENDBRANCH  29  31
BRANCH  28  33
ATOM     33  O   UNL     1      -7.661   2.657   8.292  0.00  0.00    -0.491 OA
ATOM     34  C   UNL     1      -7.181   3.807   8.991  0.00  0.00    +0.277 C 
ENDBRANCH  28  33
ENDBRANCH  14  25
BRANCH   7  35
ATOM     35  O   UNL     1      -2.105   0.201  -3.006  0.00  0.00    -0.491 OA
ATOM     36  H   UNL     1      -2.196   0.104  -3.997  0.00  0.00    +0.294 HD
ENDBRANCH   7  35
TORSDOF 5
