REMARK  Name = ZINC33141392
REMARK  7 active torsions:
REMARK  status: ('A' for Active; 'I' for Inactive)
REMARK    1  A    between atoms: C_1  and  C_2
REMARK    2  A    between atoms: C_2  and  C_3
REMARK    3  A    between atoms: C_3  and  N_4
REMARK    4  A    between atoms: C_5  and  C_7
REMARK    5  A    between atoms: N_21  and  C_24
REMARK    6  A    between atoms: C_24  and  C_25
REMARK    7  A    between atoms: N_27  and  C_28
REMARK                            x       y       z     vdW  Elec       q    Type
REMARK                         _______ _______ _______ _____ _____    ______ ____
ROOT
ATOM      1  C   UNL     1       8.101  -8.669  -6.277  0.00  0.00    +0.092 C 
ATOM      2  C   UNL     1       7.480  -9.543  -7.370  0.00  0.00    +0.016 C 
ATOM      3  C   UNL     1       6.944  -8.644  -8.488  0.00  0.00    +0.020 C 
ATOM      4  C   UNL     1       5.926  -7.662  -7.903  0.00  0.00    +0.107 C 
ATOM      5  N   UNL     1       6.569  -6.850  -6.863  0.00  0.00    -0.309 N 
ATOM      6  C   UNL     1       7.050  -7.687  -5.756  0.00  0.00    +0.119 C 
ATOM      7  C   UNL     1       5.717  -5.868  -6.406  0.00  0.00    +0.164 A 
ATOM      8  N   UNL     1       5.911  -4.565  -6.370  0.00  0.00    -0.205 NA
ATOM      9  C   UNL     1       4.994  -3.719  -5.898  0.00  0.00    +0.176 A 
ATOM     10  C   UNL     1       3.808  -4.324  -5.442  0.00  0.00    +0.124 A 
ATOM     11  S   UNL     1       4.124  -6.044  -5.736  0.00  0.00    -0.045 S 
ATOM     12  C   UNL     1       2.762  -3.574  -4.922  0.00  0.00    +0.270 A 
ATOM     13  O   UNL     1       1.738  -4.110  -4.531  0.00  0.00    -0.266 OA
ATOM     14  N   UNL     1       2.912  -2.228  -4.863  0.00  0.00    -0.289 N 
ATOM     15  C   UNL     1       4.064  -1.668  -5.314  0.00  0.00    +0.204 A 
ATOM     16  N   UNL     1       5.049  -2.360  -5.796  0.00  0.00    -0.217 NA
ENDROOT
BRANCH   1  18
ATOM     17  N   UNL     1       9.163  -8.986  -4.066  0.00  0.00    -0.315 N 
ATOM     18  C   UNL     1       8.578  -9.542  -5.145  0.00  0.00    +0.218 C 
ATOM     19  O   UNL     1       8.435 -10.745  -5.205  0.00  0.00    -0.275 OA
ATOM     20  H   UNL     1       9.293  -7.895  -4.011  0.00  0.00    +0.149 HD
BRANCH  17  21
ATOM     21  C   UNL     1       9.627  -9.835  -2.965  0.00  0.00    +0.104 C 
BRANCH  21  23
ATOM     22  C   UNL     1      10.732  -9.848  -0.725  0.00  0.00    +0.005 C 
ATOM     23  C   UNL     1      10.248  -8.961  -1.874  0.00  0.00    +0.015 C 
ENDBRANCH  21  23
ENDBRANCH  17  21
ENDBRANCH   1  18
BRANCH  14  24
ATOM     24  C   UNL     1       1.841  -1.386  -4.324  0.00  0.00    +0.222 C 
BRANCH  24  25
ATOM     25  C   UNL     1       2.035  -1.218  -2.838  0.00  0.00    +0.233 C 
ATOM     26  O   UNL     1       2.974  -1.748  -2.285  0.00  0.00    -0.274 OA
ATOM     27  N   UNL     1       1.163  -0.477  -2.125  0.00  0.00    -0.307 N 
ATOM     28  H   UNL     1       0.311   0.004  -2.627  0.00  0.00    +0.149 HD
BRANCH  27  29
ATOM     29  C   UNL     1       1.351  -0.313  -0.682  0.00  0.00    +0.104 C 
ATOM     30  C   UNL     1       0.002  -0.004   0.002  0.00  0.00    +0.032 C 
ATOM     31  C   UNL     1      -0.019   1.539   0.011  0.00  0.00    +0.037 C 
ATOM     32  C   UNL     1       1.437   1.955  -0.001  0.00  0.00    -0.042 A 
ATOM     33  C   UNL     1       2.224   0.890  -0.399  0.00  0.00    -0.024 A 
ATOM     34  C   UNL     1       3.597   1.042  -0.482  0.00  0.00    +0.006 A 
ATOM     35  C   UNL     1       4.183   2.254  -0.169  0.00  0.00    +0.000 A 
ATOM     36  C   UNL     1       3.396   3.318   0.228  0.00  0.00    +0.000 A 
ATOM     37  C   UNL     1       2.025   3.168   0.312  0.00  0.00    +0.004 A 
ENDBRANCH  27  29
ENDBRANCH  24  25
ENDBRANCH  14  24
TORSDOF 6
