REMARK  Name = ZINC12103701
REMARK  6 active torsions:
REMARK  status: ('A' for Active; 'I' for Inactive)
REMARK    1  A    between atoms: C_6  and  C_25
REMARK    2  A    between atoms: C_7  and  N_9
REMARK    3  A    between atoms: C_10  and  C_12
REMARK    4  A    between atoms: C_12  and  S_13
REMARK    5  A    between atoms: S_13  and  C_14
REMARK    6  A    between atoms: C_17  and  C_20
REMARK                            x       y       z     vdW  Elec       q    Type
REMARK                         _______ _______ _______ _____ _____    ______ ____
ROOT
ATOM      1  N   UNL     1       0.002  -0.004   0.002  0.00  0.00    -0.279 N 
ATOM      2  C   UNL     1      -0.016   1.344   0.009  0.00  0.00    +0.228 C 
ATOM      3  O   UNL     1       1.026   1.964   0.003  0.00  0.00    -0.275 OA
ATOM      4  H   UNL     1      -0.831  -0.500   0.007  0.00  0.00    +0.155 HD
ENDROOT
BRANCH   1  11
ATOM      5  C   UNL     1       4.671  -4.082  -0.519  0.00  0.00    +0.005 C 
ATOM      6  C   UNL     1       5.557  -3.152   0.314  0.00  0.00    +0.005 C 
ATOM      7  C   UNL     1       5.231  -1.697  -0.054  0.00  0.00    +0.043 C 
ATOM      8  C   UNL     1       3.743  -1.529  -0.041  0.00  0.00    -0.004 A 
ATOM      9  C   UNL     1       2.813  -2.508  -0.037  0.00  0.00    -0.023 A 
ATOM     10  C   UNL     1       1.434  -2.051  -0.017  0.00  0.00    +0.068 A 
ATOM     11  C   UNL     1       1.212  -0.681  -0.013  0.00  0.00    +0.084 A 
ATOM     12  S   UNL     1       2.814  -0.022  -0.024  0.00  0.00    -0.077 S 
ATOM     13  C   UNL     1       3.219  -3.976  -0.049  0.00  0.00    +0.037 C 
BRANCH  10  14
ATOM     14  C   UNL     1       0.318  -3.002  -0.005  0.00  0.00    +0.244 C 
ATOM     15  O   UNL     1      -0.157  -3.396  -1.054  0.00  0.00    -0.270 OA
ATOM     16  N   UNL     1      -0.182  -3.439   1.168  0.00  0.00    -0.325 N 
ATOM     17  H   UNL     1       0.197  -3.125   2.004  0.00  0.00    +0.145 HD
ATOM     18  H   UNL     1      -0.920  -4.069   1.176  0.00  0.00    +0.145 HD
ENDBRANCH  10  14
ENDBRANCH   1  11
BRANCH   2  19
ATOM     19  C   UNL     1      -1.331   2.079   0.020  0.00  0.00    +0.173 C 
BRANCH  19  20
ATOM     20  S   UNL     1      -1.025   3.863   0.028  0.00  0.00    -0.077 S 
BRANCH  20  21
ATOM     21  C   UNL     1      -2.683   4.458   0.039  0.00  0.00    +0.189 A 
ATOM     22  N   UNL     1      -3.076   5.766   0.048  0.00  0.00    -0.320 N 
ATOM     23  H   UNL     1      -2.504   6.550   0.050  0.00  0.00    +0.169 HD
ATOM     24  C   UNL     1      -4.444   5.742   0.053  0.00  0.00    +0.135 A 
ATOM     25  N   UNL     1      -4.809   4.491   0.048  0.00  0.00    -0.133 NA
ATOM     26  N   UNL     1      -3.775   3.729   0.035  0.00  0.00    -0.123 NA
BRANCH  24  27
ATOM     27  C   UNL     1      -5.358   6.939   0.064  0.00  0.00    +0.057 C 
ATOM     28  C   UNL     1      -4.715   8.102  -0.720  0.00  0.00    +0.011 C 
ATOM     29  C   UNL     1      -5.118   9.367   0.080  0.00  0.00    +0.001 C 
ATOM     30  C   UNL     1      -5.029   8.886   1.550  0.00  0.00    +0.001 C 
ATOM     31  C   UNL     1      -5.558   7.437   1.506  0.00  0.00    +0.011 C 
ENDBRANCH  24  27
ENDBRANCH  20  21
ENDBRANCH  19  20
ENDBRANCH   2  19
TORSDOF 6
