REMARK  Name = ZINC50829117
REMARK  5 active torsions:
REMARK  status: ('A' for Active; 'I' for Inactive)
REMARK    1  A    between atoms: C_1  and  C_2
REMARK    2  A    between atoms: C_2  and  C_3
REMARK    3  A    between atoms: C_3  and  C_18
REMARK    4  A    between atoms: N_6  and  C_10
REMARK    5  A    between atoms: C_10  and  C_11
REMARK                            x       y       z     vdW  Elec       q    Type
REMARK                         _______ _______ _______ _____ _____    ______ ____
ROOT
ATOM      1  C   UNL     1      -1.433  -0.534   0.013  0.00  0.00    +0.110 C 
ATOM      2  C   UNL     1      -1.447  -2.033   0.236  0.00  0.00    +0.247 C 
ATOM      3  O   UNL     1      -0.952  -2.883  -0.472  0.00  0.00    -0.273 OA
ATOM      4  N   UNL     1      -2.123  -2.224   1.386  0.00  0.00    -0.220 N 
ATOM      5  C   UNL     1      -2.534  -1.066   1.915  0.00  0.00    +0.310 C 
ATOM      6  O   UNL     1      -3.163  -0.982   2.952  0.00  0.00    -0.252 OA
ATOM      7  N   UNL     1      -2.172  -0.004   1.172  0.00  0.00    -0.285 N 
ATOM      8  C   UNL     1      -2.148  -0.174  -1.291  0.00  0.00    +0.041 C 
ATOM      9  H   UNL     1      -2.361   0.928   1.363  0.00  0.00    +0.151 HD
ENDROOT
BRANCH   1  11
ATOM     10  C   UNL     1      -0.019   1.526   0.010  0.00  0.00    +0.006 C 
ATOM     11  C   UNL     1       0.002  -0.004   0.002  0.00  0.00    +0.031 C 
ENDBRANCH   1  11
BRANCH   4  12
ATOM     12  C   UNL     1      -2.377  -3.537   1.983  0.00  0.00    +0.154 C 
BRANCH  12  13
ATOM     13  C   UNL     1      -1.249  -3.891   2.918  0.00  0.00    -0.011 A 
ATOM     14  C   UNL     1      -0.136  -4.575   2.447  0.00  0.00    +0.010 A 
ATOM     15  C   UNL     1       0.877  -4.880   3.337  0.00  0.00    +0.043 A 
ATOM     16  C   UNL     1       0.748  -4.494   4.668  0.00  0.00    +0.116 A 
ATOM     17  N   UNL     1      -0.329  -3.843   5.078  0.00  0.00    -0.240 NA
ATOM     18  C   UNL     1      -1.308  -3.534   4.250  0.00  0.00    +0.118 A 
ATOM     19  N   UNL     1       1.758  -4.795   5.574  0.00  0.00    -0.343 N 
ATOM     20  H   UNL     1       2.549  -5.272   5.277  0.00  0.00    +0.144 HD
ATOM     21  H   UNL     1       1.673  -4.528   6.502  0.00  0.00    +0.144 HD
ENDBRANCH  12  13
ENDBRANCH   4  12
TORSDOF 3
