REMARK  Name = ZINC54043596
REMARK  9 active torsions:
REMARK  status: ('A' for Active; 'I' for Inactive)
REMARK    1  A    between atoms: C_1  and  C_2
REMARK    2  A    between atoms: C_6  and  O_8
REMARK    3  A    between atoms: O_8  and  C_9
REMARK    4  A    between atoms: C_9  and  C_10
REMARK    5  A    between atoms: N_12  and  N_13
REMARK    6  A    between atoms: N_16  and  C_17
REMARK    7  A    between atoms: C_17  and  C_18
REMARK    8  A    between atoms: C_18  and  C_20
REMARK    9  A    between atoms: C_18  and  N_26
REMARK                            x       y       z     vdW  Elec       q    Type
REMARK                         _______ _______ _______ _____ _____    ______ ____
ROOT
ATOM      1  N   UNL     1       0.100  -6.638   5.056  0.00  0.00    -0.218 N 
ATOM      2  C   UNL     1       0.021  -7.970   5.242  0.00  0.00    +0.316 C 
ATOM      3  O   UNL     1      -0.126  -8.419   6.362  0.00  0.00    -0.251 OA
ATOM      4  N   UNL     1       0.106  -8.804   4.187  0.00  0.00    -0.299 N 
ATOM      5  H   UNL     1       0.039  -6.037   5.815  0.00  0.00    +0.174 HD
ATOM      6  H   UNL     1       0.224  -8.446   3.294  0.00  0.00    +0.150 HD
ENDROOT
BRANCH   1   9
ATOM      7  C   UNL     1       0.349  -4.787   3.579  0.00  0.00    +0.267 C 
ATOM      8  O   UNL     1       0.273  -4.037   4.528  0.00  0.00    -0.271 OA
ATOM      9  N   UNL     1       0.270  -6.120   3.765  0.00  0.00    -0.230 N 
ATOM     10  H   UNL     1       0.331  -6.720   3.006  0.00  0.00    +0.173 HD
BRANCH   7  11
ATOM     11  C   UNL     1       0.532  -4.230   2.191  0.00  0.00    +0.326 C 
BRANCH  11  12
ATOM     12  O   UNL     1       0.586  -2.804   2.253  0.00  0.00    -0.483 OA
BRANCH  12  18
ATOM     13  C   UNL     1       1.042   1.423  -0.144  0.00  0.00    +0.044 C 
ATOM     14  C   UNL     1       0.976  -0.082  -0.130  0.00  0.00    -0.047 A 
ATOM     15  C   UNL     1       1.081  -0.790  -1.313  0.00  0.00    +0.003 A 
ATOM     16  C   UNL     1       1.020  -2.171  -1.303  0.00  0.00    +0.004 A 
ATOM     17  C   UNL     1       0.855  -2.848  -0.110  0.00  0.00    +0.045 A 
ATOM     18  C   UNL     1       0.749  -2.140   1.078  0.00  0.00    +0.121 A 
ATOM     19  C   UNL     1       0.816  -0.754   1.066  0.00  0.00    +0.049 A 
ENDBRANCH  12  18
ENDBRANCH  11  12
ENDBRANCH   7  11
ENDBRANCH   1   9
BRANCH   4  20
ATOM     20  C   UNL     1       0.020 -10.253   4.390  0.00  0.00    +0.095 C 
BRANCH  20  21
ATOM     21  C   UNL     1       0.036 -10.959   3.033  0.00  0.00    -0.020 C 
BRANCH  21  22
ATOM     22  C   UNL     1       1.371 -10.741   2.369  0.00  0.00    -0.059 A 
ATOM     23  C   UNL     1       2.460 -11.508   2.736  0.00  0.00    +0.002 A 
ATOM     24  C   UNL     1       3.684 -11.308   2.127  0.00  0.00    +0.000 A 
ATOM     25  C   UNL     1       3.820 -10.340   1.149  0.00  0.00    +0.000 A 
ATOM     26  C   UNL     1       2.730  -9.573   0.781  0.00  0.00    +0.000 A 
ATOM     27  C   UNL     1       1.505  -9.777   1.387  0.00  0.00    +0.002 A 
ENDBRANCH  21  22
BRANCH  21  28
ATOM     28  N   UNL     1      -0.184 -12.399   3.228  0.00  0.00    +0.385 N 
ATOM     29  C   UNL     1      -1.528 -12.636   3.815  0.00  0.00    -0.078 C 
ATOM     30  C   UNL     1      -1.824 -14.109   3.437  0.00  0.00    -0.020 C 
ATOM     31  C   UNL     1      -1.223 -14.230   2.018  0.00  0.00    -0.020 C 
ATOM     32  C   UNL     1      -0.185 -13.095   1.923  0.00  0.00    -0.078 C 
ATOM     33  H   UNL     1       0.531 -12.783   3.827  0.00  0.00    -0.081 HD
ENDBRANCH  21  28
ENDBRANCH  20  21
ENDBRANCH   4  20
TORSDOF 8
