REMARK  Name = ZINC62497434
REMARK  7 active torsions:
REMARK  status: ('A' for Active; 'I' for Inactive)
REMARK    1  A    between atoms: C_1  and  C_2
REMARK    2  A    between atoms: C_5  and  C_8
REMARK    3  A    between atoms: C_8  and  C_9
REMARK    4  A    between atoms: N_13  and  C_22
REMARK    5  A    between atoms: C_16  and  N_21
REMARK    6  A    between atoms: C_22  and  C_23
REMARK    7  A    between atoms: C_23  and  C_25
REMARK                            x       y       z     vdW  Elec       q    Type
REMARK                         _______ _______ _______ _____ _____    ______ ____
ROOT
ATOM      1  C   UNL     1       1.508  -4.767  -0.032  0.00  0.00    +0.263 C 
ATOM      2  C   UNL     1       1.528  -6.268  -0.166  0.00  0.00    +0.261 C 
ATOM      3  O   UNL     1       1.614  -6.781  -1.262  0.00  0.00    -0.271 OA
ATOM      4  N   UNL     1       1.451  -7.040   0.938  0.00  0.00    -0.261 N 
ATOM      5  C   UNL     1       1.480  -6.433   2.201  0.00  0.00    +0.080 A 
ATOM      6  C   UNL     1       1.176  -7.162   3.339  0.00  0.00    +0.050 A 
ATOM      7  C   UNL     1       1.198  -6.542   4.581  0.00  0.00    +0.027 A 
ATOM      8  C   UNL     1       1.521  -5.195   4.681  0.00  0.00    +0.026 A 
ATOM      9  C   UNL     1       1.830  -4.469   3.546  0.00  0.00    +0.049 A 
ATOM     10  C   UNL     1       1.816  -5.085   2.306  0.00  0.00    +0.143 A 
ATOM     11  O   UNL     1       2.149  -4.385   1.187  0.00  0.00    -0.477 OA
ENDROOT
BRANCH   7  12
ATOM     12  N   UNL     1       0.892  -7.275   5.733  0.00  0.00    -0.358 N 
ATOM     13  H   UNL     1       0.665  -8.216   5.664  0.00  0.00    +0.142 HD
ATOM     14  H   UNL     1       0.906  -6.843   6.601  0.00  0.00    +0.142 HD
ENDBRANCH   7  12
BRANCH   1  15
ATOM     15  C   UNL     1       0.059  -4.275  -0.021  0.00  0.00    +0.089 C 
BRANCH  15  20
ATOM     16  C   UNL     1      -0.018   1.503   0.010  0.00  0.00    +0.044 C 
ATOM     17  C   UNL     1       0.002  -0.004   0.002  0.00  0.00    -0.050 A 
ATOM     18  C   UNL     1       0.006  -0.689  -1.199  0.00  0.00    +0.003 A 
ATOM     19  C   UNL     1       0.025  -2.071  -1.206  0.00  0.00    +0.004 A 
ATOM     20  C   UNL     1       0.040  -2.768  -0.013  0.00  0.00    -0.043 A 
ATOM     21  C   UNL     1       0.037  -2.084   1.188  0.00  0.00    +0.004 A 
ATOM     22  C   UNL     1       0.023  -0.702   1.195  0.00  0.00    +0.003 A 
ENDBRANCH  15  20
ENDBRANCH   1  15
BRANCH   4  23
ATOM     23  C   UNL     1       1.337  -8.496   0.819  0.00  0.00    +0.143 C 
BRANCH  23  24
ATOM     24  C   UNL     1       2.714  -9.108   0.798  0.00  0.00    -0.062 C 
ATOM     25  C   UNL     1       3.248  -9.554   1.907  0.00  0.00    +0.009 C 
ATOM     26  C   UNL     1       3.475  -9.206  -0.499  0.00  0.00    +0.040 C 
ENDBRANCH  23  24
ENDBRANCH   4  23
TORSDOF 5
