REMARK  Name = ZINC39970172
REMARK  5 active torsions:
REMARK  status: ('A' for Active; 'I' for Inactive)
REMARK    1  A    between atoms: C_1  and  C_2
REMARK    2  A    between atoms: N_10  and  C_11
REMARK    3  A    between atoms: C_11  and  C_12
REMARK    4  A    between atoms: C_12  and  C_13
REMARK    5  A    between atoms: C_19  and  C_27
REMARK                            x       y       z     vdW  Elec       q    Type
REMARK                         _______ _______ _______ _____ _____    ______ ____
ROOT
ATOM      1  C   UNL     1       1.028   1.451  -0.044  0.00  0.00    +0.045 C 
ATOM      2  C   UNL     1       0.906  -0.051  -0.043  0.00  0.00    -0.034 A 
ATOM      3  C   UNL     1       0.925  -0.756  -1.254  0.00  0.00    +0.008 A 
ATOM      4  C   UNL     1       0.815  -2.114  -1.243  0.00  0.00    +0.047 A 
ATOM      5  C   UNL     1       0.683  -2.797  -0.017  0.00  0.00    +0.143 A 
ATOM      6  N   UNL     1       0.578  -4.124  -0.052  0.00  0.00    -0.212 NA
ATOM      7  C   UNL     1       0.450  -4.865   1.050  0.00  0.00    +0.147 A 
ATOM      8  N   UNL     1       0.349  -6.185   0.960  0.00  0.00    -0.327 N 
ATOM      9  C   UNL     1       0.218  -6.974   2.028  0.00  0.00    +0.119 C 
ATOM     10  N   UNL     1       0.124  -8.267   1.880  0.00  0.00    -0.270 NA
ATOM     11  C   UNL     1       0.181  -6.362   3.410  0.00  0.00    +0.164 C 
ATOM     12  C   UNL     1       0.297  -4.853   3.506  0.00  0.00    +0.010 C 
ATOM     13  C   UNL     1       0.424  -4.166   2.354  0.00  0.00    +0.079 A 
ATOM     14  C   UNL     1       0.544  -2.696   2.346  0.00  0.00    +0.267 A 
ATOM     15  O   UNL     1       0.531  -2.059   3.381  0.00  0.00    -0.267 OA
ATOM     16  N   UNL     1       0.669  -2.079   1.147  0.00  0.00    -0.267 N 
ATOM     17  C   UNL     1       0.785  -0.719   1.125  0.00  0.00    +0.099 A 
ATOM     18  H   UNL     1       0.372  -6.593   0.081  0.00  0.00    +0.168 HD
ENDROOT
BRANCH  11  19
ATOM     19  C   UNL     1      -1.116  -6.768   4.061  0.00  0.00    +0.225 C 
ATOM     20  O   UNL     1      -1.902  -7.470   3.460  0.00  0.00    -0.275 OA
ATOM     21  N   UNL     1      -1.403  -6.351   5.310  0.00  0.00    -0.328 N 
ATOM     22  H   UNL     1      -0.774  -5.790   5.790  0.00  0.00    +0.145 HD
ATOM     23  H   UNL     1      -2.237  -6.612   5.729  0.00  0.00    +0.145 HD
ENDBRANCH  11  19
BRANCH  10  24
ATOM     24  C   UNL     1       0.016  -8.845   0.538  0.00  0.00    +0.148 C 
BRANCH  24  25
ATOM     25  C   UNL     1       1.264  -9.678   0.240  0.00  0.00    +0.058 C 
BRANCH  25  26
ATOM     26  C   UNL     1       1.153 -10.273  -1.140  0.00  0.00    -0.046 A 
ATOM     27  C   UNL     1       0.561 -11.510  -1.314  0.00  0.00    +0.004 A 
ATOM     28  C   UNL     1       0.459 -12.056  -2.580  0.00  0.00    +0.000 A 
ATOM     29  C   UNL     1       0.949 -11.364  -3.672  0.00  0.00    +0.000 A 
ATOM     30  C   UNL     1       1.540 -10.126  -3.498  0.00  0.00    +0.000 A 
ATOM     31  C   UNL     1       1.638  -9.579  -2.233  0.00  0.00    +0.004 A 
ENDBRANCH  25  26
ENDBRANCH  24  25
ENDBRANCH  10  24
TORSDOF 4
