REMARK  Name = ZINC39918788
REMARK  8 active torsions:
REMARK  status: ('A' for Active; 'I' for Inactive)
REMARK    1  A    between atoms: C_1  and  C_2
REMARK    2  A    between atoms: C_2  and  O_3
REMARK    3  A    between atoms: O_3  and  C_4
REMARK    4  A    between atoms: C_4  and  C_6
REMARK    5  A    between atoms: C_7  and  N_35
REMARK    6  A    between atoms: C_11  and  C_34
REMARK    7  A    between atoms: N_24  and  C_27
REMARK    8  A    between atoms: C_27  and  C_28
REMARK                            x       y       z     vdW  Elec       q    Type
REMARK                         _______ _______ _______ _____ _____    ______ ____
ROOT
ATOM      1  C   UNL     1       1.425  -2.323  -2.465  0.00  0.00    +0.114 C 
ATOM      2  C   UNL     1       1.598  -3.664  -2.557  0.00  0.00    +0.195 C 
ATOM      3  O   UNL     1       2.185  -4.248  -3.624  0.00  0.00    -0.445 OA
ATOM      4  C   UNL     1       2.802  -3.432  -4.507  0.00  0.00    +0.122 C 
ATOM      5  C   UNL     1       3.981  -3.769  -5.061  0.00  0.00    +0.063 C 
ATOM      6  C   UNL     1       4.631  -2.906  -5.949  0.00  0.00    +0.034 C 
ATOM      7  N   UNL     1       4.116  -1.738  -6.262  0.00  0.00    -0.185 NA
ATOM      8  C   UNL     1       2.960  -1.310  -5.774  0.00  0.00    +0.248 C 
ATOM      9  O   UNL     1       2.567  -0.206  -6.095  0.00  0.00    -0.273 OA
ATOM     10  C   UNL     1       2.117  -2.128  -4.844  0.00  0.00    +0.167 C 
ATOM     11  C   UNL     1       1.888  -1.375  -3.534  0.00  0.00    +0.128 C 
ATOM     12  C   UNL     1       3.130  -0.653  -3.116  0.00  0.00    -0.005 A 
ATOM     13  C   UNL     1       4.388  -1.113  -2.792  0.00  0.00    +0.007 A 
ATOM     14  C   UNL     1       5.337  -0.158  -2.441  0.00  0.00    +0.000 A 
ATOM     15  C   UNL     1       5.029   1.187  -2.420  0.00  0.00    +0.002 A 
ATOM     16  C   UNL     1       3.767   1.656  -2.745  0.00  0.00    +0.024 A 
ATOM     17  C   UNL     1       2.805   0.709  -3.100  0.00  0.00    +0.041 A 
ATOM     18  N   UNL     1       1.483   0.892  -3.466  0.00  0.00    -0.266 N 
ATOM     19  C   UNL     1       0.867  -0.277  -3.739  0.00  0.00    +0.237 C 
ATOM     20  O   UNL     1      -0.287  -0.420  -4.084  0.00  0.00    -0.274 OA
ATOM     21  C   UNL     1       5.945  -3.323  -6.557  0.00  0.00    +0.063 C 
ENDROOT
BRANCH   2  22
ATOM     22  N   UNL     1       1.162  -4.456  -1.529  0.00  0.00    -0.329 N 
ATOM     23  H   UNL     1       0.671  -4.065  -0.790  0.00  0.00    +0.145 HD
ATOM     24  H   UNL     1       1.344  -5.409  -1.540  0.00  0.00    +0.145 HD
ENDBRANCH   2  22
BRANCH   1  25
ATOM     25  C   UNL     1       0.785  -1.801  -1.331  0.00  0.00    +0.341 C 
ATOM     26  O   UNL     1       1.443  -1.302  -0.435  0.00  0.00    -0.245 OA
BRANCH  25  27
ATOM     27  O   UNL     1      -0.561  -1.852  -1.232  0.00  0.00    -0.462 OA
BRANCH  27  29
ATOM     28  C   UNL     1      -2.667  -1.450  -0.117  0.00  0.00    +0.048 C 
ATOM     29  C   UNL     1      -1.146  -1.302  -0.050  0.00  0.00    +0.229 C 
ENDBRANCH  27  29
ENDBRANCH  25  27
ENDBRANCH   1  25
BRANCH  18  30
ATOM     30  C   UNL     1       0.830   2.201  -3.548  0.00  0.00    +0.148 C 
BRANCH  30  31
ATOM     31  C   UNL     1       0.999   2.760  -4.937  0.00  0.00    -0.030 A 
ATOM     32  C   UNL     1       2.098   3.542  -5.239  0.00  0.00    +0.005 A 
ATOM     33  C   UNL     1       2.253   4.055  -6.513  0.00  0.00    +0.000 A 
ATOM     34  C   UNL     1       1.308   3.786  -7.486  0.00  0.00    +0.000 A 
ATOM     35  C   UNL     1       0.209   3.004  -7.184  0.00  0.00    +0.000 A 
ATOM     36  C   UNL     1       0.057   2.487  -5.911  0.00  0.00    +0.005 A 
ENDBRANCH  30  31
ENDBRANCH  18  30
TORSDOF 6
