REMARK  Name = ZINC63426687
REMARK  5 active torsions:
REMARK  status: ('A' for Active; 'I' for Inactive)
REMARK    1  A    between atoms: C_3  and  C_6
REMARK    2  A    between atoms: C_6  and  N_7
REMARK    3  A    between atoms: C_15  and  O_39
REMARK    4  A    between atoms: C_16  and  C_20
REMARK    5  A    between atoms: C_26  and  C_29
REMARK                            x       y       z     vdW  Elec       q    Type
REMARK                         _______ _______ _______ _____ _____    ______ ____
ROOT
ATOM      1  N   UNL     1       3.375   1.278   2.617  0.00  0.00    -0.286 N 
ATOM      2  C   UNL     1       4.593   2.095   2.613  0.00  0.00    +0.106 C 
ATOM      3  C   UNL     1       4.346   3.508   2.158  0.00  0.00    +0.027 C 
ATOM      4  C   UNL     1       4.418   4.509   3.308  0.00  0.00    +0.002 C 
ATOM      5  C   UNL     1       5.796   4.371   3.972  0.00  0.00    +0.005 C 
ATOM      6  C   UNL     1       5.798   3.063   4.764  0.00  0.00    +0.036 C 
ATOM      7  C   UNL     1       5.304   1.945   3.917  0.00  0.00    -0.011 C 
ATOM      8  C   UNL     1       5.472   0.701   4.375  0.00  0.00    +0.116 C 
ATOM      9  C   UNL     1       4.898  -0.419   3.528  0.00  0.00    +0.226 C 
ATOM     10  C   UNL     1       3.509   0.003   3.086  0.00  0.00    +0.236 C 
ATOM     11  O   UNL     1       2.566  -0.756   3.143  0.00  0.00    -0.274 OA
ENDROOT
BRANCH   9  12
ATOM     12  C   UNL     1       4.811  -1.683   4.344  0.00  0.00    +0.238 C 
ATOM     13  O   UNL     1       4.103  -1.722   5.328  0.00  0.00    -0.274 OA
ATOM     14  N   UNL     1       5.520  -2.770   3.980  0.00  0.00    -0.264 N 
ATOM     15  C   UNL     1       5.439  -3.936   4.733  0.00  0.00    +0.165 A 
ATOM     16  N   UNL     1       6.057  -5.080   4.535  0.00  0.00    -0.229 NA
ATOM     17  H   UNL     1       6.086  -2.738   3.193  0.00  0.00    +0.157 HD
ATOM     18  C   UNL     1       5.873  -6.104   5.348  0.00  0.00    +0.057 A 
ATOM     19  C   UNL     1       5.024  -5.919   6.389  0.00  0.00    +0.072 A 
ATOM     20  S   UNL     1       4.535  -4.223   6.123  0.00  0.00    -0.060 S 
BRANCH  18  21
ATOM     21  C   UNL     1       6.575  -7.419   5.129  0.00  0.00    +0.014 C 
ATOM     22  C   UNL     1       5.578  -8.566   5.305  0.00  0.00    +0.016 C 
ATOM     23  C   UNL     1       6.291  -9.901   5.082  0.00  0.00    -0.010 C 
ATOM     24  C   UNL     1       6.869  -9.940   3.666  0.00  0.00    +0.007 C 
ATOM     25  C   UNL     1       7.867  -8.794   3.491  0.00  0.00    -0.010 C 
ATOM     26  C   UNL     1       7.154  -7.458   3.713  0.00  0.00    +0.016 C 
ATOM     27  C   UNL     1       8.999  -8.943   4.509  0.00  0.00    +0.007 C 
ATOM     28  C   UNL     1       8.421  -8.903   5.925  0.00  0.00    -0.010 C 
ATOM     29  C   UNL     1       7.423 -10.050   6.100  0.00  0.00    +0.007 C 
ATOM     30  C   UNL     1       7.708  -7.568   6.147  0.00  0.00    +0.016 C 
ENDBRANCH  18  21
ENDBRANCH   9  12
BRANCH   8  31
ATOM     31  O   UNL     1       6.124   0.451   5.538  0.00  0.00    -0.510 OA
ATOM     32  H   UNL     1       6.250  -0.489   5.725  0.00  0.00    +0.292 HD
ENDBRANCH   8  31
BRANCH   1  33
ATOM     33  C   UNL     1       2.088   1.802   2.152  0.00  0.00    +0.182 C 
BRANCH  33  36
ATOM     34  C   UNL     1       1.596   0.846  -1.373  0.00  0.00    +0.041 A 
ATOM     35  C   UNL     1       1.493   0.573   0.010  0.00  0.00    +0.046 A 
ATOM     36  C   UNL     1       1.992   1.642   0.656  0.00  0.00    +0.122 A 
ATOM     37  O   UNL     1       2.390   2.542  -0.257  0.00  0.00    -0.466 OA
ATOM     38  C   UNL     1       2.153   2.065  -1.490  0.00  0.00    +0.195 A 
ENDBRANCH  33  36
ENDBRANCH   1  33
TORSDOF 5
