REMARK  Name = ZINC36093601
REMARK  8 active torsions:
REMARK  status: ('A' for Active; 'I' for Inactive)
REMARK    1  A    between atoms: C_1  and  N_2
REMARK    2  A    between atoms: C_10  and  O_33
REMARK    3  A    between atoms: C_12  and  C_15
REMARK    4  A    between atoms: C_18  and  O_23
REMARK    5  A    between atoms: C_19  and  O_21
REMARK    6  A    between atoms: O_21  and  C_22
REMARK    7  A    between atoms: O_23  and  C_24
REMARK    8  A    between atoms: C_24  and  C_26
REMARK                            x       y       z     vdW  Elec       q    Type
REMARK                         _______ _______ _______ _____ _____    ______ ____
ROOT
ATOM      1  C   UNL     1       0.112   1.480   0.100  0.00  0.00    -0.096 C 
ATOM      2  N   UNL     1       0.102   0.011   0.072  0.00  0.00    +0.381 N 
ATOM      3  C   UNL     1      -1.286  -0.469   0.077  0.00  0.00    -0.074 C 
ATOM      4  C   UNL     1      -1.330  -1.962  -0.266  0.00  0.00    +0.018 C 
ATOM      5  C   UNL     1      -0.364  -2.684   0.663  0.00  0.00    -0.027 A 
ATOM      6  C   UNL     1       0.584  -1.984   1.331  0.00  0.00    -0.021 A 
ATOM      7  S   UNL     1       1.461  -3.200   2.274  0.00  0.00    -0.080 S 
ATOM      8  C   UNL     1       0.623  -4.557   1.817  0.00  0.00    +0.080 A 
ATOM      9  C   UNL     1      -0.354  -4.110   0.918  0.00  0.00    +0.067 A 
ATOM     10  C   UNL     1      -1.256  -5.132   0.326  0.00  0.00    +0.220 C 
ATOM     11  N   UNL     1      -1.254  -6.324   0.857  0.00  0.00    -0.223 NA
ATOM     12  C   UNL     1      -0.475  -6.705   2.029  0.00  0.00    +0.224 C 
ATOM     13  N   UNL     1       0.742  -5.884   2.163  0.00  0.00    -0.313 N 
ATOM     14  C   UNL     1       0.809  -0.508   1.257  0.00  0.00    -0.036 C 
ATOM     15  H   UNL     1       1.580  -6.258   2.477  0.00  0.00    +0.149 HD
ATOM     16  H   UNL     1       0.566  -0.312  -0.764  0.00  0.00    -0.082 HD
ENDROOT
BRANCH  12  17
ATOM     17  C   UNL     1      -1.324  -6.529   3.262  0.00  0.00    -0.002 A 
ATOM     18  C   UNL     1      -0.729  -6.207   4.468  0.00  0.00    +0.011 A 
ATOM     19  C   UNL     1      -1.503  -6.044   5.602  0.00  0.00    +0.050 A 
ATOM     20  C   UNL     1      -2.878  -6.203   5.531  0.00  0.00    +0.173 A 
ATOM     21  C   UNL     1      -3.476  -6.526   4.317  0.00  0.00    +0.163 A 
ATOM     22  C   UNL     1      -2.695  -6.683   3.183  0.00  0.00    +0.056 A 
BRANCH  21  23
ATOM     23  O   UNL     1      -4.825  -6.683   4.242  0.00  0.00    -0.491 OA
ATOM     24  C   UNL     1      -5.370  -7.014   2.963  0.00  0.00    +0.277 C 
ENDBRANCH  21  23
BRANCH  20  25
ATOM     25  O   UNL     1      -3.640  -6.043   6.646  0.00  0.00    -0.419 OA
BRANCH  25  26
ATOM     26  C   UNL     1      -4.026  -7.149   7.312  0.00  0.00    +0.346 C 
ATOM     27  O   UNL     1      -3.611  -8.239   6.971  0.00  0.00    -0.244 OA
BRANCH  26  28
ATOM     28  C   UNL     1      -4.951  -7.036   8.456  0.00  0.00    +0.078 A 
ATOM     29  C   UNL     1      -5.434  -5.785   8.848  0.00  0.00    +0.016 A 
ATOM     30  C   UNL     1      -6.298  -5.687   9.918  0.00  0.00    +0.001 A 
ATOM     31  C   UNL     1      -6.688  -6.824  10.604  0.00  0.00    +0.001 A 
ATOM     32  C   UNL     1      -6.215  -8.067  10.224  0.00  0.00    +0.021 A 
ATOM     33  C   UNL     1      -5.353  -8.181   9.150  0.00  0.00    +0.055 A 
ATOM     34 CL   UNL     1      -4.766  -9.742   8.667  0.00  0.00    -0.083 Cl
ENDBRANCH  26  28
ENDBRANCH  25  26
ENDBRANCH  20  25
ENDBRANCH  12  17
BRANCH  10  35
ATOM     35  O   UNL     1      -2.053  -4.836  -0.727  0.00  0.00    -0.492 OA
ATOM     36  H   UNL     1      -2.597  -5.576  -1.029  0.00  0.00    +0.294 HD
ENDBRANCH  10  35
TORSDOF 6
