REMARK  Name = ZINC63746404
REMARK  9 active torsions:
REMARK  status: ('A' for Active; 'I' for Inactive)
REMARK    1  A    between atoms: C_1  and  C_2
REMARK    2  A    between atoms: C_5  and  C_29
REMARK    3  A    between atoms: C_6  and  C_17
REMARK    4  A    between atoms: C_10  and  N_12
REMARK    5  A    between atoms: N_15  and  C_16
REMARK    6  A    between atoms: N_19  and  C_20
REMARK    7  A    between atoms: C_20  and  C_21
REMARK    8  A    between atoms: C_24  and  S_27
REMARK    9  A    between atoms: S_27  and  C_28
REMARK                            x       y       z     vdW  Elec       q    Type
REMARK                         _______ _______ _______ _____ _____    ______ ____
ROOT
ATOM      1  C   UNL     1      -0.126   1.516   0.103  0.00  0.00    +0.044 C 
ATOM      2  C   UNL     1      -0.085   0.010   0.078  0.00  0.00    -0.048 A 
ATOM      3  C   UNL     1      -0.068  -0.621  -1.118  0.00  0.00    +0.013 A 
ATOM      4  C   UNL     1      -0.029  -2.036  -1.181  0.00  0.00    +0.006 A 
ATOM      5  C   UNL     1      -0.006  -2.927  -2.239  0.00  0.00    -0.000 C 
ATOM      6  C   UNL     1       0.032  -4.304  -1.614  0.00  0.00    +0.198 C 
ATOM      7  N   UNL     1       0.027  -4.089  -0.163  0.00  0.00    -0.368 N 
ATOM      8  C   UNL     1      -0.007  -2.801   0.081  0.00  0.00    +0.065 A 
ATOM      9  C   UNL     1      -0.027  -2.042   1.341  0.00  0.00    +0.059 A 
ATOM     10  C   UNL     1      -0.060  -0.683   1.292  0.00  0.00    +0.028 A 
ATOM     11  H   UNL     1       0.047  -4.789   0.509  0.00  0.00    +0.161 HD
ENDROOT
BRANCH   9  12
ATOM     12  N   UNL     1      -0.009  -2.708   2.570  0.00  0.00    -0.268 N 
ATOM     13  C   UNL     1       0.470  -2.086   3.666  0.00  0.00    +0.304 C 
ATOM     14  O   UNL     1       0.979  -0.986   3.567  0.00  0.00    -0.253 OA
ATOM     15  N   UNL     1       0.384  -2.683   4.871  0.00  0.00    -0.302 N 
ATOM     16  C   UNL     1       0.904  -2.006   6.062  0.00  0.00    +0.129 C 
ATOM     17  H   UNL     1      -0.340  -3.617   2.635  0.00  0.00    +0.156 HD
ATOM     18  H   UNL     1      -0.022  -3.560   4.950  0.00  0.00    +0.150 HD
ENDBRANCH   9  12
BRANCH   5  19
ATOM     19  C   UNL     1      -0.016  -2.604  -3.668  0.00  0.00    -0.019 A 
ATOM     20  C   UNL     1      -0.738  -1.497  -4.136  0.00  0.00    +0.008 A 
ATOM     21  C   UNL     1      -0.742  -1.201  -5.481  0.00  0.00    +0.001 A 
ATOM     22  C   UNL     1      -0.036  -1.994  -6.371  0.00  0.00    +0.000 A 
ATOM     23  C   UNL     1       0.679  -3.090  -5.918  0.00  0.00    +0.001 A 
ATOM     24  C   UNL     1       0.700  -3.397  -4.575  0.00  0.00    +0.008 A 
ENDBRANCH   5  19
BRANCH   6  25
ATOM     25  C   UNL     1      -1.182  -5.095  -2.027  0.00  0.00    +0.240 C 
ATOM     26  O   UNL     1      -2.162  -5.120  -1.312  0.00  0.00    -0.273 OA
ATOM     27  N   UNL     1      -1.180  -5.775  -3.191  0.00  0.00    -0.309 N 
ATOM     28  H   UNL     1      -0.373  -5.815  -3.727  0.00  0.00    +0.149 HD
BRANCH  27  29
ATOM     29  C   UNL     1      -2.396  -6.453  -3.645  0.00  0.00    +0.139 C 
BRANCH  29  30
ATOM     30  C   UNL     1      -2.129  -7.134  -4.963  0.00  0.00    -0.030 A 
ATOM     31  C   UNL     1      -2.338  -6.450  -6.147  0.00  0.00    +0.006 A 
ATOM     32  C   UNL     1      -2.095  -7.070  -7.357  0.00  0.00    +0.015 A 
ATOM     33  C   UNL     1      -1.639  -8.383  -7.383  0.00  0.00    +0.008 A 
ATOM     34  C   UNL     1      -1.430  -9.066  -6.191  0.00  0.00    +0.015 A 
ATOM     35  C   UNL     1      -1.670  -8.438  -4.986  0.00  0.00    +0.006 A 
BRANCH  33  36
ATOM     36  S   UNL     1      -1.328  -9.179  -8.924  0.00  0.00    -0.129 S 
ATOM     37  C   UNL     1      -0.764 -10.838  -8.455  0.00  0.00    +0.090 C 
ENDBRANCH  33  36
ENDBRANCH  29  30
ENDBRANCH  27  29
ENDBRANCH   6  25
TORSDOF 6
