REMARK  Name = ZINC15156387
REMARK  4 active torsions:
REMARK  status: ('A' for Active; 'I' for Inactive)
REMARK    1  A    between atoms: C_1  and  C_2
REMARK    2  A    between atoms: C_2  and  C_4
REMARK    3  A    between atoms: C_2  and  S_16
REMARK    4  A    between atoms: S_16  and  C_17
REMARK                            x       y       z     vdW  Elec       q    Type
REMARK                         _______ _______ _______ _____ _____    ______ ____
ROOT
ATOM      1  C   UNL     1       2.823   2.435   1.948  0.00  0.00    +0.233 C 
ATOM      2  O   UNL     1       3.324   2.046   2.981  0.00  0.00    -0.274 OA
ATOM      3  N   UNL     1       2.001   1.625   1.251  0.00  0.00    -0.270 N 
ATOM      4  C   UNL     1       1.281   2.127   0.072  0.00  0.00    +0.114 C 
ATOM      5  C   UNL     1      -0.169   1.632   0.164  0.00  0.00    +0.024 C 
ATOM      6  C   UNL     1      -0.175   0.105   0.102  0.00  0.00    +0.038 C 
ATOM      7  C   UNL     1       0.786  -0.468   1.111  0.00  0.00    -0.026 A 
ATOM      8  C   UNL     1       1.820   0.290   1.638  0.00  0.00    +0.039 A 
ATOM      9  C   UNL     1       2.692  -0.271   2.563  0.00  0.00    +0.024 A 
ATOM     10  C   UNL     1       2.528  -1.583   2.961  0.00  0.00    +0.002 A 
ATOM     11  C   UNL     1       1.495  -2.338   2.437  0.00  0.00    +0.000 A 
ATOM     12  C   UNL     1       0.628  -1.782   1.515  0.00  0.00    +0.005 A 
ENDROOT
BRANCH   1  14
ATOM     13  C   UNL     1       2.033   4.786   1.932  0.00  0.00    +0.029 C 
ATOM     14  C   UNL     1       3.118   3.824   1.443  0.00  0.00    +0.136 C 
BRANCH  14  15
ATOM     15  S   UNL     1       4.732   4.364   2.068  0.00  0.00    -0.084 S 
BRANCH  15  16
ATOM     16  C   UNL     1       4.996   5.919   1.282  0.00  0.00    +0.161 A 
ATOM     17  N   UNL     1       4.226   6.565   0.428  0.00  0.00    -0.133 NA
ATOM     18  N   UNL     1       4.626   7.785  -0.067  0.00  0.00    -0.125 NA
ATOM     19  C   UNL     1       5.782   8.297   0.305  0.00  0.00    +0.180 A 
ATOM     20  S   UNL     1       6.381   7.038   1.422  0.00  0.00    -0.025 S 
ATOM     21  N   UNL     1       6.376   9.496  -0.071  0.00  0.00    -0.336 N 
ATOM     22  H   UNL     1       7.242   9.742   0.290  0.00  0.00    +0.144 HD
ATOM     23  H   UNL     1       5.925  10.086  -0.695  0.00  0.00    +0.144 HD
ENDBRANCH  15  16
ENDBRANCH  14  15
ENDBRANCH   1  14
TORSDOF 3
