REMARK  Name = ZINC16462256
REMARK  4 active torsions:
REMARK  status: ('A' for Active; 'I' for Inactive)
REMARK    1  A    between atoms: C_1  and  C_2
REMARK    2  A    between atoms: C_2  and  C_17
REMARK    3  A    between atoms: N_5  and  C_9
REMARK    4  A    between atoms: C_9  and  C_10
REMARK                            x       y       z     vdW  Elec       q    Type
REMARK                         _______ _______ _______ _____ _____    ______ ____
ROOT
ATOM      1  C   UNL     1      -3.028   4.365   1.488  0.00  0.00    +0.047 C 
ATOM      2  C   UNL     1      -2.557   4.141   0.049  0.00  0.00    +0.135 C 
ATOM      3  C   UNL     1      -3.602   3.384  -0.746  0.00  0.00    +0.251 C 
ATOM      4  O   UNL     1      -4.022   2.268  -0.527  0.00  0.00    -0.272 OA
ATOM      5  N   UNL     1      -3.965   4.208  -1.748  0.00  0.00    -0.220 N 
ATOM      6  C   UNL     1      -3.302   5.369  -1.697  0.00  0.00    +0.310 C 
ATOM      7  O   UNL     1      -3.458   6.272  -2.495  0.00  0.00    -0.252 OA
ATOM      8  N   UNL     1      -2.442   5.425  -0.664  0.00  0.00    -0.281 N 
ATOM      9  H   UNL     1      -1.859   6.165  -0.434  0.00  0.00    +0.152 HD
ENDROOT
BRANCH   2  10
ATOM     10  C   UNL     1      -1.242   3.405   0.032  0.00  0.00    -0.013 A 
ATOM     11  C   UNL     1      -0.054   4.113   0.025  0.00  0.00    +0.009 A 
ATOM     12  C   UNL     1       1.153   3.441   0.010  0.00  0.00    +0.041 A 
ATOM     13  C   UNL     1       1.175   2.057   0.002  0.00  0.00    +0.158 A 
ATOM     14  C   UNL     1      -0.016   1.347   0.009  0.00  0.00    +0.159 A 
ATOM     15  C   UNL     1      -1.224   2.023   0.019  0.00  0.00    +0.047 A 
ATOM     16  F   UNL     1       0.002  -0.004   0.002  0.00  0.00    -0.202 F 
ATOM     17  F   UNL     1       2.354   1.399  -0.013  0.00  0.00    -0.202 F 
ENDBRANCH   2  10
BRANCH   5  18
ATOM     18  C   UNL     1      -4.963   3.875  -2.767  0.00  0.00    +0.153 C 
BRANCH  18  19
ATOM     19  C   UNL     1      -4.285   3.213  -3.938  0.00  0.00    -0.028 A 
ATOM     20  C   UNL     1      -4.137   1.838  -3.965  0.00  0.00    +0.005 A 
ATOM     21  C   UNL     1      -3.515   1.230  -5.039  0.00  0.00    +0.002 A 
ATOM     22  C   UNL     1      -3.040   1.996  -6.087  0.00  0.00    +0.020 A 
ATOM     23  C   UNL     1      -3.187   3.371  -6.061  0.00  0.00    +0.041 A 
ATOM     24  C   UNL     1      -3.815   3.979  -4.988  0.00  0.00    +0.025 A 
ATOM     25 CL   UNL     1      -2.591   4.333  -7.377  0.00  0.00    -0.084 Cl
ENDBRANCH  18  19
ENDBRANCH   5  18
TORSDOF 3
