REMARK  Name = ZINC00059246
REMARK  5 active torsions:
REMARK  status: ('A' for Active; 'I' for Inactive)
REMARK    1  A    between atoms: C_1  and  C_2
REMARK    2  A    between atoms: C_2  and  C_3
REMARK    3  A    between atoms: C_6  and  C_9
REMARK    4  A    between atoms: C_23  and  N_27
REMARK    5  A    between atoms: C_24  and  C_25
REMARK                            x       y       z     vdW  Elec       q    Type
REMARK                         _______ _______ _______ _____ _____    ______ ____
ROOT
ATOM      1  C   UNL     1       3.542   6.168  -0.002  0.00  0.00    +0.105 C 
ATOM      2  C   UNL     1       2.302   5.316   0.006  0.00  0.00    +0.092 A 
ATOM      3  C   UNL     1       2.394   3.955  -0.001  0.00  0.00    +0.152 A 
ATOM      4  C   UNL     1       1.148   3.173   0.008  0.00  0.00    +0.060 A 
ATOM      5  C   UNL     1       1.173   1.777   0.000  0.00  0.00    +0.015 A 
ATOM      6  C   UNL     1      -0.013   1.076   0.008  0.00  0.00    +0.001 A 
ATOM      7  C   UNL     1      -1.225   1.750   0.017  0.00  0.00    +0.004 A 
ATOM      8  C   UNL     1      -1.264   3.128   0.031  0.00  0.00    +0.047 A 
ATOM      9  C   UNL     1      -0.080   3.855   0.023  0.00  0.00    +0.143 A 
ATOM     10  O   UNL     1      -0.098   5.205   0.029  0.00  0.00    -0.422 OA
ATOM     11  C   UNL     1       1.035   5.925   0.020  0.00  0.00    +0.345 A 
ATOM     12  O   UNL     1       0.964   7.142   0.024  0.00  0.00    -0.245 OA
ATOM     13  O   UNL     1       3.586   3.330  -0.014  0.00  0.00    -0.440 OA
ATOM     14  C   UNL     1       4.689   3.994  -0.401  0.00  0.00    +0.199 C 
ATOM     15  C   UNL     1       4.732   5.348  -0.418  0.00  0.00    +0.098 C 
ENDROOT
BRANCH   1  19
ATOM     16  C   UNL     1       4.204   7.739   3.914  0.00  0.00    -0.048 A 
ATOM     17  C   UNL     1       4.015   8.598   2.848  0.00  0.00    +0.004 A 
ATOM     18  C   UNL     1       3.801   8.090   1.580  0.00  0.00    +0.005 A 
ATOM     19  C   UNL     1       3.776   6.722   1.379  0.00  0.00    -0.034 A 
ATOM     20  C   UNL     1       3.960   5.863   2.447  0.00  0.00    +0.005 A 
ATOM     21  C   UNL     1       4.179   6.372   3.713  0.00  0.00    +0.004 A 
BRANCH  16  23
ATOM     22  C   UNL     1       3.094   8.472   6.007  0.00  0.00    +0.009 C 
ATOM     23  C   UNL     1       4.437   8.294   5.296  0.00  0.00    +0.032 C 
ENDBRANCH  16  23
ENDBRANCH   1  19
BRANCH  14  24
ATOM     24  N   UNL     1       5.799   3.284  -0.787  0.00  0.00    -0.328 N 
ATOM     25  H   UNL     1       6.601   3.752  -1.068  0.00  0.00    +0.145 HD
ATOM     26  H   UNL     1       5.781   2.314  -0.779  0.00  0.00    +0.145 HD
ENDBRANCH  14  24
BRANCH  15  27
ATOM     27  C   UNL     1       5.931   6.010  -0.839  0.00  0.00    +0.101 C 
ATOM     28  N   UNL     1       6.881   6.535  -1.172  0.00  0.00    -0.191 NA
ENDBRANCH  15  27
TORSDOF 4
