REMARK  Name = ZINC08013658
REMARK  4 active torsions:
REMARK  status: ('A' for Active; 'I' for Inactive)
REMARK    1  A    between atoms: C_10  and  C_13
REMARK    2  A    between atoms: C_13  and  O_15
REMARK    3  A    between atoms: O_15  and  C_16
REMARK    4  A    between atoms: C_16  and  C_17
REMARK                            x       y       z     vdW  Elec       q    Type
REMARK                         _______ _______ _______ _____ _____    ______ ____
ROOT
ATOM      1  O   UNL     1       1.115   6.268   0.025  0.00  0.00    -0.454 OA
ENDROOT
BRANCH   1   2
ATOM      2  C   UNL     1       2.306   5.641   0.010  0.00  0.00    +0.356 C 
ATOM      3  O   UNL     1       3.333   6.289   0.004  0.00  0.00    -0.243 OA
BRANCH   2  13
ATOM      4  C   UNL     1       1.206  -0.697  -0.014  0.00  0.00    +0.001 A 
ATOM      5  C   UNL     1       0.002  -0.004   0.002  0.00  0.00    +0.002 A 
ATOM      6  C   UNL     1      -0.017   1.373   0.010  0.00  0.00    +0.026 A 
ATOM      7  C   UNL     1       1.184   2.080   0.002  0.00  0.00    +0.051 A 
ATOM      8  C   UNL     1       2.400   1.371  -0.013  0.00  0.00    +0.045 A 
ATOM      9  C   UNL     1       2.395  -0.024  -0.021  0.00  0.00    +0.014 A 
ATOM     10  C   UNL     1       3.659   2.133  -0.022  0.00  0.00    +0.190 A 
ATOM     11  O   UNL     1       4.738   1.565  -0.036  0.00  0.00    -0.287 OA
ATOM     12  C   UNL     1       3.578   3.552  -0.013  0.00  0.00    +0.084 A 
ATOM     13  C   UNL     1       2.365   4.160   0.002  0.00  0.00    +0.128 A 
ATOM     14  N   UNL     1       1.196   3.454   0.010  0.00  0.00    -0.349 N 
ATOM     15  H   UNL     1       0.327   3.950   0.022  0.00  0.00    +0.166 HD
ENDBRANCH   2  13
ENDBRANCH   1   2
BRANCH   1  16
ATOM     16  C   UNL     1       1.134   7.720   0.033  0.00  0.00    +0.288 C 
BRANCH  16  17
ATOM     17  C   UNL     1      -0.280   8.241   0.050  0.00  0.00    +0.087 A 
ATOM     18  C   UNL     1      -0.756   8.943   1.137  0.00  0.00    +0.097 A 
ATOM     19  C   UNL     1      -2.067   9.423   1.132  0.00  0.00    +0.259 A 
ATOM     20  O   UNL     1      -2.492  10.050   2.089  0.00  0.00    -0.267 OA
ATOM     21  N   UNL     1      -2.875   9.183   0.056  0.00  0.00    -0.259 N 
ATOM     22  C   UNL     1      -4.195   9.596  -0.070  0.00  0.00    +0.039 A 
ATOM     23  C   UNL     1      -4.855   9.281  -1.192  0.00  0.00    +0.013 A 
ATOM     24  S   UNL     1      -3.662   8.380  -2.146  0.00  0.00    -0.054 S 
ATOM     25  C   UNL     1      -2.324   8.475  -0.975  0.00  0.00    +0.181 A 
ATOM     26  N   UNL     1      -1.093   8.026  -0.981  0.00  0.00    -0.224 NA
ATOM     27  C   UNL     1      -6.267   9.613  -1.552  0.00  0.00    +0.044 C 
ATOM     28  C   UNL     1      -6.996  10.071  -0.280  0.00  0.00    +0.006 C 
ATOM     29  C   UNL     1      -6.114  11.090   0.448  0.00  0.00    +0.006 C 
ATOM     30  C   UNL     1      -4.888  10.389   1.036  0.00  0.00    +0.055 C 
ENDBRANCH  16  17
ENDBRANCH   1  16
TORSDOF 4
