REMARK  Name = ZINC39694128
REMARK  7 active torsions:
REMARK  status: ('A' for Active; 'I' for Inactive)
REMARK    1  A    between atoms: N_4  and  C_6
REMARK    2  A    between atoms: C_10  and  C_12
REMARK    3  A    between atoms: C_12  and  N_13
REMARK    4  A    between atoms: C_14  and  C_16
REMARK    5  A    between atoms: C_27  and  C_29
REMARK    6  A    between atoms: C_29  and  O_30
REMARK    7  A    between atoms: O_30  and  C_31
REMARK                            x       y       z     vdW  Elec       q    Type
REMARK                         _______ _______ _______ _____ _____    ______ ____
ROOT
ATOM      1  C   UNL     1      -1.270  -6.970   3.002  0.00  0.00    +0.100 C 
ATOM      2  C   UNL     1      -0.042  -7.618   3.679  0.00  0.00    +0.121 C 
ATOM      3  N   UNL     1      -0.607  -8.692   4.530  0.00  0.00    -0.297 N 
ATOM      4  C   UNL     1      -1.699  -9.274   3.712  0.00  0.00    +0.115 C 
ATOM      5  C   UNL     1      -2.354  -8.060   3.024  0.00  0.00    -0.004 C 
ATOM      6  C   UNL     1      -2.770  -8.421   1.601  0.00  0.00    -0.010 C 
ATOM      7  C   UNL     1      -3.891  -9.464   1.651  0.00  0.00    -0.082 C 
ATOM      8  N   UNL     1      -5.035  -8.921   2.394  0.00  0.00    +0.379 N 
ATOM      9  C   UNL     1      -4.650  -8.663   3.787  0.00  0.00    -0.082 C 
ATOM     10  C   UNL     1      -3.562  -7.586   3.827  0.00  0.00    -0.010 C 
ATOM     11  C   UNL     1      -0.217  -9.058   5.767  0.00  0.00    +0.253 C 
ATOM     12  O   UNL     1      -0.784  -9.965   6.338  0.00  0.00    -0.272 OA
ATOM     13  H   UNL     1      -5.334  -8.058   1.964  0.00  0.00    -0.086 HD
ATOM     14  H   UNL     1      -5.793  -9.585   2.373  0.00  0.00    -0.086 HD
ENDROOT
BRANCH   1  16
ATOM     15  N   UNL     1      -1.580  -5.549   1.001  0.00  0.00    -0.311 N 
ATOM     16  C   UNL     1      -0.943  -6.585   1.582  0.00  0.00    +0.218 C 
ATOM     17  O   UNL     1      -0.106  -7.206   0.962  0.00  0.00    -0.275 OA
ATOM     18  H   UNL     1      -2.250  -5.052   1.497  0.00  0.00    +0.149 HD
BRANCH  15  19
ATOM     19  C   UNL     1      -1.262  -5.174  -0.379  0.00  0.00    +0.139 C 
BRANCH  19  24
ATOM     20  C   UNL     1      -4.120  -3.113  -1.746  0.00  0.00    +0.046 A 
ATOM     21  C   UNL     1      -3.654  -1.823  -1.534  0.00  0.00    +0.026 A 
ATOM     22  C   UNL     1      -2.419  -1.624  -0.949  0.00  0.00    +0.002 A 
ATOM     23  C   UNL     1      -1.646  -2.709  -0.576  0.00  0.00    +0.005 A 
ATOM     24  C   UNL     1      -2.108  -3.995  -0.787  0.00  0.00    -0.028 A 
ATOM     25  C   UNL     1      -3.345  -4.200  -1.366  0.00  0.00    +0.031 A 
BRANCH  20  29
ATOM     26  C   UNL     1      -7.146  -4.320  -3.171  0.00  0.00    +0.019 A 
ATOM     27  C   UNL     1      -7.326  -2.926  -3.272  0.00  0.00    +0.019 A 
ATOM     28  C   UNL     1      -6.228  -2.337  -2.756  0.00  0.00    +0.091 A 
ATOM     29  N   UNL     1      -5.374  -3.318  -2.340  0.00  0.00    -0.323 N 
ATOM     30  C   UNL     1      -5.944  -4.532  -2.597  0.00  0.00    +0.091 A 
ENDBRANCH  20  29
ENDBRANCH  19  24
ENDBRANCH  15  19
ENDBRANCH   1  16
BRANCH  11  31
ATOM     31  C   UNL     1       0.924  -8.339   6.441  0.00  0.00    +0.324 C 
BRANCH  31  32
ATOM     32  O   UNL     1       1.145  -8.905   7.734  0.00  0.00    -0.483 OA
BRANCH  32  33
ATOM     33  C   UNL     1       2.147  -8.368   8.479  0.00  0.00    +0.123 A 
ATOM     34  C   UNL     1       2.897  -7.313   7.978  0.00  0.00    +0.046 A 
ATOM     35  C   UNL     1       3.914  -6.768   8.736  0.00  0.00    +0.005 A 
ATOM     36  C   UNL     1       4.186  -7.271   9.995  0.00  0.00    +0.020 A 
ATOM     37  C   UNL     1       3.440  -8.323  10.498  0.00  0.00    +0.044 A 
ATOM     38  C   UNL     1       2.417  -8.868   9.744  0.00  0.00    +0.065 A 
ATOM     39 CL   UNL     1       3.784  -8.953  12.078  0.00  0.00    -0.083 Cl
ENDBRANCH  32  33
ENDBRANCH  31  32
ENDBRANCH  11  31
TORSDOF 7
