REMARK  Name = ZINC34735033
REMARK  10 active torsions:
REMARK  status: ('A' for Active; 'I' for Inactive)
REMARK    1  A    between atoms: C_1  and  C_2
REMARK    2  A    between atoms: C_2  and  N_3
REMARK    3  A    between atoms: N_3  and  C_4
REMARK    4  A    between atoms: C_4  and  C_5
REMARK    5  A    between atoms: C_6  and  C_8
REMARK    6  A    between atoms: C_8  and  N_9
REMARK    7  A    between atoms: C_24  and  C_26
REMARK    8  A    between atoms: C_24  and  C_27
REMARK    9  A    between atoms: N_30  and  C_31
REMARK   10  A    between atoms: C_31  and  C_32
REMARK                            x       y       z     vdW  Elec       q    Type
REMARK                         _______ _______ _______ _____ _____    ______ ____
ROOT
ATOM      1  N   UNL     1      -3.742  -1.296   2.651  0.00  0.00    +0.387 N 
ATOM      2  C   UNL     1      -3.779  -0.041   3.412  0.00  0.00    -0.059 C 
ATOM      3  C   UNL     1      -4.200  -0.333   4.856  0.00  0.00    +0.089 C 
ATOM      4  N   UNL     1      -5.475  -1.066   4.831  0.00  0.00    -0.304 N 
ATOM      5  C   UNL     1      -5.578  -2.249   3.962  0.00  0.00    +0.089 C 
ATOM      6  C   UNL     1      -5.092  -1.866   2.561  0.00  0.00    -0.059 C 
ATOM      7  C   UNL     1      -6.539  -0.657   5.596  0.00  0.00    +0.202 A 
ATOM      8  N   UNL     1      -7.400   0.208   5.102  0.00  0.00    -0.208 NA
ATOM      9  C   UNL     1      -8.438   0.621   5.820  0.00  0.00    +0.118 A 
ATOM     10  C   UNL     1      -8.671   0.163   7.128  0.00  0.00    +0.076 A 
ATOM     11  C   UNL     1      -9.854   0.710   7.791  0.00  0.00    -0.018 A 
ATOM     12  C   UNL     1     -10.600   1.591   7.091  0.00  0.00    +0.021 A 
ATOM     13  S   UNL     1      -9.783   1.744   5.528  0.00  0.00    -0.071 S 
ATOM     14  C   UNL     1     -11.846   2.272   7.566  0.00  0.00    +0.203 C 
ATOM     15  O   UNL     1     -12.289   1.601   8.757  0.00  0.00    -0.368 OA
ATOM     16  C   UNL     1     -11.249   1.395   9.717  0.00  0.00    +0.068 C 
ATOM     17  C   UNL     1     -10.268   0.333   9.212  0.00  0.00    +0.071 C 
ATOM     18  C   UNL     1     -10.501   2.710   9.943  0.00  0.00    +0.041 C 
ATOM     19  C   UNL     1     -11.864   0.930  11.038  0.00  0.00    +0.041 C 
ATOM     20  C   UNL     1      -7.720  -0.776   7.637  0.00  0.00    +0.264 A 
ATOM     21  O   UNL     1      -7.840  -1.230   8.763  0.00  0.00    -0.267 OA
ATOM     22  N   UNL     1      -6.693  -1.157   6.855  0.00  0.00    -0.271 N 
ATOM     23  H   UNL     1      -3.132  -1.951   3.116  0.00  0.00    -0.081 HD
ENDROOT
BRANCH   1  24
ATOM     24  C   UNL     1      -3.233  -1.031   1.298  0.00  0.00    +0.019 C 
BRANCH  24  26
ATOM     25  N   UNL     1      -1.127  -0.257   0.257  0.00  0.00    -0.304 N 
ATOM     26  C   UNL     1      -1.804  -0.562   1.382  0.00  0.00    +0.199 C 
ATOM     27  O   UNL     1      -1.262  -0.458   2.462  0.00  0.00    -0.278 OA
BRANCH  25  29
ATOM     28  C   UNL     1       0.292   1.724   0.464  0.00  0.00    +0.024 C 
ATOM     29  C   UNL     1       0.263   0.199   0.339  0.00  0.00    +0.104 C 
ENDBRANCH  25  29
BRANCH  25  30
ATOM     30  C   UNL     1      -1.781  -0.383  -1.048  0.00  0.00    +0.104 C 
ATOM     31  C   UNL     1      -1.555  -1.792  -1.598  0.00  0.00    +0.024 C 
ENDBRANCH  25  30
ENDBRANCH  24  26
ENDBRANCH   1  24
BRANCH  22  32
ATOM     32  C   UNL     1      -5.719  -2.123   7.369  0.00  0.00    +0.223 C 
BRANCH  32  33
ATOM     33  C   UNL     1      -4.647  -1.395   8.139  0.00  0.00    +0.230 C 
ATOM     34  O   UNL     1      -4.693  -0.188   8.248  0.00  0.00    -0.274 OA
ATOM     35  N   UNL     1      -3.638  -2.085   8.706  0.00  0.00    -0.328 N 
ATOM     36  H   UNL     1      -3.601  -3.050   8.619  0.00  0.00    +0.145 HD
ATOM     37  H   UNL     1      -2.949  -1.616   9.202  0.00  0.00    +0.145 HD
ENDBRANCH  32  33
ENDBRANCH  22  32
TORSDOF 6
