REMARK  Name = ZINC28568062
REMARK  8 active torsions:
REMARK  status: ('A' for Active; 'I' for Inactive)
REMARK    1  A    between atoms: C_3  and  O_9
REMARK    2  A    between atoms: C_6  and  C_7
REMARK    3  A    between atoms: O_9  and  C_10
REMARK    4  A    between atoms: C_12  and  O_25
REMARK    5  A    between atoms: C_14  and  O_24
REMARK    6  A    between atoms: C_16  and  O_23
REMARK    7  A    between atoms: C_18  and  C_21
REMARK    8  A    between atoms: C_21  and  O_22
REMARK                            x       y       z     vdW  Elec       q    Type
REMARK                         _______ _______ _______ _____ _____    ______ ____
ROOT
ATOM      1  C   UNL     1      -6.081   3.011   0.046  0.00  0.00    +0.339 C 
ATOM      2  C   UNL     1      -7.304   3.922   0.181  0.00  0.00    +0.214 C 
ATOM      3  C   UNL     1      -8.575   3.069   0.120  0.00  0.00    +0.180 C 
ATOM      4  C   UNL     1      -8.582   2.276  -1.190  0.00  0.00    +0.177 C 
ATOM      5  C   UNL     1      -7.310   1.429  -1.272  0.00  0.00    +0.179 C 
ATOM      6  O   UNL     1      -6.165   2.280  -1.179  0.00  0.00    -0.331 OA
ENDROOT
BRANCH   4   7
ATOM      7  O   UNL     1      -9.727   1.421  -1.224  0.00  0.00    -0.386 OA
ATOM      8  H   UNL     1      -9.903   0.771  -2.094  0.00  0.00    +0.210 HD
ENDBRANCH   4   7
BRANCH   3   9
ATOM      9  O   UNL     1      -8.597   2.165   1.227  0.00  0.00    -0.386 OA
ATOM     10  H   UNL     1      -9.438   1.468   1.351  0.00  0.00    +0.210 HD
ENDBRANCH   3   9
BRANCH   2  11
ATOM     11  O   UNL     1      -7.250   4.611   1.431  0.00  0.00    -0.383 OA
ATOM     12  H   UNL     1      -8.050   5.315   1.706  0.00  0.00    +0.210 HD
ENDBRANCH   2  11
BRANCH   1  13
ATOM     13  O   UNL     1      -4.893   3.806   0.045  0.00  0.00    -0.461 OA
BRANCH  13  16
ATOM     14  C   UNL     1      -2.499   1.079   0.014  0.00  0.00    +0.014 A 
ATOM     15  C   UNL     1      -3.693   1.753   0.029  0.00  0.00    +0.046 A 
ATOM     16  C   UNL     1      -3.709   3.143   0.036  0.00  0.00    +0.124 A 
ATOM     17  C   UNL     1      -2.515   3.857   0.035  0.00  0.00    +0.046 A 
ATOM     18  C   UNL     1      -1.316   3.193   0.026  0.00  0.00    +0.014 A 
ATOM     19  C   UNL     1      -1.294   1.793   0.018  0.00  0.00    +0.014 A 
BRANCH  19  20
ATOM     20  C   UNL     1      -0.013   1.076   0.008  0.00  0.00    +0.258 C 
ATOM     21  O   UNL     1       1.030   1.696   0.001  0.00  0.00    -0.296 OA
ENDBRANCH  19  20
ENDBRANCH  13  16
ENDBRANCH   1  13
BRANCH   5  22
ATOM     22  C   UNL     1      -7.281   0.679  -2.605  0.00  0.00    +0.190 C 
BRANCH  22  23
ATOM     23  O   UNL     1      -6.154  -0.200  -2.634  0.00  0.00    -0.392 OA
ATOM     24  H   UNL     1      -5.967  -0.826  -3.518  0.00  0.00    +0.210 HD
ENDBRANCH  22  23
ENDBRANCH   5  22
TORSDOF 8
