REMARK  Name = ZINC16915901
REMARK  9 active torsions:
REMARK  status: ('A' for Active; 'I' for Inactive)
REMARK    1  A    between atoms: C_1  and  C_2
REMARK    2  A    between atoms: C_8  and  C_10
REMARK    3  A    between atoms: C_10  and  C_12
REMARK    4  A    between atoms: C_10  and  O_13
REMARK    5  A    between atoms: O_13  and  C_14
REMARK    6  A    between atoms: C_14  and  C_16
REMARK    7  A    between atoms: C_16  and  C_17
REMARK    8  A    between atoms: C_17  and  N_18
REMARK    9  A    between atoms: N_21  and  C_22
REMARK                            x       y       z     vdW  Elec       q    Type
REMARK                         _______ _______ _______ _____ _____    ______ ____
ROOT
ATOM      1  C   UNL     1       2.457   0.997  -0.016  0.00  0.00    +0.117 C 
ENDROOT
BRANCH   1   2
ATOM      2  N   UNL     1       3.715   1.747  -0.024  0.00  0.00    -0.299 N 
ATOM      3  C   UNL     1       4.891   1.089  -0.039  0.00  0.00    +0.300 C 
ATOM      4  O   UNL     1       4.908  -0.127  -0.045  0.00  0.00    -0.253 OA
ATOM      5  N   UNL     1       6.049   1.778  -0.046  0.00  0.00    -0.294 N 
ATOM      6  H   UNL     1       3.702   2.716  -0.019  0.00  0.00    +0.150 HD
ATOM      7  H   UNL     1       6.036   2.748  -0.041  0.00  0.00    +0.151 HD
BRANCH   5   8
ATOM      8  C   UNL     1       7.328   1.063  -0.062  0.00  0.00    +0.037 C 
ATOM      9  C   UNL     1       7.433   0.178   1.181  0.00  0.00    +0.029 C 
ATOM     10  C   UNL     1       8.768  -0.569   1.165  0.00  0.00    -0.008 C 
ATOM     11  C   UNL     1       9.917   0.441   1.159  0.00  0.00    +0.007 C 
ATOM     12  C   UNL     1       9.812   1.326  -0.085  0.00  0.00    -0.008 C 
ATOM     13  C   UNL     1       8.477   2.073  -0.068  0.00  0.00    +0.029 C 
ATOM     14  C   UNL     1       9.893   0.455  -1.339  0.00  0.00    +0.007 C 
ATOM     15  C   UNL     1       8.744  -0.555  -1.334  0.00  0.00    -0.008 C 
ATOM     16  C   UNL     1       8.849  -1.440  -0.090  0.00  0.00    +0.007 C 
ATOM     17  C   UNL     1       7.409   0.192  -1.317  0.00  0.00    +0.029 C 
ENDBRANCH   5   8
ENDBRANCH   1   2
BRANCH   1  18
ATOM     18  C   UNL     1       1.280   1.975   0.000  0.00  0.00    +0.139 C 
BRANCH  18  19
ATOM     19  C   UNL     1      -0.014   1.204   0.009  0.00  0.00    +0.309 C 
ATOM     20  O   UNL     1       0.002  -0.004   0.002  0.00  0.00    -0.251 OA
BRANCH  19  21
ATOM     21  O   UNL     1      -1.186   1.859   0.018  0.00  0.00    -0.452 OA
BRANCH  21  22
ATOM     22  C   UNL     1      -2.393   1.052   0.019  0.00  0.00    +0.259 C 
ATOM     23  C   UNL     1      -2.810   0.761   1.462  0.00  0.00    +0.062 C 
BRANCH  22  31
ATOM     24  C   UNL     1      -7.380   4.665  -3.261  0.00  0.00    +0.089 C 
ATOM     25  C   UNL     1      -6.901   3.438  -2.529  0.00  0.00    +0.136 A 
ATOM     26  C   UNL     1      -5.659   3.224  -2.036  0.00  0.00    +0.091 A 
ATOM     27  C   UNL     1      -5.741   1.932  -1.451  0.00  0.00    +0.168 A 
ATOM     28  N   UNL     1      -6.965   1.519  -1.649  0.00  0.00    -0.063 NA
ATOM     29  O   UNL     1      -7.622   2.345  -2.240  0.00  0.00    -0.358 OA
ATOM     30  N   UNL     1      -4.718   1.241  -0.802  0.00  0.00    -0.265 N 
ATOM     31  C   UNL     1      -3.498   1.799  -0.682  0.00  0.00    +0.259 C 
ATOM     32  O   UNL     1      -3.289   2.904  -1.138  0.00  0.00    -0.271 OA
ATOM     33  H   UNL     1      -4.885   0.357  -0.438  0.00  0.00    +0.156 HD
ENDBRANCH  22  31
ENDBRANCH  21  22
ENDBRANCH  19  21
ENDBRANCH  18  19
ENDBRANCH   1  18
TORSDOF 7
