REMARK  Name = ZINC25518172
REMARK  6 active torsions:
REMARK  status: ('A' for Active; 'I' for Inactive)
REMARK    1  A    between atoms: C_5  and  S_6
REMARK    2  A    between atoms: S_6  and  N_9
REMARK    3  A    between atoms: C_13  and  C_15
REMARK    4  A    between atoms: N_17  and  C_18
REMARK    5  A    between atoms: N_21  and  C_24
REMARK    6  A    between atoms: C_24  and  C_25
REMARK                            x       y       z     vdW  Elec       q    Type
REMARK                         _______ _______ _______ _____ _____    ______ ____
ROOT
ATOM      1  C   UNL     1       1.140   2.151   0.003  0.00  0.00    +0.232 C 
ATOM      2  O   UNL     1       2.199   1.558  -0.011  0.00  0.00    -0.274 OA
ATOM      3  N   UNL     1      -0.018   1.461   0.010  0.00  0.00    -0.311 N 
ATOM      4  H   UNL     1      -0.978   1.998   0.022  0.00  0.00    +0.149 HD
ENDROOT
BRANCH   3   5
ATOM      5  C   UNL     1       0.002  -0.004   0.002  0.00  0.00    +0.069 C 
ATOM      6  C   UNL     1       0.113  -0.506  -1.440  0.00  0.00    +0.003 C 
ATOM      7  C   UNL     1       0.072  -2.036  -1.447  0.00  0.00    -0.076 C 
ATOM      8  N   UNL     1      -1.186  -2.496  -0.845  0.00  0.00    +0.385 N 
ATOM      9  C   UNL     1      -1.293  -2.066   0.555  0.00  0.00    -0.076 C 
ATOM     10  C   UNL     1      -1.293  -0.537   0.622  0.00  0.00    +0.003 C 
ATOM     11  H   UNL     1      -2.013  -2.033  -1.403  0.00  0.00    -0.081 HD
BRANCH   8  12
ATOM     12  C   UNL     1      -1.322  -3.954  -0.959  0.00  0.00    +0.018 C 
BRANCH  12  13
ATOM     13  C   UNL     1      -1.454  -4.334  -2.412  0.00  0.00    +0.194 C 
ATOM     14  O   UNL     1      -1.435  -3.475  -3.267  0.00  0.00    -0.278 OA
ATOM     15  N   UNL     1      -1.591  -5.629  -2.760  0.00  0.00    -0.331 N 
ATOM     16  H   UNL     1      -1.687  -5.906  -3.820  0.00  0.00    +0.145 HD
ATOM     17  H   UNL     1      -1.608  -6.408  -1.984  0.00  0.00    +0.145 HD
ENDBRANCH  12  13
ENDBRANCH   8  12
ENDBRANCH   3   5
BRANCH   1  22
ATOM     18  N   UNL     1       2.495   4.176   0.018  0.00  0.00    -0.164 NA
ATOM     19  C   UNL     1       2.700   4.957   1.252  0.00  0.00    +0.110 C 
ATOM     20  C   UNL     1       1.280   5.408   1.675  0.00  0.00    +0.019 C 
ATOM     21  C   UNL     1       0.431   4.166   1.295  0.00  0.00    +0.031 C 
ATOM     22  C   UNL     1       1.120   3.657   0.011  0.00  0.00    +0.165 C 
BRANCH  18  23
ATOM     23  S   UNL     1       3.628   3.925  -1.163  0.00  0.00    +0.068 S 
ATOM     24  O   UNL     1       4.899   4.084  -0.548  0.00  0.00    -0.152 OA
ATOM     25  O   UNL     1       3.253   2.732  -1.838  0.00  0.00    -0.152 OA
BRANCH  23  30
ATOM     26  C   UNL     1       4.081   6.442  -2.348  0.00  0.00    +0.037 A 
ATOM     27  C   UNL     1       3.796   7.325  -3.373  0.00  0.00    +0.025 A 
ATOM     28  C   UNL     1       2.908   6.957  -4.330  0.00  0.00    +0.057 A 
ATOM     29  S   UNL     1       2.449   5.316  -3.795  0.00  0.00    -0.062 S 
ATOM     30  C   UNL     1       3.465   5.236  -2.329  0.00  0.00    +0.144 A 
ATOM     31 BR   UNL     1       2.313   7.926  -5.840  0.00  0.00    -0.043 Br
ENDBRANCH  23  30
ENDBRANCH  18  23
ENDBRANCH   1  22
TORSDOF 6
