REMARK  Name = ZINC36609067
REMARK  15 active torsions:
REMARK  status: ('A' for Active; 'I' for Inactive)
REMARK    1  A    between atoms: C_1  and  C_2
REMARK    2  A    between atoms: C_2  and  C_3
REMARK    3  A    between atoms: C_2  and  C_4
REMARK    4  A    between atoms: C_2  and  C_5
REMARK    5  A    between atoms: C_5  and  C_6
REMARK    6  A    between atoms: C_6  and  C_7
REMARK    7  A    between atoms: C_6  and  C_8
REMARK    8  A    between atoms: C_6  and  N_9
REMARK    9  A    between atoms: C_10  and  C_12
REMARK   10  A    between atoms: C_12  and  C_14
REMARK   11  A    between atoms: C_12  and  N_23
REMARK   12  A    between atoms: C_15  and  O_22
REMARK   13  A    between atoms: C_17  and  O_21
REMARK   14  A    between atoms: C_19  and  O_20
REMARK   15  A    between atoms: N_23  and  C_26
REMARK                            x       y       z     vdW  Elec       q    Type
REMARK                         _______ _______ _______ _____ _____    ______ ____
ROOT
ATOM      1  C   UNL     1       5.313  -0.504  -4.208  0.00  0.00    +0.204 C 
ENDROOT
BRANCH   1   2
ATOM      2  C   UNL     1       5.249  -1.999  -4.390  0.00  0.00    +0.065 A 
ATOM      3  C   UNL     1       5.953  -2.832  -3.533  0.00  0.00    +0.129 A 
ATOM      4  C   UNL     1       5.894  -4.207  -3.700  0.00  0.00    +0.091 A 
ATOM      5  C   UNL     1       5.130  -4.749  -4.723  0.00  0.00    +0.124 A 
ATOM      6  C   UNL     1       4.426  -3.916  -5.579  0.00  0.00    +0.091 A 
ATOM      7  C   UNL     1       4.481  -2.541  -5.409  0.00  0.00    +0.129 A 
BRANCH   7   8
ATOM      8  O   UNL     1       3.787  -1.724  -6.245  0.00  0.00    -0.506 OA
ATOM      9  H   UNL     1       4.282  -1.452  -7.030  0.00  0.00    +0.292 HD
ENDBRANCH   7   8
BRANCH   5  10
ATOM     10  O   UNL     1       5.073  -6.097  -4.888  0.00  0.00    -0.507 OA
ATOM     11  H   UNL     1       4.358  -6.523  -4.395  0.00  0.00    +0.292 HD
ENDBRANCH   5  10
BRANCH   3  12
ATOM     12  O   UNL     1       6.701  -2.301  -2.531  0.00  0.00    -0.506 OA
ATOM     13  H   UNL     1       6.243  -2.254  -1.681  0.00  0.00    +0.292 HD
ENDBRANCH   3  12
ENDBRANCH   1   2
BRANCH   1  15
ATOM     14  N   UNL     1       3.422  -0.438  -2.615  0.00  0.00    -0.308 N 
ATOM     15  C   UNL     1       4.708  -0.133  -2.879  0.00  0.00    +0.239 C 
ATOM     16  O   UNL     1       5.378   0.440  -2.046  0.00  0.00    -0.273 OA
ATOM     17  H   UNL     1       2.886  -0.896  -3.281  0.00  0.00    +0.149 HD
BRANCH  14  18
ATOM     18  C   UNL     1       2.833  -0.077  -1.323  0.00  0.00    +0.030 C 
ATOM     19  C   UNL     1       3.040   1.417  -1.068  0.00  0.00    +0.031 C 
ATOM     20  C   UNL     1       3.510  -0.883  -0.212  0.00  0.00    +0.031 C 
BRANCH  18  21
ATOM     21  C   UNL     1       1.335  -0.389  -1.340  0.00  0.00    +0.031 C 
BRANCH  21  23
ATOM     22  C   UNL     1       1.000  -0.972  -3.746  0.00  0.00    +0.010 C 
ATOM     23  C   UNL     1       0.732   0.078  -2.666  0.00  0.00    -0.036 C 
ATOM     24  C   UNL     1       1.371   1.406  -3.077  0.00  0.00    +0.010 C 
ATOM     25  C   UNL     1      -0.777   0.267  -2.501  0.00  0.00    +0.010 C 
ENDBRANCH  21  23
ENDBRANCH  18  21
ENDBRANCH  14  18
ENDBRANCH   1  15
BRANCH   1  26
ATOM     26  N   UNL     1       6.711  -0.067  -4.247  0.00  0.00    -0.258 N 
ATOM     27  C   UNL     1       7.016   1.234  -4.069  0.00  0.00    +0.333 C 
ATOM     28  O   UNL     1       8.162   1.611  -4.192  0.00  0.00    -0.279 OA
BRANCH  26  29
ATOM     29  C   UNL     1       7.730  -1.000  -4.469  0.00  0.00    +0.037 A 
ATOM     30  C   UNL     1       7.719  -1.782  -5.617  0.00  0.00    +0.023 A 
ATOM     31  C   UNL     1       8.726  -2.702  -5.833  0.00  0.00    +0.002 A 
ATOM     32  C   UNL     1       9.744  -2.845  -4.908  0.00  0.00    +0.000 A 
ATOM     33  C   UNL     1       9.757  -2.069  -3.764  0.00  0.00    +0.002 A 
ATOM     34  C   UNL     1       8.757  -1.142  -3.546  0.00  0.00    +0.023 A 
ENDBRANCH  26  29
ENDBRANCH   1  26
TORSDOF 10
