REMARK  Name = ZINC40596175
REMARK  5 active torsions:
REMARK  status: ('A' for Active; 'I' for Inactive)
REMARK    1  A    between atoms: C_1  and  C_2
REMARK    2  A    between atoms: C_2  and  N_3
REMARK    3  A    between atoms: C_5  and  N_21
REMARK    4  A    between atoms: C_6  and  O_10
REMARK    5  A    between atoms: O_10  and  C_11
REMARK                            x       y       z     vdW  Elec       q    Type
REMARK                         _______ _______ _______ _____ _____    ______ ____
ROOT
ATOM      1  N   UNL     1       0.511  -0.495  -1.288  0.00  0.00    -0.327 N 
ATOM      2  C   UNL     1       0.664  -1.853  -1.519  0.00  0.00    +0.156 A 
ATOM      3  C   UNL     1       1.401  -2.306  -2.611  0.00  0.00    +0.227 A 
ATOM      4  C   UNL     1       1.525  -3.676  -2.799  0.00  0.00    +0.256 A 
ATOM      5  N   UNL     1       0.940  -4.503  -1.935  0.00  0.00    -0.199 NA
ATOM      6  C   UNL     1       0.251  -4.037  -0.914  0.00  0.00    +0.227 A 
ATOM      7  N   UNL     1       0.114  -2.744  -0.697  0.00  0.00    -0.218 NA
ATOM      8  H   UNL     1       0.915   0.148  -1.891  0.00  0.00    +0.148 HD
ENDROOT
BRANCH   3   9
ATOM      9  N   UNL     1       2.035  -1.351  -3.547  0.00  0.00    +0.065 N 
ATOM     10  O   UNL     1       3.162  -0.962  -3.343  0.00  0.00    -0.126 OA
ATOM     11  O   UNL     1       1.427  -0.959  -4.516  0.00  0.00    -0.126 OA
ENDBRANCH   3   9
BRANCH   1  13
ATOM     12  C   UNL     1      -0.275   1.498  -0.109  0.00  0.00    +0.024 C 
ATOM     13  C   UNL     1      -0.261  -0.031  -0.132  0.00  0.00    +0.099 C 
ENDBRANCH   1  13
BRANCH   4  14
ATOM     14  O   UNL     1       2.232  -4.165  -3.847  0.00  0.00    -0.434 OA
BRANCH  14  15
ATOM     15  C   UNL     1       2.409  -5.510  -3.925  0.00  0.00    +0.156 A 
ATOM     16  C   UNL     1       3.539  -6.084  -3.414  0.00  0.00    +0.048 A 
ATOM     17  C   UNL     1       3.738  -7.460  -3.485  0.00  0.00    +0.004 A 
ATOM     18  C   UNL     1       2.812  -8.273  -4.065  0.00  0.00    +0.010 A 
ATOM     19  C   UNL     1       1.638  -7.720  -4.601  0.00  0.00    +0.004 A 
ATOM     20  C   UNL     1       1.425  -6.321  -4.528  0.00  0.00    +0.113 A 
ATOM     21  N   UNL     1       0.308  -5.790  -5.032  0.00  0.00    -0.251 NA
ATOM     22  C   UNL     1      -0.609  -6.540  -5.594  0.00  0.00    +0.111 A 
ATOM     23  C   UNL     1      -0.466  -7.922  -5.694  0.00  0.00    +0.020 A 
ATOM     24  C   UNL     1       0.658  -8.528  -5.209  0.00  0.00    +0.011 A 
ENDBRANCH  14  15
ENDBRANCH   4  14
TORSDOF 4
