REMARK  Name = ZINC20548992
REMARK  7 active torsions:
REMARK  status: ('A' for Active; 'I' for Inactive)
REMARK    1  A    between atoms: C_1  and  O_2
REMARK    2  A    between atoms: O_2  and  C_3
REMARK    3  A    between atoms: C_3  and  C_4
REMARK    4  A    between atoms: C_4  and  C_5
REMARK    5  A    between atoms: C_5  and  N_6
REMARK    6  A    between atoms: C_11  and  C_29
REMARK    7  A    between atoms: C_29  and  C_30
REMARK                            x       y       z     vdW  Elec       q    Type
REMARK                         _______ _______ _______ _____ _____    ______ ____
ROOT
ATOM      1  N   UNL     1       1.272  -4.165  -2.169  0.00  0.00    -0.241 N 
ATOM      2  C   UNL     1       2.240  -4.908  -1.556  0.00  0.00    +0.227 C 
ATOM      3  O   UNL     1       3.088  -4.513  -0.785  0.00  0.00    -0.275 OA
ATOM      4  C   UNL     1       2.036  -6.319  -2.036  0.00  0.00    +0.107 C 
ATOM      5  C   UNL     1       2.133  -7.474  -1.031  0.00  0.00    +0.076 C 
ATOM      6  N   UNL     1       1.108  -8.443  -1.543  0.00  0.00    -0.295 NA
ATOM      7  C   UNL     1       0.071  -7.651  -2.274  0.00  0.00    +0.136 C 
ATOM      8  C   UNL     1       0.457  -6.240  -2.101  0.00  0.00    +0.122 C 
ATOM      9  C   UNL     1       0.257  -4.933  -2.683  0.00  0.00    +0.228 C 
ATOM     10  O   UNL     1      -0.613  -4.592  -3.455  0.00  0.00    -0.275 OA
ATOM     11  C   UNL     1       0.033  -8.085  -3.716  0.00  0.00    +0.005 A 
ATOM     12  C   UNL     1       0.954  -8.041  -4.739  0.00  0.00    +0.027 A 
ATOM     13  C   UNL     1       0.621  -8.527  -5.992  0.00  0.00    +0.041 A 
ATOM     14  C   UNL     1      -0.638  -9.058  -6.212  0.00  0.00    +0.022 A 
ATOM     15  C   UNL     1      -1.562  -9.104  -5.189  0.00  0.00    +0.025 A 
ATOM     16  C   UNL     1      -1.235  -8.617  -3.925  0.00  0.00    +0.039 A 
ATOM     17  N   UNL     1      -1.984  -8.556  -2.748  0.00  0.00    -0.283 N 
ATOM     18  C   UNL     1      -1.294  -8.005  -1.734  0.00  0.00    +0.243 C 
ATOM     19  O   UNL     1      -1.692  -7.826  -0.603  0.00  0.00    -0.273 OA
ATOM     20 CL   UNL     1       1.780  -8.472  -7.283  0.00  0.00    -0.084 Cl
ATOM     21  H   UNL     1       1.531  -9.131  -2.148  0.00  0.00    +0.124 HD
ATOM     22  H   UNL     1      -2.897  -8.875  -2.671  0.00  0.00    +0.155 HD
ENDROOT
BRANCH   1  23
ATOM     23  C   UNL     1       1.309  -2.703  -2.261  0.00  0.00    +0.118 C 
BRANCH  23  24
ATOM     24  C   UNL     1       0.613  -2.097  -1.041  0.00  0.00    +0.047 C 
BRANCH  24  25
ATOM     25  C   UNL     1       0.652  -0.570  -1.138  0.00  0.00    +0.161 C 
BRANCH  25  27
ATOM     26  C   UNL     1      -0.017   1.425   0.010  0.00  0.00    +0.193 C 
ATOM     27  O   UNL     1       0.002  -0.004   0.002  0.00  0.00    -0.383 OA
ENDBRANCH  25  27
ENDBRANCH  24  25
ENDBRANCH  23  24
ENDBRANCH   1  23
BRANCH   5  28
ATOM     28  C   UNL     1       3.531  -8.095  -1.051  0.00  0.00    +0.115 C 
BRANCH  28  29
ATOM     29  C   UNL     1       3.631  -9.141   0.029  0.00  0.00    +0.212 C 
ATOM     30  O   UNL     1       2.679  -9.367   0.745  0.00  0.00    -0.276 OA
ATOM     31  N   UNL     1       4.780  -9.825   0.200  0.00  0.00    -0.329 N 
ATOM     32  H   UNL     1       5.542  -9.644  -0.372  0.00  0.00    +0.145 HD
ATOM     33  H   UNL     1       4.845 -10.498   0.895  0.00  0.00    +0.145 HD
ENDBRANCH  28  29
ENDBRANCH   5  28
TORSDOF 6
