REMARK  Name = ZINC22842503
REMARK  6 active torsions:
REMARK  status: ('A' for Active; 'I' for Inactive)
REMARK    1  A    between atoms: C_1  and  C_2
REMARK    2  A    between atoms: C_5  and  C_8
REMARK    3  A    between atoms: C_10  and  C_13
REMARK    4  A    between atoms: C_13  and  N_14
REMARK    5  A    between atoms: N_17  and  C_20
REMARK    6  A    between atoms: C_20  and  C_21
REMARK                            x       y       z     vdW  Elec       q    Type
REMARK                         _______ _______ _______ _____ _____    ______ ____
ROOT
ATOM      1  N   UNL     1      -2.012   1.308  -3.707  0.00  0.00    -0.297 NA
ATOM      2  C   UNL     1      -0.677   1.914  -3.606  0.00  0.00    +0.066 C 
ATOM      3  C   UNL     1       0.059   1.323  -2.401  0.00  0.00    -0.063 C 
ATOM      4  N   UNL     1      -0.723   1.572  -1.182  0.00  0.00    +0.386 N 
ATOM      5  C   UNL     1      -2.058   0.966  -1.283  0.00  0.00    -0.063 C 
ATOM      6  C   UNL     1      -2.794   1.557  -2.488  0.00  0.00    +0.066 C 
ATOM      7  H   UNL     1      -0.851   2.660  -1.077  0.00  0.00    -0.081 HD
ENDROOT
BRANCH   1   8
ATOM      8  C   UNL     1      -2.723   1.794  -4.897  0.00  0.00    +0.183 C 
BRANCH   8  11
ATOM      9  C   UNL     1      -6.248   1.230  -4.483  0.00  0.00    +0.202 A 
ATOM     10  N   UNL     1      -5.157   2.007  -4.297  0.00  0.00    -0.190 NA
ATOM     11  C   UNL     1      -4.162   1.351  -4.839  0.00  0.00    +0.242 A 
ATOM     12  O   UNL     1      -4.663   0.216  -5.337  0.00  0.00    -0.336 OA
ATOM     13  N   UNL     1      -5.855   0.159  -5.121  0.00  0.00    -0.056 NA
BRANCH   9  18
ATOM     14  C   UNL     1     -11.620   2.416  -2.778  0.00  0.00    +0.044 C 
ATOM     15  C   UNL     1     -10.215   2.106  -3.224  0.00  0.00    -0.050 A 
ATOM     16  C   UNL     1      -9.949   0.926  -3.896  0.00  0.00    +0.004 A 
ATOM     17  C   UNL     1      -8.664   0.637  -4.306  0.00  0.00    +0.012 A 
ATOM     18  C   UNL     1      -7.633   1.536  -4.044  0.00  0.00    +0.022 A 
ATOM     19  C   UNL     1      -7.904   2.721  -3.364  0.00  0.00    +0.012 A 
ATOM     20  C   UNL     1      -9.194   3.002  -2.961  0.00  0.00    +0.004 A 
ENDBRANCH   9  18
ENDBRANCH   8  11
ENDBRANCH   1   8
BRANCH   4  21
ATOM     21  C   UNL     1      -0.013   1.086   0.008  0.00  0.00    -0.001 C 
BRANCH  21  22
ATOM     22  C   UNL     1      -0.718   1.572   1.248  0.00  0.00    +0.120 A 
ATOM     23  N   UNL     1      -0.374   2.726   1.792  0.00  0.00    -0.202 NA
ATOM     24  C   UNL     1      -0.998   3.161   2.885  0.00  0.00    +0.217 A 
ATOM     25  N   UNL     1      -1.961   2.428   3.434  0.00  0.00    -0.181 NA
ATOM     26  C   UNL     1      -2.300   1.266   2.887  0.00  0.00    +0.217 A 
ATOM     27  N   UNL     1      -1.675   0.840   1.791  0.00  0.00    -0.202 NA
ATOM     28  N   UNL     1      -3.299   0.501   3.454  0.00  0.00    -0.327 N 
ATOM     29  N   UNL     1      -0.642   4.369   3.449  0.00  0.00    -0.327 N 
ATOM     30  H   UNL     1      -3.579  -0.461   3.000  0.00  0.00    +0.145 HD
ATOM     31  H   UNL     1      -3.815   0.853   4.359  0.00  0.00    +0.145 HD
ATOM     32  H   UNL     1      -1.158   4.727   4.352  0.00  0.00    +0.145 HD
ATOM     33  H   UNL     1       0.158   4.973   2.996  0.00  0.00    +0.145 HD
ENDBRANCH  21  22
ENDBRANCH   4  21
TORSDOF 5
