REMARK  Name = ZINC36905718
REMARK  6 active torsions:
REMARK  status: ('A' for Active; 'I' for Inactive)
REMARK    1  A    between atoms: C_1  and  C_2
REMARK    2  A    between atoms: C_2  and  C_4
REMARK    3  A    between atoms: C_2  and  N_7
REMARK    4  A    between atoms: C_4  and  C_5
REMARK    5  A    between atoms: C_4  and  C_6
REMARK    6  A    between atoms: C_11  and  C_13
REMARK                            x       y       z     vdW  Elec       q    Type
REMARK                         _______ _______ _______ _____ _____    ______ ____
ROOT
ATOM      1  N   UNL     1      -1.372  -0.511   0.012  0.00  0.00    -0.296 N 
ATOM      2  C   UNL     1      -2.029  -0.655   1.181  0.00  0.00    +0.306 C 
ATOM      3  O   UNL     1      -1.480  -0.364   2.226  0.00  0.00    -0.252 OA
ATOM      4  N   UNL     1      -3.293  -1.122   1.190  0.00  0.00    -0.239 N 
ATOM      5  C   UNL     1      -3.949  -1.266   2.359  0.00  0.00    +0.235 C 
ATOM      6  O   UNL     1      -3.402  -0.976   3.401  0.00  0.00    -0.274 OA
ATOM      7  H   UNL     1      -1.810  -0.743  -0.822  0.00  0.00    +0.151 HD
ATOM      8  H   UNL     1      -3.731  -1.354   0.356  0.00  0.00    +0.159 HD
ENDROOT
BRANCH   1  10
ATOM      9  C   UNL     1      -0.019   1.526   0.010  0.00  0.00    +0.028 C 
ATOM     10  C   UNL     1       0.002  -0.004   0.002  0.00  0.00    +0.074 C 
BRANCH  10  11
ATOM     11  C   UNL     1       0.718  -0.497  -1.257  0.00  0.00    +0.003 C 
ATOM     12  C   UNL     1       0.053   0.110  -2.493  0.00  0.00    +0.009 C 
ATOM     13  C   UNL     1       2.187  -0.073  -1.207  0.00  0.00    +0.009 C 
ENDBRANCH  10  11
ENDBRANCH   1  10
BRANCH   5  14
ATOM     14  C   UNL     1      -5.363  -1.787   2.369  0.00  0.00    +0.204 C 
ATOM     15 CL   UNL     1      -5.962  -1.865   4.068  0.00  0.00    -0.116 Cl
ENDBRANCH   5  14
TORSDOF 3
