REMARK  Name = ZINC03120011
REMARK  3 active torsions:
REMARK  status: ('A' for Active; 'I' for Inactive)
REMARK    1  A    between atoms: C_5  and  S_10
REMARK    2  A    between atoms: C_6  and  N_7
REMARK    3  A    between atoms: S_10  and  C_11
REMARK                            x       y       z     vdW  Elec       q    Type
REMARK                         _______ _______ _______ _____ _____    ______ ____
ROOT
ATOM      1  C   UNL     1       4.245   0.772  -0.135  0.00  0.00    +0.047 A 
ATOM      2  C   UNL     1       2.902   0.421  -0.168  0.00  0.00    +0.051 A 
ATOM      3  C   UNL     1       1.908   1.423  -0.153  0.00  0.00    +0.050 A 
ATOM      4  C   UNL     1       2.273   2.756  -0.106  0.00  0.00    +0.031 A 
ATOM      5  C   UNL     1       3.629   3.101  -0.073  0.00  0.00    +0.046 A 
ATOM      6  C   UNL     1       4.607   2.105  -0.088  0.00  0.00    +0.141 A 
ATOM      7  C   UNL     1       0.614   0.710  -0.197  0.00  0.00    +0.251 C 
ATOM      8  O   UNL     1      -0.483   1.231  -0.204  0.00  0.00    -0.270 OA
ATOM      9  N   UNL     1       0.855  -0.613  -0.234  0.00  0.00    -0.248 N 
ATOM     10  C   UNL     1       2.175  -0.866  -0.220  0.00  0.00    +0.251 C 
ATOM     11  O   UNL     1       2.686  -1.968  -0.246  0.00  0.00    -0.270 OA
ATOM     12  H   UNL     1       0.166  -1.295  -0.267  0.00  0.00    +0.158 HD
ENDROOT
BRANCH   6  13
ATOM     13  N   UNL     1       6.039   2.478  -0.052  0.00  0.00    +0.058 N 
ATOM     14  O   UNL     1       6.964   1.541  -0.066  0.00  0.00    -0.126 OA
ATOM     15  O   UNL     1       6.388   3.747  -0.007  0.00  0.00    -0.126 OA
ENDBRANCH   6  13
BRANCH   5  16
ATOM     16  S   UNL     1       4.103   4.797  -0.014  0.00  0.00    -0.059 S 
BRANCH  16  17
ATOM     17  C   UNL     1       4.511   4.933   1.643  0.00  0.00    +0.165 A 
ATOM     18  N   UNL     1       4.385   4.010   2.656  0.00  0.00    -0.133 NA
ATOM     19  N   UNL     1       4.755   4.316   3.824  0.00  0.00    -0.125 NA
ATOM     20  C   UNL     1       5.270   5.561   4.097  0.00  0.00    +0.180 A 
ATOM     21  S   UNL     1       5.211   6.317   2.534  0.00  0.00    -0.024 S 
ATOM     22  N   UNL     1       5.704   6.060   5.263  0.00  0.00    -0.336 N 
ATOM     23  H   UNL     1       6.045   6.967   5.305  0.00  0.00    +0.144 HD
ATOM     24  H   UNL     1       5.677   5.514   6.064  0.00  0.00    +0.144 HD
ENDBRANCH  16  17
ENDBRANCH   5  16
TORSDOF 3
