REMARK  Name = ZINC33628602
REMARK  9 active torsions:
REMARK  status: ('A' for Active; 'I' for Inactive)
REMARK    1  A    between atoms: C_1  and  C_2
REMARK    2  A    between atoms: C_3  and  C_30
REMARK    3  A    between atoms: C_4  and  C_23
REMARK    4  A    between atoms: C_9  and  S_13
REMARK    5  A    between atoms: S_13  and  C_14
REMARK    6  A    between atoms: C_14  and  C_15
REMARK    7  A    between atoms: C_26  and  O_29
REMARK    8  A    between atoms: C_30  and  O_32
REMARK    9  A    between atoms: O_32  and  C_33
REMARK                            x       y       z     vdW  Elec       q    Type
REMARK                         _______ _______ _______ _____ _____    ______ ____
ROOT
ATOM      1  C   UNL     1       4.777   1.069   0.996  0.00  0.00    +0.061 C 
ATOM      2  C   UNL     1       3.538   1.753   0.476  0.00  0.00    +0.017 C 
ATOM      3  C   UNL     1       3.499   3.095   0.416  0.00  0.00    +0.065 C 
ATOM      4  C   UNL     1       2.294   3.827  -0.101  0.00  0.00    +0.096 C 
ATOM      5  C   UNL     1       1.093   2.925  -0.137  0.00  0.00    +0.069 A 
ATOM      6  C   UNL     1       1.226   1.574  -0.057  0.00  0.00    +0.135 A 
ATOM      7  N   UNL     1       0.105   0.787  -0.100  0.00  0.00    -0.208 NA
ATOM      8  C   UNL     1      -1.126   1.357  -0.226  0.00  0.00    +0.171 A 
ATOM      9  N   UNL     1      -1.268   2.664  -0.296  0.00  0.00    -0.302 N 
ATOM     10  C   UNL     1      -0.201   3.477  -0.258  0.00  0.00    +0.258 A 
ATOM     11  O   UNL     1      -0.348   4.689  -0.328  0.00  0.00    -0.267 OA
ATOM     12  N   UNL     1       2.471   1.000   0.072  0.00  0.00    -0.302 N 
ATOM     13  H   UNL     1       2.605  -0.069  -0.151  0.00  0.00    +0.153 HD
ATOM     14  H   UNL     1      -2.272   3.104  -0.386  0.00  0.00    +0.171 HD
ENDROOT
BRANCH   4  15
ATOM     15  C   UNL     1       2.579   4.329  -1.492  0.00  0.00    -0.035 A 
ATOM     16  C   UNL     1       2.865   3.432  -2.505  0.00  0.00    +0.008 A 
ATOM     17  C   UNL     1       3.121   3.889  -3.783  0.00  0.00    +0.046 A 
ATOM     18  C   UNL     1       3.102   5.251  -4.048  0.00  0.00    +0.117 A 
ATOM     19  C   UNL     1       2.820   6.150  -3.029  0.00  0.00    +0.046 A 
ATOM     20  C   UNL     1       2.559   5.687  -1.754  0.00  0.00    +0.008 A 
BRANCH  18  21
ATOM     21  O   UNL     1       3.358   5.704  -5.303  0.00  0.00    -0.507 OA
ATOM     22  H   UNL     1       3.343   6.784  -5.512  0.00  0.00    +0.292 HD
ENDBRANCH  18  21
ENDBRANCH   4  15
BRANCH   3  23
ATOM     23  C   UNL     1       4.621   3.836   0.851  0.00  0.00    +0.337 C 
ATOM     24  O   UNL     1       4.628   4.333   1.962  0.00  0.00    -0.245 OA
BRANCH  23  25
ATOM     25  O   UNL     1       5.684   3.994   0.035  0.00  0.00    -0.465 OA
ATOM     26  C   UNL     1       6.783   4.755   0.539  0.00  0.00    +0.280 C 
ENDBRANCH  23  25
ENDBRANCH   3  23
BRANCH   8  27
ATOM     27  S   UNL     1      -2.555   0.327  -0.287  0.00  0.00    -0.083 S 
BRANCH  27  28
ATOM     28  C   UNL     1      -3.844   1.587  -0.451  0.00  0.00    +0.115 C 
BRANCH  28  29
ATOM     29  C   UNL     1      -5.192   0.919  -0.524  0.00  0.00    -0.002 A 
ATOM     30  C   UNL     1      -5.720   0.559  -1.750  0.00  0.00    +0.007 A 
ATOM     31  C   UNL     1      -6.955  -0.059  -1.817  0.00  0.00    +0.000 A 
ATOM     32  C   UNL     1      -7.668  -0.307  -0.659  0.00  0.00    +0.003 A 
ATOM     33  C   UNL     1      -7.146   0.058   0.567  0.00  0.00    +0.038 A 
ATOM     34  C   UNL     1      -5.906   0.671   0.636  0.00  0.00    +0.127 A 
ATOM     35  F   UNL     1      -5.394   1.029   1.834  0.00  0.00    -0.205 F 
ENDBRANCH  28  29
ENDBRANCH  27  28
ENDBRANCH   8  27
TORSDOF 7
