REMARK  Name = ZINC01002015
REMARK  9 active torsions:
REMARK  status: ('A' for Active; 'I' for Inactive)
REMARK    1  A    between atoms: C_1  and  C_2
REMARK    2  A    between atoms: C_7  and  N_8
REMARK    3  A    between atoms: C_9  and  C_11
REMARK    4  A    between atoms: C_11  and  O_12
REMARK    5  A    between atoms: O_12  and  C_13
REMARK    6  A    between atoms: C_18  and  C_19
REMARK    7  A    between atoms: N_20  and  N_21
REMARK    8  A    between atoms: N_21  and  C_22
REMARK    9  A    between atoms: C_22  and  N_24
REMARK                            x       y       z     vdW  Elec       q    Type
REMARK                         _______ _______ _______ _____ _____    ______ ____
ROOT
ATOM      1  C   UNL     1      -1.626   3.656   2.410  0.00  0.00    +0.130 A 
ATOM      2  C   UNL     1      -1.381   4.569   1.397  0.00  0.00    +0.047 A 
ATOM      3  C   UNL     1      -1.621   5.915   1.604  0.00  0.00    +0.019 A 
ATOM      4  C   UNL     1      -2.096   6.362   2.825  0.00  0.00    +0.019 A 
ATOM      5  C   UNL     1      -2.340   5.467   3.847  0.00  0.00    +0.028 A 
ATOM      6  C   UNL     1      -2.107   4.104   3.648  0.00  0.00    +0.037 A 
ATOM      7 BR   UNL     1      -2.412   8.207   3.095  0.00  0.00    -0.050 Br
ENDROOT
BRANCH   6   8
ATOM      8  C   UNL     1      -2.366   3.142   4.734  0.00  0.00    +0.142 C 
ATOM      9  N   UNL     1      -2.048   1.893   4.584  0.00  0.00    -0.188 NA
BRANCH   9  10
ATOM     10  N   UNL     1      -2.398   0.958   5.567  0.00  0.00    -0.219 N 
ATOM     11  H   UNL     1      -2.951   1.227   6.317  0.00  0.00    +0.176 HD
BRANCH  10  12
ATOM     12  C   UNL     1      -1.967  -0.316   5.470  0.00  0.00    +0.147 C 
ATOM     13  S   UNL     1      -2.505  -1.489   6.594  0.00  0.00    -0.017 S 
BRANCH  12  14
ATOM     14  N   UNL     1      -1.113  -0.665   4.488  0.00  0.00    -0.339 N 
ATOM     15  H   UNL     1      -0.749   0.014   3.898  0.00  0.00    +0.144 HD
ATOM     16  H   UNL     1      -0.861  -1.594   4.372  0.00  0.00    +0.144 HD
ENDBRANCH  12  14
ENDBRANCH  10  12
ENDBRANCH   9  10
ENDBRANCH   6   8
BRANCH   1  17
ATOM     17  O   UNL     1      -1.396   2.333   2.206  0.00  0.00    -0.482 OA
BRANCH  17  18
ATOM     18  C   UNL     1      -0.802   1.963   0.961  0.00  0.00    +0.324 C 
BRANCH  18  20
ATOM     19  N   UNL     1      -0.317  -0.121  -0.280  0.00  0.00    -0.282 N 
ATOM     20  C   UNL     1      -0.753   0.460   0.855  0.00  0.00    +0.255 C 
ATOM     21  O   UNL     1      -1.107  -0.226   1.790  0.00  0.00    -0.272 OA
ATOM     22  H   UNL     1       0.029   0.425  -1.003  0.00  0.00    +0.155 HD
BRANCH  19  29
ATOM     23  C   UNL     1      -0.847  -1.206  -2.857  0.00  0.00    +0.045 C 
ATOM     24  C   UNL     1      -0.617  -2.085  -1.654  0.00  0.00    -0.029 A 
ATOM     25  C   UNL     1      -0.661  -3.459  -1.784  0.00  0.00    +0.005 A 
ATOM     26  C   UNL     1      -0.450  -4.266  -0.681  0.00  0.00    +0.000 A 
ATOM     27  C   UNL     1      -0.194  -3.700   0.555  0.00  0.00    +0.002 A 
ATOM     28  C   UNL     1      -0.144  -2.327   0.690  0.00  0.00    +0.023 A 
ATOM     29  C   UNL     1      -0.361  -1.514  -0.415  0.00  0.00    +0.036 A 
ENDBRANCH  19  29
ENDBRANCH  18  20
ENDBRANCH  17  18
ENDBRANCH   1  17
TORSDOF 8
