REMARK  Name = ZINC22047728
REMARK  11 active torsions:
REMARK  status: ('A' for Active; 'I' for Inactive)
REMARK    1  A    between atoms: C_6  and  N_7
REMARK    2  A    between atoms: C_11  and  N_38
REMARK    3  A    between atoms: C_15  and  N_16
REMARK    4  A    between atoms: N_16  and  C_17
REMARK    5  A    between atoms: C_17  and  C_18
REMARK    6  A    between atoms: C_18  and  N_19
REMARK    7  A    between atoms: C_20  and  C_22
REMARK    8  A    between atoms: C_22  and  C_23
REMARK    9  A    between atoms: C_23  and  C_24
REMARK   10  A    between atoms: C_24  and  C_25
REMARK   11  A    between atoms: C_25  and  C_26
REMARK                            x       y       z     vdW  Elec       q    Type
REMARK                         _______ _______ _______ _____ _____    ______ ____
ROOT
ATOM      1  N   UNL     1      13.312   4.483  -4.119  0.00  0.00    -0.341 N 
ATOM      2  H   UNL     1      13.540   4.675  -3.060  0.00  0.00    +0.146 HD
ENDROOT
BRANCH   1  16
ATOM      3  C   UNL     1      15.626   1.128  -5.155  0.00  0.00    +0.023 A 
ATOM      4  C   UNL     1      14.868   2.197  -4.798  0.00  0.00    +0.013 A 
ATOM      5  C   UNL     1      14.932   3.382  -5.551  0.00  0.00    +0.020 A 
ATOM      6  C   UNL     1      15.816   3.444  -6.717  0.00  0.00    +0.050 A 
ATOM      7  C   UNL     1      16.575   2.306  -7.047  0.00  0.00    +0.049 A 
ATOM      8  C   UNL     1      16.479   1.177  -6.264  0.00  0.00    +0.027 A 
ATOM      9  N   UNL     1      15.904   4.556  -7.448  0.00  0.00    -0.354 N 
ATOM     10  C   UNL     1      15.194   5.645  -7.153  0.00  0.00    +0.050 A 
ATOM     11  C   UNL     1      15.303   6.808  -7.938  0.00  0.00    +0.049 A 
ATOM     12  C   UNL     1      14.559   7.919  -7.612  0.00  0.00    +0.027 A 
ATOM     13  C   UNL     1      13.692   7.920  -6.513  0.00  0.00    +0.023 A 
ATOM     14  C   UNL     1      13.550   6.824  -5.723  0.00  0.00    +0.013 A 
ATOM     15  C   UNL     1      14.284   5.659  -6.006  0.00  0.00    +0.020 A 
ATOM     16  C   UNL     1      14.159   4.507  -5.207  0.00  0.00    +0.046 A 
ATOM     17  H   UNL     1      16.575   4.590  -8.318  0.00  0.00    +0.166 HD
BRANCH   8  18
ATOM     18  N   UNL     1      17.238   0.055  -6.591  0.00  0.00    -0.358 N 
ATOM     19  H   UNL     1      17.912   0.081  -7.460  0.00  0.00    +0.142 HD
ATOM     20  H   UNL     1      17.163  -0.856  -5.979  0.00  0.00    +0.142 HD
ENDBRANCH   8  18
BRANCH  12  21
ATOM     21  N   UNL     1      14.670   9.068  -8.392  0.00  0.00    -0.358 N 
ATOM     22  H   UNL     1      14.081   9.962  -8.142  0.00  0.00    +0.142 HD
ATOM     23  H   UNL     1      15.348   9.080  -9.259  0.00  0.00    +0.142 HD
ENDBRANCH  12  21
ENDBRANCH   1  16
BRANCH   1  24
ATOM     24  C   UNL     1      11.942   4.147  -4.526  0.00  0.00    +0.120 C 
BRANCH  24  25
ATOM     25  C   UNL     1      11.061   4.003  -3.283  0.00  0.00    +0.123 C 
BRANCH  25  26
ATOM     26  N   UNL     1       9.694   3.667  -3.689  0.00  0.00    -0.314 N 
ATOM     27  C   UNL     1       8.738   3.491  -2.756  0.00  0.00    +0.213 C 
ATOM     28  O   UNL     1       9.009   3.610  -1.580  0.00  0.00    -0.276 OA
ATOM     29  H   UNL     1       9.448   3.559  -4.756  0.00  0.00    +0.149 HD
BRANCH  27  30
ATOM     30  C   UNL     1       7.332   3.146  -3.174  0.00  0.00    +0.096 C 
BRANCH  30  31
ATOM     31  C   UNL     1       6.451   3.002  -1.931  0.00  0.00    +0.009 C 
BRANCH  31  32
ATOM     32  C   UNL     1       5.024   2.651  -2.355  0.00  0.00    +0.002 C 
BRANCH  32  33
ATOM     33  C   UNL     1       4.143   2.507  -1.112  0.00  0.00    +0.016 C 
BRANCH  33  34
ATOM     34  C   UNL     1       2.716   2.157  -1.536  0.00  0.00    +0.069 C 
ATOM     35  C   UNL     1       1.802   1.967  -0.316  0.00  0.00    +0.108 C 
ATOM     36  C   UNL     1       0.812   0.806  -0.450  0.00  0.00    +0.105 C 
ATOM     37  C   UNL     1       0.923   0.059  -1.796  0.00  0.00    +0.093 C 
ATOM     38  S   UNL     1       2.646   0.481  -2.307  0.00  0.00    -0.154 S 
ATOM     39  N   UNL     1      -0.508   1.451  -0.366  0.00  0.00    -0.294 N 
ATOM     40  C   UNL     1      -0.340   2.771  -0.209  0.00  0.00    +0.300 C 
ATOM     41  O   UNL     1      -1.267   3.552  -0.116  0.00  0.00    -0.253 OA
ATOM     42  N   UNL     1       0.944   3.153  -0.170  0.00  0.00    -0.294 N 
ATOM     43  H   UNL     1      -1.422   0.844  -0.434  0.00  0.00    +0.151 HD
ATOM     44  H   UNL     1       1.397   4.149  -0.053  0.00  0.00    +0.151 HD
ENDBRANCH  33  34
ENDBRANCH  32  33
ENDBRANCH  31  32
ENDBRANCH  30  31
ENDBRANCH  27  30
ENDBRANCH  25  26
ENDBRANCH  24  25
ENDBRANCH   1  24
TORSDOF 11
