REMARK  Name = ZINC02288799
REMARK  4 active torsions:
REMARK  status: ('A' for Active; 'I' for Inactive)
REMARK    1  A    between atoms: C_8  and  C_11
REMARK    2  A    between atoms: C_11  and  S_12
REMARK    3  A    between atoms: S_12  and  C_13
REMARK    4  A    between atoms: C_19  and  N_23
REMARK                            x       y       z     vdW  Elec       q    Type
REMARK                         _______ _______ _______ _____ _____    ______ ____
ROOT
ATOM      1  C   UNL     1       2.557  -4.011  -1.459  0.00  0.00    +0.168 A 
ATOM      2  N   UNL     1       2.864  -4.910  -2.441  0.00  0.00    -0.333 N 
ATOM      3  H   UNL     1       2.802  -4.757  -3.427  0.00  0.00    +0.168 HD
ATOM      4  C   UNL     1       3.277  -6.075  -1.815  0.00  0.00    +0.067 A 
ATOM      5  C   UNL     1       3.708  -7.311  -2.272  0.00  0.00    +0.030 A 
ATOM      6  C   UNL     1       4.060  -8.293  -1.369  0.00  0.00    +0.035 A 
ATOM      7  C   UNL     1       3.987  -8.052  -0.005  0.00  0.00    +0.128 A 
ATOM      8  C   UNL     1       3.562  -6.830   0.467  0.00  0.00    +0.062 A 
ATOM      9  C   UNL     1       3.201  -5.825  -0.434  0.00  0.00    +0.092 A 
ATOM     10  N   UNL     1       2.761  -4.549  -0.282  0.00  0.00    -0.222 NA
ENDROOT
BRANCH   7  11
ATOM     11  N   UNL     1       4.368  -9.116   0.951  0.00  0.00    +0.056 N 
ATOM     12  O   UNL     1       4.305  -8.909   2.150  0.00  0.00    -0.126 OA
ATOM     13  O   UNL     1       4.745 -10.198   0.539  0.00  0.00    -0.126 OA
ENDBRANCH   7  11
BRANCH   1  14
ATOM     14  S   UNL     1       1.980  -2.369  -1.736  0.00  0.00    -0.082 S 
BRANCH  14  15
ATOM     15  C   UNL     1       1.797  -1.808  -0.024  0.00  0.00    +0.135 C 
BRANCH  15  23
ATOM     16  C   UNL     1       0.555   4.058   0.019  0.00  0.00    +0.005 A 
ATOM     17  C   UNL     1      -0.772   3.598   0.030  0.00  0.00    +0.018 A 
ATOM     18  C   UNL     1      -1.034   2.274   0.029  0.00  0.00    +0.094 A 
ATOM     19  N   UNL     1      -0.017   1.364   0.009  0.00  0.00    -0.294 N 
ATOM     20  C   UNL     1       1.290   1.783  -0.001  0.00  0.00    +0.139 A 
ATOM     21  C   UNL     1       1.579   3.162   0.004  0.00  0.00    +0.047 A 
ATOM     22  N   UNL     1       2.065   0.708  -0.014  0.00  0.00    -0.231 NA
ATOM     23  C   UNL     1       1.299  -0.386  -0.012  0.00  0.00    +0.085 A 
ATOM     24  C   UNL     1       0.002  -0.004   0.002  0.00  0.00    +0.113 A 
ATOM     25 BR   UNL     1      -1.504  -1.147   0.011  0.00  0.00    -0.028 Br
ENDBRANCH  15  23
ENDBRANCH  14  15
ENDBRANCH   1  14
TORSDOF 4
