REMARK  Name = ZINC39361524
REMARK  8 active torsions:
REMARK  status: ('A' for Active; 'I' for Inactive)
REMARK    1  A    between atoms: C_1  and  C_2
REMARK    2  A    between atoms: C_5  and  N_8
REMARK    3  A    between atoms: C_9  and  C_11
REMARK    4  A    between atoms: C_11  and  S_12
REMARK    5  A    between atoms: S_12  and  C_13
REMARK    6  A    between atoms: C_16  and  C_25
REMARK    7  A    between atoms: N_18  and  C_19
REMARK    8  A    between atoms: C_25  and  C_26
REMARK                            x       y       z     vdW  Elec       q    Type
REMARK                         _______ _______ _______ _____ _____    ______ ____
ROOT
ATOM      1  C   UNL     1       0.362  -8.754   2.653  0.00  0.00    +0.180 C 
ATOM      2  N   UNL     1       0.435  -9.347   1.510  0.00  0.00    -0.162 NA
ATOM      3  N   UNL     1       0.855 -10.675   1.646  0.00  0.00    -0.246 N 
ATOM      4  C   UNL     1       1.058 -10.895   3.089  0.00  0.00    +0.187 C 
ATOM      5  N   UNL     1       0.724  -9.596   3.695  0.00  0.00    -0.258 N 
ATOM      6  H   UNL     1       0.985 -11.322   0.934  0.00  0.00    +0.170 HD
ENDROOT
BRANCH   5   7
ATOM      7  C   UNL     1       0.761  -9.274   5.055  0.00  0.00    +0.037 A 
ATOM      8  C   UNL     1      -0.130  -9.874   5.936  0.00  0.00    +0.023 A 
ATOM      9  C   UNL     1      -0.090  -9.554   7.279  0.00  0.00    +0.002 A 
ATOM     10  C   UNL     1       0.835  -8.638   7.747  0.00  0.00    +0.000 A 
ATOM     11  C   UNL     1       1.722  -8.039   6.871  0.00  0.00    +0.002 A 
ATOM     12  C   UNL     1       1.692  -8.358   5.528  0.00  0.00    +0.023 A 
ENDBRANCH   5   7
BRANCH   1  13
ATOM     13  S   UNL     1      -0.132  -7.076   2.865  0.00  0.00    -0.079 S 
BRANCH  13  14
ATOM     14  C   UNL     1      -0.476  -6.503   1.179  0.00  0.00    +0.173 C 
BRANCH  14  16
ATOM     15  N   UNL     1      -1.224  -4.421   0.073  0.00  0.00    -0.285 N 
ATOM     16  C   UNL     1      -0.914  -5.061   1.218  0.00  0.00    +0.227 C 
ATOM     17  O   UNL     1      -0.987  -4.478   2.279  0.00  0.00    -0.275 OA
ATOM     18  H   UNL     1      -1.239  -4.907  -0.766  0.00  0.00    +0.155 HD
BRANCH  15  23
ATOM     19  C   UNL     1      -2.444   1.119   0.165  0.00  0.00    +0.044 C 
ATOM     20  C   UNL     1      -2.120  -0.352   0.141  0.00  0.00    -0.050 A 
ATOM     21  C   UNL     1      -1.199  -0.871   1.032  0.00  0.00    +0.005 A 
ATOM     22  C   UNL     1      -0.900  -2.219   1.012  0.00  0.00    +0.023 A 
ATOM     23  C   UNL     1      -1.526  -3.054   0.096  0.00  0.00    +0.033 A 
ATOM     24  C   UNL     1      -2.450  -2.531  -0.797  0.00  0.00    +0.023 A 
ATOM     25  C   UNL     1      -2.749  -1.183  -0.769  0.00  0.00    +0.005 A 
ENDBRANCH  15  23
ENDBRANCH  14  16
ENDBRANCH  13  14
ENDBRANCH   1  13
BRANCH   4  26
ATOM     26  C   UNL     1       2.516 -11.260   3.376  0.00  0.00    +0.097 C 
BRANCH  26  27
ATOM     27  C   UNL     1       2.863 -12.541   2.662  0.00  0.00    +0.029 A 
ATOM     28  N   UNL     1       2.580 -13.749   3.240  0.00  0.00    -0.311 N 
ATOM     29  C   UNL     1       2.885 -14.898   2.612  0.00  0.00    +0.327 A 
ATOM     30  O   UNL     1       2.625 -15.960   3.144  0.00  0.00    -0.247 OA
ATOM     31  N   UNL     1       3.474 -14.889   1.402  0.00  0.00    -0.275 N 
ATOM     32  C   UNL     1       3.770 -13.721   0.798  0.00  0.00    +0.254 A 
ATOM     33  O   UNL     1       4.303 -13.712  -0.297  0.00  0.00    -0.268 OA
ATOM     34  C   UNL     1       3.450 -12.504   1.446  0.00  0.00    +0.091 A 
ATOM     35  H   UNL     1       3.688 -15.728   0.962  0.00  0.00    +0.173 HD
ATOM     36  H   UNL     1       2.155 -13.776   4.112  0.00  0.00    +0.170 HD
ENDBRANCH  26  27
ENDBRANCH   4  26
TORSDOF 7
