REMARK  Name = ZINC66956376
REMARK  9 active torsions:
REMARK  status: ('A' for Active; 'I' for Inactive)
REMARK    1  A    between atoms: C_1  and  C_2
REMARK    2  A    between atoms: C_2  and  C_3
REMARK    3  A    between atoms: C_3  and  C_5
REMARK    4  A    between atoms: C_3  and  N_6
REMARK    5  A    between atoms: C_7  and  C_9
REMARK    6  A    between atoms: C_9  and  C_11
REMARK    7  A    between atoms: C_9  and  N_12
REMARK    8  A    between atoms: N_15  and  C_16
REMARK    9  A    between atoms: C_19  and  C_22
REMARK                            x       y       z     vdW  Elec       q    Type
REMARK                         _______ _______ _______ _____ _____    ______ ____
ROOT
ATOM      1  N   UNL     1      -5.586   0.342  -2.318  0.00  0.00    -0.288 N 
ATOM      2  C   UNL     1      -6.435   0.181  -3.352  0.00  0.00    +0.304 C 
ATOM      3  O   UNL     1      -6.002  -0.051  -4.464  0.00  0.00    -0.252 OA
ATOM      4  N   UNL     1      -7.765   0.278  -3.153  0.00  0.00    -0.269 N 
ATOM      5  H   UNL     1      -5.931   0.527  -1.431  0.00  0.00    +0.151 HD
ATOM      6  H   UNL     1      -8.114   0.397  -2.256  0.00  0.00    +0.156 HD
ENDROOT
BRANCH   4   7
ATOM      7  C   UNL     1      -8.641   0.206  -4.240  0.00  0.00    +0.035 A 
ATOM      8  C   UNL     1      -8.354  -0.636  -5.308  0.00  0.00    +0.024 A 
ATOM      9  C   UNL     1      -9.216  -0.709  -6.381  0.00  0.00    +0.013 A 
ATOM     10  C   UNL     1     -10.378   0.064  -6.395  0.00  0.00    +0.019 A 
ATOM     11  C   UNL     1     -10.664   0.909  -5.320  0.00  0.00    +0.013 A 
ATOM     12  C   UNL     1      -9.800   0.973  -4.248  0.00  0.00    +0.024 A 
BRANCH  10  13
ATOM     13  C   UNL     1     -11.304  -0.011  -7.545  0.00  0.00    +0.164 A 
ATOM     14  N   UNL     1     -12.245   0.858  -7.855  0.00  0.00    -0.129 NA
ATOM     15  N   UNL     1     -12.859   0.475  -8.921  0.00  0.00    -0.134 NA
ATOM     16  C   UNL     1     -12.352  -0.643  -9.346  0.00  0.00    +0.134 A 
ATOM     17  N   UNL     1     -11.347  -0.988  -8.491  0.00  0.00    -0.311 N 
ATOM     18  C   UNL     1     -10.517  -2.185  -8.616  0.00  0.00    +0.125 C 
ATOM     19  C   UNL     1     -11.212  -3.167  -9.567  0.00  0.00    +0.022 C 
ATOM     20  C   UNL     1     -11.606  -2.441 -10.856  0.00  0.00    +0.009 C 
ATOM     21  C   UNL     1     -12.746  -1.456 -10.553  0.00  0.00    +0.076 C 
ENDBRANCH  10  13
ENDBRANCH   4   7
BRANCH   1  22
ATOM     22  C   UNL     1      -4.141   0.237  -2.534  0.00  0.00    +0.157 C 
ATOM     23  C   UNL     1      -3.595   1.588  -3.002  0.00  0.00    +0.038 C 
BRANCH  22  25
ATOM     24  N   UNL     1      -2.129  -0.315  -1.204  0.00  0.00    -0.311 N 
ATOM     25  C   UNL     1      -3.467  -0.157  -1.245  0.00  0.00    +0.233 C 
ATOM     26  O   UNL     1      -4.129  -0.333  -0.244  0.00  0.00    -0.274 OA
ATOM     27  H   UNL     1      -1.600  -0.174  -2.005  0.00  0.00    +0.149 HD
BRANCH  24  28
ATOM     28  C   UNL     1      -1.475  -0.698   0.049  0.00  0.00    +0.070 C 
ATOM     29  C   UNL     1      -1.511  -2.220   0.198  0.00  0.00    +0.028 C 
BRANCH  28  31
ATOM     30  C   UNL     1       0.015   1.308   0.007  0.00  0.00    +0.005 C 
ATOM     31  C   UNL     1      -0.021  -0.222   0.031  0.00  0.00    +0.018 C 
ENDBRANCH  28  31
ENDBRANCH  24  28
ENDBRANCH  22  25
ENDBRANCH   1  22
TORSDOF 6
