REMARK  Name = ZINC54154965
REMARK  6 active torsions:
REMARK  status: ('A' for Active; 'I' for Inactive)
REMARK    1  A    between atoms: C_1  and  C_2
REMARK    2  A    between atoms: C_2  and  C_4
REMARK    3  A    between atoms: C_2  and  C_18
REMARK    4  A    between atoms: C_4  and  N_5
REMARK    5  A    between atoms: C_6  and  C_8
REMARK    6  A    between atoms: N_19  and  O_20
REMARK                            x       y       z     vdW  Elec       q    Type
REMARK                         _______ _______ _______ _____ _____    ______ ____
ROOT
ATOM      1  N   UNL     1      -0.055  -0.114  -2.441  0.00  0.00    -0.314 N 
ATOM      2  C   UNL     1       0.387  -0.445  -3.670  0.00  0.00    +0.219 C 
ATOM      3  O   UNL     1       1.424  -1.060  -3.797  0.00  0.00    -0.275 OA
ATOM      4  H   UNL     1      -0.885   0.378  -2.339  0.00  0.00    +0.149 HD
ENDROOT
BRANCH   2   5
ATOM      5  C   UNL     1      -0.409  -0.050  -4.888  0.00  0.00    +0.048 C 
ATOM      6  C   UNL     1      -1.801  -0.679  -4.814  0.00  0.00    +0.019 C 
ATOM      7  C   UNL     1      -2.609  -0.279  -6.050  0.00  0.00    -0.009 C 
ATOM      8  C   UNL     1      -1.893  -0.772  -7.309  0.00  0.00    +0.007 C 
ATOM      9  C   UNL     1      -0.500  -0.143  -7.383  0.00  0.00    -0.009 C 
ATOM     10  C   UNL     1       0.307  -0.543  -6.147  0.00  0.00    +0.019 C 
ATOM     11  C   UNL     1      -0.631   1.381  -7.435  0.00  0.00    +0.007 C 
ATOM     12  C   UNL     1      -1.347   1.874  -6.176  0.00  0.00    -0.009 C 
ATOM     13  C   UNL     1      -2.740   1.245  -6.102  0.00  0.00    +0.007 C 
ATOM     14  C   UNL     1      -0.540   1.473  -4.940  0.00  0.00    +0.019 C 
ENDBRANCH   2   5
BRANCH   1  15
ATOM     15  C   UNL     1       0.718  -0.497  -1.257  0.00  0.00    +0.115 C 
BRANCH  15  17
ATOM     16  C   UNL     1      -0.019   1.526   0.010  0.00  0.00    +0.017 C 
ATOM     17  C   UNL     1       0.002  -0.004   0.002  0.00  0.00    +0.069 C 
BRANCH  17  18
ATOM     18  C   UNL     1       0.731  -0.503   1.223  0.00  0.00    +0.136 C 
ATOM     19  N   UNL     1       1.609   0.246   1.802  0.00  0.00    -0.076 NA
ATOM     20  N   UNL     1       0.461  -1.758   1.721  0.00  0.00    -0.344 N 
ATOM     21  H   UNL     1      -0.199  -2.321   1.286  0.00  0.00    +0.144 HD
ATOM     22  H   UNL     1       0.930  -2.080   2.507  0.00  0.00    +0.144 HD
BRANCH  19  23
ATOM     23  O   UNL     1       2.294  -0.223   2.949  0.00  0.00    -0.408 OA
ATOM     24  H   UNL     1       2.931   0.408   3.312  0.00  0.00    +0.328 HD
ENDBRANCH  19  23
ENDBRANCH  17  18
ENDBRANCH  15  17
ENDBRANCH   1  15
TORSDOF 5
