REMARK  Name = ZINC58394569
REMARK  6 active torsions:
REMARK  status: ('A' for Active; 'I' for Inactive)
REMARK    1  A    between atoms: C_6  and  C_7
REMARK    2  A    between atoms: C_7  and  C_8
REMARK    3  A    between atoms: C_11  and  C_13
REMARK    4  A    between atoms: C_13  and  C_14
REMARK    5  A    between atoms: C_14  and  N_15
REMARK    6  A    between atoms: N_18  and  C_19
REMARK                            x       y       z     vdW  Elec       q    Type
REMARK                         _______ _______ _______ _____ _____    ______ ____
ROOT
ATOM      1  C   UNL     1       4.116   2.738  -4.058  0.00  0.00    +0.115 C 
ENDROOT
BRANCH   1   2
ATOM      2  N   UNL     1       4.820   2.137  -5.194  0.00  0.00    -0.299 N 
ATOM      3  C   UNL     1       5.454   2.924  -6.086  0.00  0.00    +0.300 C 
ATOM      4  O   UNL     1       5.442   4.132  -5.948  0.00  0.00    -0.253 OA
ATOM      5  N   UNL     1       6.101   2.371  -7.131  0.00  0.00    -0.294 N 
ATOM      6  H   UNL     1       4.829   1.174  -5.304  0.00  0.00    +0.150 HD
ATOM      7  H   UNL     1       6.111   1.407  -7.241  0.00  0.00    +0.151 HD
BRANCH   5   8
ATOM      8  C   UNL     1       6.791   3.226  -8.101  0.00  0.00    +0.037 C 
ATOM      9  C   UNL     1       5.783   4.176  -8.750  0.00  0.00    +0.029 C 
ATOM     10  C   UNL     1       6.503   5.069  -9.763  0.00  0.00    -0.008 C 
ATOM     11  C   UNL     1       7.151   4.197 -10.841  0.00  0.00    +0.007 C 
ATOM     12  C   UNL     1       8.159   3.248 -10.191  0.00  0.00    -0.008 C 
ATOM     13  C   UNL     1       7.439   2.355  -9.178  0.00  0.00    +0.029 C 
ATOM     14  C   UNL     1       9.239   4.062  -9.476  0.00  0.00    +0.007 C 
ATOM     15  C   UNL     1       8.591   4.933  -8.398  0.00  0.00    -0.008 C 
ATOM     16  C   UNL     1       7.583   5.883  -9.048  0.00  0.00    +0.007 C 
ATOM     17  C   UNL     1       7.871   4.040  -7.385  0.00  0.00    +0.029 C 
ENDBRANCH   5   8
ENDBRANCH   1   2
BRANCH   1  18
ATOM     18  C   UNL     1       3.488   1.633  -3.205  0.00  0.00    +0.114 C 
BRANCH  18  25
ATOM     19  C   UNL     1      -0.019   1.526   0.010  0.00  0.00    +0.023 C 
ATOM     20  C   UNL     1       1.420   2.052  -0.001  0.00  0.00    +0.108 C 
ATOM     21  N   UNL     1       2.130   1.465  -1.145  0.00  0.00    -0.301 N 
ATOM     22  C   UNL     1       2.135   0.004  -1.299  0.00  0.00    +0.108 C 
ATOM     23  C   UNL     1       0.688  -0.500  -1.273  0.00  0.00    +0.023 C 
ATOM     24  C   UNL     1       0.002  -0.004   0.002  0.00  0.00    +0.001 C 
ATOM     25  C   UNL     1       2.764   2.251  -2.037  0.00  0.00    +0.217 C 
ATOM     26  O   UNL     1       2.752   3.456  -1.899  0.00  0.00    -0.276 OA
BRANCH  24  27
ATOM     27  C   UNL     1      -1.433  -0.534   0.048  0.00  0.00    +0.099 C 
BRANCH  27  28
ATOM     28  C   UNL     1      -1.410  -2.036   0.163  0.00  0.00    +0.211 C 
ATOM     29  O   UNL     1      -0.351  -2.625   0.205  0.00  0.00    -0.276 OA
ATOM     30  N   UNL     1      -2.567  -2.725   0.220  0.00  0.00    -0.329 N 
ATOM     31  H   UNL     1      -3.414  -2.253   0.187  0.00  0.00    +0.145 HD
ATOM     32  H   UNL     1      -2.553  -3.692   0.295  0.00  0.00    +0.145 HD
ENDBRANCH  27  28
ENDBRANCH  24  27
ENDBRANCH  18  25
ENDBRANCH   1  18
TORSDOF 6
