REMARK  Name = ZINC43553761
REMARK  11 active torsions:
REMARK  status: ('A' for Active; 'I' for Inactive)
REMARK    1  A    between atoms: C_1  and  C_2
REMARK    2  A    between atoms: C_5  and  O_28
REMARK    3  A    between atoms: C_7  and  C_25
REMARK    4  A    between atoms: C_7  and  C_26
REMARK    5  A    between atoms: C_12  and  O_24
REMARK    6  A    between atoms: C_14  and  C_16
REMARK    7  A    between atoms: C_16  and  C_17
REMARK    8  A    between atoms: C_26  and  O_27
REMARK    9  A    between atoms: O_28  and  C_29
REMARK   10  A    between atoms: N_31  and  C_32
REMARK   11  A    between atoms: C_32  and  C_33
REMARK                            x       y       z     vdW  Elec       q    Type
REMARK                         _______ _______ _______ _____ _____    ______ ____
ROOT
ATOM      1  C   UNL     1       0.042   1.485  -0.350  0.00  0.00    +0.012 C 
ATOM      2  C   UNL     1      -0.125  -0.042  -0.294  0.00  0.00    -0.023 C 
ATOM      3  C   UNL     1      -1.595  -0.370  -0.564  0.00  0.00    +0.011 C 
ATOM      4  C   UNL     1      -2.459   0.200   0.562  0.00  0.00    +0.046 C 
ATOM      5  C   UNL     1      -2.081  -0.457   1.883  0.00  0.00    +0.186 C 
ATOM      6  C   UNL     1      -0.603  -0.269   2.218  0.00  0.00    +0.031 C 
ATOM      7  C   UNL     1       0.303  -0.606   1.050  0.00  0.00    +0.007 C 
ATOM      8  C   UNL     1       1.761  -0.241   1.331  0.00  0.00    +0.007 C 
ATOM      9  C   UNL     1       2.639  -0.879   0.247  0.00  0.00    +0.032 C 
ATOM     10  C   UNL     1       2.229  -0.373  -1.132  0.00  0.00    +0.119 C 
ATOM     11  C   UNL     1       0.750  -0.626  -1.409  0.00  0.00    +0.032 C 
ATOM     12  C   UNL     1      -0.368   1.142   2.758  0.00  0.00    +0.017 C 
ENDROOT
BRANCH  10  13
ATOM     13  O   UNL     1       3.009  -1.054  -2.127  0.00  0.00    -0.391 OA
ATOM     14  H   UNL     1       3.963  -0.919  -2.039  0.00  0.00    +0.210 HD
ENDBRANCH  10  13
BRANCH  11  15
ATOM     15  C   UNL     1       0.502  -2.120  -1.598  0.00  0.00    +0.102 C 
BRANCH  15  16
ATOM     16  C   UNL     1       1.099  -2.566  -2.908  0.00  0.00    +0.216 C 
ATOM     17  O   UNL     1       1.527  -1.745  -3.690  0.00  0.00    -0.276 OA
ATOM     18  N   UNL     1       1.155  -3.878  -3.210  0.00  0.00    -0.301 N 
ATOM     19  C   UNL     1       0.669  -4.975  -2.360  0.00  0.00    +0.108 C 
ATOM     20  C   UNL     1       0.967  -6.296  -3.101  0.00  0.00    +0.020 C 
ATOM     21  C   UNL     1       2.113  -5.900  -4.069  0.00  0.00    +0.020 C 
ATOM     22  C   UNL     1       1.710  -4.451  -4.450  0.00  0.00    +0.108 C 
ENDBRANCH  15  16
ENDBRANCH  11  15
BRANCH   6  23
ATOM     23  C   UNL     1      -0.284  -1.255   3.368  0.00  0.00    +0.166 C 
BRANCH  23  24
ATOM     24  O   UNL     1      -1.106  -0.951   4.497  0.00  0.00    -0.394 OA
ATOM     25  H   UNL     1      -0.960  -1.531   5.257  0.00  0.00    +0.209 HD
ENDBRANCH  23  24
ENDBRANCH   6  23
BRANCH   5  26
ATOM     26  O   UNL     1      -2.377  -1.856   1.824  0.00  0.00    -0.446 OA
BRANCH  26  27
ATOM     27  C   UNL     1      -3.606  -2.239   2.221  0.00  0.00    +0.401 C 
ATOM     28  O   UNL     1      -4.405  -1.409   2.607  0.00  0.00    -0.226 OA
ATOM     29  N   UNL     1      -3.949  -3.541   2.190  0.00  0.00    -0.278 N 
ATOM     30  H   UNL     1      -3.311  -4.204   1.882  0.00  0.00    +0.152 HD
BRANCH  29  31
ATOM     31  C   UNL     1      -5.286  -3.957   2.622  0.00  0.00    +0.134 C 
BRANCH  31  32
ATOM     32  C   UNL     1      -5.414  -5.453   2.491  0.00  0.00    -0.016 C 
ATOM     33  C   UNL     1      -5.766  -6.174   3.526  0.00  0.00    +0.005 C 
ENDBRANCH  31  32
ENDBRANCH  29  31
ENDBRANCH  26  27
ENDBRANCH   5  26
TORSDOF 9
