REMARK  Name = ZINC40538180
REMARK  12 active torsions:
REMARK  status: ('A' for Active; 'I' for Inactive)
REMARK    1  A    between atoms: C_1  and  C_2
REMARK    2  A    between atoms: C_10  and  O_38
REMARK    3  A    between atoms: C_20  and  C_24
REMARK    4  A    between atoms: C_20  and  C_36
REMARK    5  A    between atoms: C_21  and  O_23
REMARK    6  A    between atoms: C_24  and  C_25
REMARK    7  A    between atoms: C_25  and  C_26
REMARK    8  A    between atoms: C_26  and  C_27
REMARK    9  A    between atoms: C_27  and  N_28
REMARK   10  A    between atoms: N_28  and  C_29
REMARK   11  A    between atoms: C_29  and  C_30
REMARK   12  A    between atoms: C_36  and  O_37
REMARK                            x       y       z     vdW  Elec       q    Type
REMARK                         _______ _______ _______ _____ _____    ______ ____
ROOT
ATOM      1  C   UNL     1       0.242   1.990   0.202  0.00  0.00    +0.014 C 
ATOM      2  C   UNL     1       0.153   0.468   0.334  0.00  0.00    -0.002 C 
ATOM      3  C   UNL     1      -1.260   0.073   0.707  0.00  0.00    +0.010 C 
ATOM      4  C   UNL     1      -1.634   0.837   1.991  0.00  0.00    +0.009 C 
ATOM      5  C   UNL     1      -0.641   0.535   3.104  0.00  0.00    +0.023 C 
ATOM      6  C   UNL     1      -0.964   1.291   4.360  0.00  0.00    -0.041 A 
ATOM      7  C   UNL     1      -2.299   1.529   4.659  0.00  0.00    +0.008 A 
ATOM      8  C   UNL     1      -2.651   2.210   5.805  0.00  0.00    +0.046 A 
ATOM      9  C   UNL     1      -1.662   2.659   6.668  0.00  0.00    +0.117 A 
ATOM     10  C   UNL     1      -0.332   2.425   6.368  0.00  0.00    +0.049 A 
ATOM     11  C   UNL     1       0.023   1.745   5.210  0.00  0.00    -0.040 A 
ATOM     12  C   UNL     1       1.491   1.553   4.935  0.00  0.00    +0.036 C 
ATOM     13  C   UNL     1       1.720   0.506   3.845  0.00  0.00    +0.009 C 
ATOM     14  C   UNL     1       0.798   0.850   2.675  0.00  0.00    +0.000 C 
ATOM     15  C   UNL     1       1.102  -0.012   1.468  0.00  0.00    +0.002 C 
ATOM     16  C   UNL     1       2.477   0.180   0.819  0.00  0.00    +0.016 C 
ATOM     17  C   UNL     1       2.252  -0.327  -0.632  0.00  0.00    +0.021 C 
ATOM     18  C   UNL     1       0.734  -0.188  -0.913  0.00  0.00    +0.129 C 
ENDROOT
BRANCH  18  19
ATOM     19  O   UNL     1       0.516   0.640  -2.056  0.00  0.00    -0.391 OA
ATOM     20  H   UNL     1       0.865   0.273  -2.880  0.00  0.00    +0.210 HD
ENDBRANCH  18  19
BRANCH   9  21
ATOM     21  O   UNL     1      -1.998   3.326   7.804  0.00  0.00    -0.507 OA
ATOM     22  H   UNL     1      -2.131   2.753   8.571  0.00  0.00    +0.292 HD
ENDBRANCH   9  21
BRANCH  17  23
ATOM     23  C   UNL     1       3.049   0.530  -1.617  0.00  0.00    +0.011 C 
BRANCH  23  24
ATOM     24  C   UNL     1       4.518   0.564  -1.192  0.00  0.00    -0.001 C 
BRANCH  24  25
ATOM     25  C   UNL     1       5.290   1.522  -2.101  0.00  0.00    -0.019 C 
BRANCH  25  26
ATOM     26  C   UNL     1       6.759   1.556  -1.675  0.00  0.00    -0.082 C 
BRANCH  26  27
ATOM     27  N   UNL     1       7.501   2.476  -2.548  0.00  0.00    +0.383 N 
ATOM     28  H   UNL     1       7.435   2.159  -3.504  0.00  0.00    -0.085 HD
ATOM     29  H   UNL     1       7.108   3.402  -2.473  0.00  0.00    -0.085 HD
BRANCH  27  30
ATOM     30  C   UNL     1       8.912   2.508  -2.139  0.00  0.00    -0.026 C 
BRANCH  30  31
ATOM     31  C   UNL     1       9.673   3.452  -3.035  0.00  0.00    +0.024 A 
ATOM     32  C   UNL     1       9.872   4.760  -2.636  0.00  0.00    +0.021 A 
ATOM     33  C   UNL     1      10.573   5.620  -3.467  0.00  0.00    +0.003 A 
ATOM     34  C   UNL     1      11.050   5.129  -4.674  0.00  0.00    +0.020 A 
ATOM     35  C   UNL     1      10.811   3.809  -5.005  0.00  0.00    +0.111 A 
ATOM     36  N   UNL     1      10.145   3.018  -4.187  0.00  0.00    -0.262 NA
ENDBRANCH  30  31
ENDBRANCH  27  30
ENDBRANCH  26  27
ENDBRANCH  25  26
ENDBRANCH  24  25
ENDBRANCH  23  24
ENDBRANCH  17  23
BRANCH  17  37
ATOM     37  C   UNL     1       2.675  -1.793  -0.748  0.00  0.00    +0.165 C 
BRANCH  37  38
ATOM     38  O   UNL     1       4.031  -1.932  -0.318  0.00  0.00    -0.394 OA
ATOM     39  H   UNL     1       4.367  -2.838  -0.365  0.00  0.00    +0.209 HD
ENDBRANCH  37  38
ENDBRANCH  17  37
TORSDOF 11
