REMARK  Name = ZINC21559538
REMARK  8 active torsions:
REMARK  status: ('A' for Active; 'I' for Inactive)
REMARK    1  A    between atoms: C_1  and  C_2
REMARK    2  A    between atoms: C_2  and  C_25
REMARK    3  A    between atoms: N_5  and  C_9
REMARK    4  A    between atoms: C_9  and  C_10
REMARK    5  A    between atoms: C_10  and  C_12
REMARK    6  A    between atoms: C_10  and  O_24
REMARK    7  A    between atoms: C_12  and  O_13
REMARK    8  A    between atoms: O_13  and  C_14
REMARK                            x       y       z     vdW  Elec       q    Type
REMARK                         _______ _______ _______ _____ _____    ______ ____
ROOT
ATOM      1  C   UNL     1      12.694   5.042   0.781  0.00  0.00    +0.047 C 
ATOM      2  C   UNL     1      11.314   5.601   0.427  0.00  0.00    +0.135 C 
ATOM      3  C   UNL     1      10.221   4.670   0.912  0.00  0.00    +0.251 C 
ATOM      4  O   UNL     1       9.991   4.344   2.057  0.00  0.00    -0.272 OA
ATOM      5  N   UNL     1       9.558   4.279  -0.194  0.00  0.00    -0.221 N 
ATOM      6  C   UNL     1      10.078   4.825  -1.299  0.00  0.00    +0.310 C 
ATOM      7  O   UNL     1       9.652   4.618  -2.419  0.00  0.00    -0.252 OA
ATOM      8  N   UNL     1      11.122   5.630  -1.033  0.00  0.00    -0.281 N 
ATOM      9  H   UNL     1      11.785   6.241  -1.663  0.00  0.00    +0.152 HD
ENDROOT
BRANCH   2  10
ATOM     10  C   UNL     1      11.136   6.978   1.013  0.00  0.00    -0.012 A 
ATOM     11  C   UNL     1      10.548   7.129   2.255  0.00  0.00    +0.010 A 
ATOM     12  C   UNL     1      10.383   8.391   2.795  0.00  0.00    +0.050 A 
ATOM     13  C   UNL     1      10.806   9.509   2.092  0.00  0.00    +0.162 A 
ATOM     14  C   UNL     1      11.397   9.357   0.844  0.00  0.00    +0.162 A 
ATOM     15  C   UNL     1      11.565   8.088   0.309  0.00  0.00    +0.055 A 
ATOM     16  O   UNL     1      11.823  10.440   0.138  0.00  0.00    -0.485 OA
ATOM     17  C   UNL     1      11.306  11.713   0.539  0.00  0.00    +0.270 C 
ATOM     18  C   UNL     1      11.402  11.811   2.068  0.00  0.00    +0.270 C 
ATOM     19  O   UNL     1      10.632  10.745   2.634  0.00  0.00    -0.485 OA
ENDBRANCH   2  10
BRANCH   5  20
ATOM     20  C   UNL     1       8.413   3.365  -0.188  0.00  0.00    +0.152 C 
BRANCH  20  21
ATOM     21  C   UNL     1       7.119   4.169  -0.045  0.00  0.00    +0.170 C 
BRANCH  21  22
ATOM     22  O   UNL     1       7.148   4.905   1.179  0.00  0.00    -0.387 OA
ATOM     23  H   UNL     1       6.298   5.546   1.456  0.00  0.00    +0.210 HD
ENDBRANCH  21  22
BRANCH  21  24
ATOM     24  C   UNL     1       5.923   3.215  -0.038  0.00  0.00    +0.261 C 
BRANCH  24  25
ATOM     25  O   UNL     1       4.711   3.971  -0.023  0.00  0.00    -0.489 OA
BRANCH  25  26
ATOM     26  C   UNL     1       3.547   3.269  -0.015  0.00  0.00    +0.121 A 
ATOM     27  C   UNL     1       3.583   1.871  -0.023  0.00  0.00    +0.046 A 
ATOM     28  C   UNL     1       2.436   1.142  -0.015  0.00  0.00    +0.012 A 
ATOM     29  C   UNL     1       1.193   1.798   0.000  0.00  0.00    -0.018 A 
ATOM     30  C   UNL     1      -0.013   1.076   0.008  0.00  0.00    +0.008 A 
ATOM     31  C   UNL     1      -1.198   1.744   0.017  0.00  0.00    +0.001 A 
ATOM     32  C   UNL     1      -1.238   3.137   0.030  0.00  0.00    +0.001 A 
ATOM     33  C   UNL     1      -0.091   3.870   0.023  0.00  0.00    +0.008 A 
ATOM     34  C   UNL     1       1.153   3.215   0.008  0.00  0.00    -0.014 A 
ATOM     35  C   UNL     1       2.357   3.939  -0.001  0.00  0.00    +0.054 A 
ENDBRANCH  25  26
ENDBRANCH  24  25
ENDBRANCH  21  24
ENDBRANCH  20  21
ENDBRANCH   5  20
TORSDOF 7
