REMARK  Name = ZINC35325271
REMARK  3 active torsions:
REMARK  status: ('A' for Active; 'I' for Inactive)
REMARK    1  A    between atoms: C_1  and  N_2
REMARK    2  A    between atoms: C_12  and  C_21
REMARK    3  A    between atoms: C_13  and  C_19
REMARK                            x       y       z     vdW  Elec       q    Type
REMARK                         _______ _______ _______ _____ _____    ______ ____
ROOT
ATOM      1  C   UNL     1      -0.018   1.461   0.010  0.00  0.00    +0.138 C 
ATOM      2  N   UNL     1       0.002  -0.004   0.002  0.00  0.00    -0.273 N 
ATOM      3  C   UNL     1       0.008  -0.776  -1.161  0.00  0.00    +0.040 A 
ATOM      4  C   UNL     1      -0.004  -0.402  -2.503  0.00  0.00    +0.024 A 
ATOM      5  C   UNL     1       0.005  -1.363  -3.492  0.00  0.00    +0.002 A 
ATOM      6  C   UNL     1       0.025  -2.706  -3.160  0.00  0.00    +0.000 A 
ATOM      7  C   UNL     1       0.037  -3.087  -1.830  0.00  0.00    +0.006 A 
ATOM      8  C   UNL     1       0.028  -2.129  -0.841  0.00  0.00    -0.007 A 
ATOM      9  C   UNL     1       0.035  -2.199   0.664  0.00  0.00    +0.129 C 
ATOM     10  C   UNL     1       0.023  -0.760   1.115  0.00  0.00    +0.234 C 
ATOM     11  O   UNL     1       0.028  -0.362   2.261  0.00  0.00    -0.274 OA
ATOM     12  C   UNL     1       0.826  -3.264   1.415  0.00  0.00    +0.158 C 
ATOM     13  C   UNL     1      -0.719  -3.286   1.421  0.00  0.00    +0.181 C 
ATOM     14  C   UNL     1      -1.041  -4.584   0.710  0.00  0.00    +0.261 C 
ATOM     15  O   UNL     1      -2.157  -5.009   0.489  0.00  0.00    -0.272 OA
ATOM     16  N   UNL     1       0.095  -5.182   0.367  0.00  0.00    -0.167 NA
ATOM     17  C   UNL     1       1.184  -4.550   0.702  0.00  0.00    +0.109 C 
ATOM     18  N   UNL     1       2.439  -4.977   0.452  0.00  0.00    -0.347 N 
ATOM     19  H   UNL     1       3.198  -4.444   0.736  0.00  0.00    +0.143 HD
ATOM     20  H   UNL     1       2.582  -5.816  -0.012  0.00  0.00    +0.143 HD
ENDROOT
BRANCH  13  21
ATOM     21  C   UNL     1      -1.509  -2.931   2.611  0.00  0.00    +0.082 C 
ATOM     22  N   UNL     1      -2.119  -2.658   3.530  0.00  0.00    -0.195 NA
ENDBRANCH  13  21
BRANCH  12  23
ATOM     23  C   UNL     1       1.629  -2.883   2.587  0.00  0.00    +0.080 C 
ATOM     24  N   UNL     1       2.250  -2.589   3.493  0.00  0.00    -0.195 NA
ENDBRANCH  12  23
TORSDOF 2
