REMARK  Name = ZINC00627828
REMARK  15 active torsions:
REMARK  status: ('A' for Active; 'I' for Inactive)
REMARK    1  A    between atoms: C_1  and  C_2
REMARK    2  A    between atoms: C_2  and  O_3
REMARK    3  A    between atoms: O_3  and  C_4
REMARK    4  A    between atoms: C_6  and  C_14
REMARK    5  A    between atoms: C_9  and  O_10
REMARK    6  A    between atoms: O_10  and  C_11
REMARK    7  A    between atoms: C_11  and  C_13
REMARK    8  A    between atoms: C_21  and  C_38
REMARK    9  A    between atoms: C_22  and  C_33
REMARK   10  A    between atoms: C_23  and  C_25
REMARK   11  A    between atoms: C_28  and  O_31
REMARK   12  A    between atoms: O_31  and  C_32
REMARK   13  A    between atoms: C_33  and  O_35
REMARK   14  A    between atoms: O_35  and  C_36
REMARK   15  A    between atoms: C_36  and  C_37
REMARK                            x       y       z     vdW  Elec       q    Type
REMARK                         _______ _______ _______ _____ _____    ______ ____
ROOT
ATOM      1  C   UNL     1       4.840   1.205  -0.036  0.00  0.00    +0.028 C 
ATOM      2  C   UNL     1       6.015   1.867   0.119  0.00  0.00    +0.081 A 
ATOM      3  C   UNL     1       7.392   1.357   0.048  0.00  0.00    +0.268 A 
ATOM      4  O   UNL     1       7.613   0.181  -0.179  0.00  0.00    -0.266 OA
ATOM      5  N   UNL     1       8.395   2.224   0.235  0.00  0.00    -0.275 N 
ATOM      6  C   UNL     1       8.089   3.540   0.495  0.00  0.00    +0.178 A 
ATOM      7  N   UNL     1       8.984   4.473   0.700  0.00  0.00    -0.228 NA
ATOM      8  C   UNL     1      10.297   4.280   0.686  0.00  0.00    +0.053 C 
ATOM      9  C   UNL     1      10.814   3.038   0.445  0.00  0.00    +0.085 C 
ATOM     10  C   UNL     1       9.849   1.902   0.197  0.00  0.00    +0.162 C 
ATOM     11  C   UNL     1      11.225   5.440   0.938  0.00  0.00    +0.066 C 
ATOM     12  S   UNL     1       6.308   3.593   0.473  0.00  0.00    -0.046 S 
ENDROOT
BRANCH   1  15
ATOM     13  C   UNL     1       2.410   4.052  -0.287  0.00  0.00    +0.163 A 
ATOM     14  C   UNL     1       3.599   3.352  -0.216  0.00  0.00    +0.057 A 
ATOM     15  C   UNL     1       3.580   1.955  -0.117  0.00  0.00    -0.020 A 
ATOM     16  C   UNL     1       2.356   1.276  -0.101  0.00  0.00    +0.012 A 
ATOM     17  C   UNL     1       1.175   1.982  -0.177  0.00  0.00    +0.051 A 
ATOM     18  C   UNL     1       1.196   3.367  -0.270  0.00  0.00    +0.173 A 
BRANCH  13  19
ATOM     19  O   UNL     1       2.425   5.408  -0.379  0.00  0.00    -0.489 OA
BRANCH  19  21
ATOM     20  C   UNL     1       3.520   7.559  -0.498  0.00  0.00    +0.048 C 
ATOM     21  C   UNL     1       3.705   6.044  -0.390  0.00  0.00    +0.226 C 
ENDBRANCH  19  21
ENDBRANCH  13  19
BRANCH  18  22
ATOM     22  O   UNL     1       0.028   4.058  -0.345  0.00  0.00    -0.422 OA
BRANCH  22  23
ATOM     23  C   UNL     1      -0.393   4.413  -1.570  0.00  0.00    +0.309 C 
ATOM     24  O   UNL     1       0.302   4.195  -2.534  0.00  0.00    -0.251 OA
ATOM     25  C   UNL     1      -1.732   5.083  -1.742  0.00  0.00    +0.136 C 
ENDBRANCH  22  23
ENDBRANCH  18  22
ENDBRANCH   1  15
BRANCH  10  26
ATOM     26  C   UNL     1      10.114   0.835   1.228  0.00  0.00    -0.020 A 
ATOM     27  C   UNL     1       9.610   0.973   2.509  0.00  0.00    +0.009 A 
ATOM     28  C   UNL     1       9.847  -0.006   3.454  0.00  0.00    +0.046 A 
ATOM     29  C   UNL     1      10.601  -1.122   3.122  0.00  0.00    +0.120 A 
ATOM     30  C   UNL     1      11.111  -1.255   1.838  0.00  0.00    +0.046 A 
ATOM     31  C   UNL     1      10.866  -0.276   0.894  0.00  0.00    +0.009 A 
BRANCH  29  32
ATOM     32  O   UNL     1      10.840  -2.084   4.051  0.00  0.00    -0.495 OA
ATOM     33  C   UNL     1      10.284  -1.881   5.352  0.00  0.00    +0.277 C 
ENDBRANCH  29  32
ENDBRANCH  10  26
BRANCH   9  34
ATOM     34  C   UNL     1      12.202   2.824   0.428  0.00  0.00    +0.339 C 
ATOM     35  O   UNL     1      12.964   3.753   0.630  0.00  0.00    -0.245 OA
BRANCH  34  36
ATOM     36  O   UNL     1      12.692   1.589   0.188  0.00  0.00    -0.462 OA
BRANCH  36  37
ATOM     37  C   UNL     1      14.114   1.443   0.186  0.00  0.00    +0.229 C 
ATOM     38  C   UNL     1      14.477  -0.015  -0.102  0.00  0.00    +0.048 C 
ENDBRANCH  36  37
ENDBRANCH  34  36
ENDBRANCH   9  34
TORSDOF 10
