REMARK  Name = ZINC39658078
REMARK  7 active torsions:
REMARK  status: ('A' for Active; 'I' for Inactive)
REMARK    1  A    between atoms: C_1  and  C_2
REMARK    2  A    between atoms: C_2  and  C_3
REMARK    3  A    between atoms: C_3  and  C_5
REMARK    4  A    between atoms: C_3  and  C_11
REMARK    5  A    between atoms: C_15  and  C_24
REMARK    6  A    between atoms: N_26  and  C_27
REMARK    7  A    between atoms: C_30  and  C_33
REMARK                            x       y       z     vdW  Elec       q    Type
REMARK                         _______ _______ _______ _____ _____    ______ ____
ROOT
ATOM      1  C   UNL     1       2.817   0.007  -1.018  0.00  0.00    +0.223 C 
ATOM      2  O   UNL     1       3.856  -0.609  -1.136  0.00  0.00    -0.275 OA
ATOM      3  N   UNL     1       2.838   1.351  -0.923  0.00  0.00    -0.300 N 
ATOM      4  C   UNL     1       1.682   2.276  -0.870  0.00  0.00    +0.121 C 
ATOM      5  C   UNL     1       2.089   3.353   0.160  0.00  0.00    +0.100 C 
ATOM      6  C   UNL     1       3.627   3.324   0.171  0.00  0.00    -0.004 C 
ATOM      7  C   UNL     1       4.024   2.237  -0.839  0.00  0.00    +0.115 C 
ATOM      8  C   UNL     1       4.139   2.957   1.560  0.00  0.00    -0.010 C 
ATOM      9  C   UNL     1       5.670   2.991   1.559  0.00  0.00    -0.082 C 
ATOM     10  N   UNL     1       6.132   4.333   1.185  0.00  0.00    +0.379 N 
ATOM     11  C   UNL     1       5.713   4.641  -0.188  0.00  0.00    -0.082 C 
ATOM     12  C   UNL     1       4.184   4.677  -0.262  0.00  0.00    -0.010 C 
ATOM     13  H   UNL     1       5.735   5.012   1.817  0.00  0.00    -0.086 HD
ATOM     14  H   UNL     1       7.138   4.370   1.244  0.00  0.00    -0.086 HD
ENDROOT
BRANCH   5  15
ATOM     15  C   UNL     1       1.547   3.006   1.523  0.00  0.00    +0.218 C 
ATOM     16  O   UNL     1       1.382   1.845   1.833  0.00  0.00    -0.275 OA
ATOM     17  N   UNL     1       1.244   3.987   2.397  0.00  0.00    -0.312 N 
ATOM     18  H   UNL     1       1.307   4.916   2.124  0.00  0.00    +0.149 HD
BRANCH  17  19
ATOM     19  C   UNL     1       0.821   3.650   3.758  0.00  0.00    +0.073 C 
ATOM     20  C   UNL     1      -0.689   3.401   3.776  0.00  0.00    +0.023 C 
ATOM     21  C   UNL     1      -1.419   4.664   3.313  0.00  0.00    +0.016 C 
ATOM     22  C   UNL     1      -1.081   5.822   4.253  0.00  0.00    +0.102 C 
ATOM     23  C   UNL     1       0.428   6.071   4.235  0.00  0.00    +0.016 C 
ATOM     24  C   UNL     1       1.158   4.808   4.699  0.00  0.00    +0.023 C 
BRANCH  22  25
ATOM     25  C   UNL     1      -1.801   7.065   3.797  0.00  0.00    +0.359 C 
ATOM     26  O   UNL     1      -2.296   7.819   4.617  0.00  0.00    -0.246 OA
ATOM     27  O   UNL     1      -1.887   7.318   2.607  0.00  0.00    -0.246 OA
ENDBRANCH  22  25
ENDBRANCH  17  19
ENDBRANCH   5  15
BRANCH   1  28
ATOM     28  C   UNL     1       1.504  -0.731  -0.979  0.00  0.00    +0.105 C 
BRANCH  28  29
ATOM     29  C   UNL     1       0.993  -0.923  -2.384  0.00  0.00    -0.036 A 
ATOM     30  C   UNL     1       1.743  -1.635  -3.301  0.00  0.00    +0.004 A 
ATOM     31  C   UNL     1       1.275  -1.810  -4.589  0.00  0.00    +0.000 A 
ATOM     32  C   UNL     1       0.056  -1.274  -4.961  0.00  0.00    +0.000 A 
ATOM     33  C   UNL     1      -0.695  -0.563  -4.043  0.00  0.00    +0.000 A 
ATOM     34  C   UNL     1      -0.228  -0.391  -2.753  0.00  0.00    +0.004 A 
ENDBRANCH  28  29
BRANCH  28  36
ATOM     35  C   UNL     1       2.087  -1.902   1.150  0.00  0.00    +0.005 C 
ATOM     36  C   UNL     1       1.706  -2.097  -0.319  0.00  0.00    +0.014 C 
ENDBRANCH  28  36
ENDBRANCH   1  28
TORSDOF 6
