REMARK  Name = ZINC42404691
REMARK  8 active torsions:
REMARK  status: ('A' for Active; 'I' for Inactive)
REMARK    1  A    between atoms: C_1  and  C_2
REMARK    2  A    between atoms: C_2  and  C_3
REMARK    3  A    between atoms: C_2  and  C_4
REMARK    4  A    between atoms: C_2  and  C_5
REMARK    5  A    between atoms: C_9  and  C_24
REMARK    6  A    between atoms: C_11  and  N_14
REMARK    7  A    between atoms: C_19  and  C_21
REMARK    8  A    between atoms: C_24  and  N_25
REMARK                            x       y       z     vdW  Elec       q    Type
REMARK                         _______ _______ _______ _____ _____    ______ ____
ROOT
ATOM      1  C   UNL     1       0.877  -2.582  -2.238  0.00  0.00    -0.004 C 
ATOM      2  C   UNL     1       1.487  -3.835  -2.870  0.00  0.00    +0.004 C 
ATOM      3  C   UNL     1       2.245  -3.447  -4.141  0.00  0.00    +0.003 C 
ATOM      4  C   UNL     1       3.359  -2.459  -3.789  0.00  0.00    -0.011 C 
ATOM      5  C   UNL     1       2.750  -1.207  -3.157  0.00  0.00    +0.059 C 
ATOM      6  C   UNL     1       1.992  -1.595  -1.886  0.00  0.00    +0.023 C 
ENDROOT
BRANCH   5   7
ATOM      7  N   UNL     1       3.820  -0.259  -2.818  0.00  0.00    -0.288 NA
ATOM      8  C   UNL     1       5.021  -0.965  -2.356  0.00  0.00    +0.085 C 
ATOM      9  C   UNL     1       6.059   0.052  -1.876  0.00  0.00    +0.015 C 
ATOM     10  C   UNL     1       6.412   0.997  -3.029  0.00  0.00    +0.003 C 
ATOM     11  C   UNL     1       5.136   1.683  -3.524  0.00  0.00    +0.028 C 
ATOM     12  C   UNL     1       4.125   0.618  -3.956  0.00  0.00    +0.143 C 
BRANCH  12  13
ATOM     13  C   UNL     1       2.860   1.289  -4.426  0.00  0.00    +0.228 C 
ATOM     14  O   UNL     1       1.958   1.500  -3.643  0.00  0.00    -0.274 OA
ATOM     15  N   UNL     1       2.730   1.654  -5.717  0.00  0.00    -0.328 N 
ATOM     16  H   UNL     1       3.451   1.486  -6.343  0.00  0.00    +0.145 HD
ATOM     17  H   UNL     1       1.916   2.086  -6.019  0.00  0.00    +0.145 HD
ENDBRANCH  12  13
ENDBRANCH   5   7
BRANCH   1  19
ATOM     18  C   UNL     1      -0.490  -1.717  -0.334  0.00  0.00    +0.011 C 
ATOM     19  C   UNL     1       0.119  -2.970  -0.967  0.00  0.00    -0.035 C 
ATOM     20  C   UNL     1       1.085  -3.623   0.024  0.00  0.00    +0.011 C 
ATOM     21  C   UNL     1      -0.996  -3.957  -1.319  0.00  0.00    +0.011 C 
ENDBRANCH   1  19
BRANCH   4  22
ATOM     22  C   UNL     1       4.117  -2.072  -5.060  0.00  0.00    -0.081 C 
BRANCH  22  23
ATOM     23  N   UNL     1       4.630  -3.283  -5.713  0.00  0.00    +0.378 N 
ATOM     24  H   UNL     1       5.254  -3.766  -5.084  0.00  0.00    -0.090 HD
ATOM     25  H   UNL     1       3.859  -3.888  -5.953  0.00  0.00    -0.090 HD
ATOM     26  H   UNL     1       5.130  -3.027  -6.552  0.00  0.00    -0.090 HD
ENDBRANCH  22  23
ENDBRANCH   4  22
TORSDOF 5
