REMARK  Name = ZINC62874464
REMARK  4 active torsions:
REMARK  status: ('A' for Active; 'I' for Inactive)
REMARK    1  A    between atoms: C_1  and  C_2
REMARK    2  A    between atoms: C_2  and  C_3
REMARK    3  A    between atoms: C_3  and  C_4
REMARK    4  A    between atoms: C_4  and  C_19
REMARK                            x       y       z     vdW  Elec       q    Type
REMARK                         _______ _______ _______ _____ _____    ______ ____
ROOT
ATOM      1  C   UNL     1      -0.881  -2.972   0.231  0.00  0.00    +0.088 C 
ATOM      2  C   UNL     1      -2.381  -3.190   0.019  0.00  0.00    +0.021 C 
ATOM      3  C   UNL     1      -3.169  -2.187   0.865  0.00  0.00    +0.020 C 
ATOM      4  C   UNL     1      -2.852  -2.414   2.346  0.00  0.00    +0.109 C 
ATOM      5  N   UNL     1      -1.396  -2.350   2.534  0.00  0.00    -0.284 N 
ATOM      6  C   UNL     1      -0.538  -3.208   1.705  0.00  0.00    +0.127 C 
ATOM      7  C   UNL     1      -0.857  -1.519   3.448  0.00  0.00    +0.305 C 
ATOM      8  O   UNL     1       0.296  -1.151   3.330  0.00  0.00    -0.252 OA
ATOM      9  N   UNL     1      -1.597  -1.095   4.492  0.00  0.00    -0.287 N 
ATOM     10  C   UNL     1      -0.957  -0.252   5.522  0.00  0.00    +0.107 C 
ATOM     11  C   UNL     1      -1.889   0.892   5.959  0.00  0.00    -0.000 C 
ATOM     12  C   UNL     1      -2.610   1.444   4.749  0.00  0.00    -0.081 C 
ATOM     13  N   UNL     1      -3.899   0.770   4.606  0.00  0.00    +0.380 N 
ATOM     14  C   UNL     1      -3.866  -0.424   3.852  0.00  0.00    -0.063 C 
ATOM     15  C   UNL     1      -2.992  -1.478   4.560  0.00  0.00    +0.090 C 
ATOM     16  H   UNL     1      -4.249   0.555   5.527  0.00  0.00    -0.086 HD
ATOM     17  H   UNL     1      -4.544   1.408   4.165  0.00  0.00    -0.086 HD
ENDROOT
BRANCH   1  18
ATOM     18  C   UNL     1      -0.106  -3.938  -0.627  0.00  0.00    +0.364 C 
ATOM     19  O   UNL     1       1.113  -3.930  -0.605  0.00  0.00    -0.246 OA
ATOM     20  O   UNL     1      -0.698  -4.728  -1.344  0.00  0.00    -0.246 OA
ENDBRANCH   1  18
BRANCH   1  21
ATOM     21  C   UNL     1      -0.514  -1.538  -0.155  0.00  0.00    +0.019 C 
BRANCH  21  23
ATOM     22  C   UNL     1       1.352   0.115  -0.326  0.00  0.00    +0.004 C 
ATOM     23  C   UNL     1       0.985  -1.319   0.060  0.00  0.00    -0.002 C 
ENDBRANCH  21  23
ENDBRANCH   1  21
TORSDOF 3
