REMARK  Name = ZINC63665639
REMARK  8 active torsions:
REMARK  status: ('A' for Active; 'I' for Inactive)
REMARK    1  A    between atoms: C_1  and  C_2
REMARK    2  A    between atoms: N_5  and  C_8
REMARK    3  A    between atoms: C_8  and  C_9
REMARK    4  A    between atoms: C_9  and  C_10
REMARK    5  A    between atoms: C_10  and  N_11
REMARK    6  A    between atoms: C_12  and  C_14
REMARK    7  A    between atoms: C_16  and  S_19
REMARK    8  A    between atoms: S_19  and  N_22
REMARK                            x       y       z     vdW  Elec       q    Type
REMARK                         _______ _______ _______ _____ _____    ______ ____
ROOT
ATOM      1  N   UNL     1       3.577  -6.276   2.265  0.00  0.00    -0.311 N 
ATOM      2  C   UNL     1       3.852  -7.581   2.458  0.00  0.00    +0.245 C 
ATOM      3  O   UNL     1       3.402  -8.417   1.697  0.00  0.00    -0.270 OA
ATOM      4  H   UNL     1       3.936  -5.609   2.871  0.00  0.00    +0.149 HD
ENDROOT
BRANCH   2   5
ATOM      5  C   UNL     1       4.696  -7.995   3.590  0.00  0.00    +0.046 A 
ATOM      6  C   UNL     1       5.016  -9.383   3.826  0.00  0.00    +0.049 A 
ATOM      7  C   UNL     1       5.799  -9.629   4.895  0.00  0.00    +0.143 A 
ATOM      8  S   UNL     1       6.091  -8.007   5.564  0.00  0.00    -0.076 S 
ATOM      9  C   UNL     1       5.223  -7.077   4.471  0.00  0.00    +0.060 A 
BRANCH   7  10
ATOM     10  S   UNL     1       6.388 -11.181   5.487  0.00  0.00    +0.062 S 
ATOM     11  O   UNL     1       6.668 -11.009   6.869  0.00  0.00    -0.153 OA
ATOM     12  O   UNL     1       5.484 -12.168   5.010  0.00  0.00    -0.153 OA
BRANCH  10  13
ATOM     13  N   UNL     1       7.839 -11.469   4.742  0.00  0.00    -0.203 NA
ATOM     14  H   UNL     1       8.521 -11.990   5.194  0.00  0.00    +0.144 HD
ATOM     15  H   UNL     1       8.007 -11.118   3.854  0.00  0.00    +0.144 HD
ENDBRANCH  10  13
ENDBRANCH   7  10
ENDBRANCH   2   5
BRANCH   1  16
ATOM     16  C   UNL     1       2.736  -5.863   1.138  0.00  0.00    +0.102 C 
BRANCH  16  17
ATOM     17  C   UNL     1       2.582  -4.341   1.147  0.00  0.00    +0.000 C 
BRANCH  17  18
ATOM     18  C   UNL     1       1.704  -3.911  -0.029  0.00  0.00    -0.077 C 
BRANCH  18  23
ATOM     19  C   UNL     1      -0.019   1.526   0.010  0.00  0.00    +0.007 C 
ATOM     20  C   UNL     1       0.002  -0.004   0.002  0.00  0.00    -0.018 C 
ATOM     21  C   UNL     1       0.727  -0.499  -1.252  0.00  0.00    -0.016 C 
ATOM     22  C   UNL     1       0.814  -2.027  -1.215  0.00  0.00    -0.079 C 
ATOM     23  N   UNL     1       1.556  -2.449  -0.021  0.00  0.00    +0.380 N 
ATOM     24  C   UNL     1       0.829  -2.040   1.187  0.00  0.00    -0.079 C 
ATOM     25  C   UNL     1       0.743  -0.513   1.242  0.00  0.00    -0.016 C 
ATOM     26  H   UNL     1       2.469  -2.020  -0.024  0.00  0.00    -0.082 HD
ENDBRANCH  18  23
ENDBRANCH  17  18
ENDBRANCH  16  17
ENDBRANCH   1  16
TORSDOF 7
