REMARK  Name = ZINC02623455
REMARK  7 active torsions:
REMARK  status: ('A' for Active; 'I' for Inactive)
REMARK    1  A    between atoms: C_1  and  C_2
REMARK    2  A    between atoms: C_5  and  N_8
REMARK    3  A    between atoms: C_9  and  C_11
REMARK    4  A    between atoms: C_11  and  C_13
REMARK    5  A    between atoms: C_11  and  N_16
REMARK    6  A    between atoms: C_13  and  C_14
REMARK    7  A    between atoms: C_13  and  C_15
REMARK                            x       y       z     vdW  Elec       q    Type
REMARK                         _______ _______ _______ _____ _____    ______ ____
ROOT
ATOM      1  N   UNL     1       0.065   3.825   0.952  0.00  0.00    -0.311 N 
ATOM      2  C   UNL     1      -0.979   2.996   1.145  0.00  0.00    +0.234 C 
ATOM      3  O   UNL     1      -2.101   3.446   1.244  0.00  0.00    -0.274 OA
ATOM      4  H   UNL     1       0.969   3.474   0.945  0.00  0.00    +0.149 HD
ENDROOT
BRANCH   1   9
ATOM      5  C   UNL     1       3.168   5.408  -2.005  0.00  0.00    +0.007 C 
ATOM      6  C   UNL     1       1.977   5.857  -1.156  0.00  0.00    -0.014 C 
ATOM      7  C   UNL     1       2.274   5.590   0.321  0.00  0.00    +0.005 C 
ATOM      8  C   UNL     1       1.083   6.038   1.171  0.00  0.00    +0.022 C 
ATOM      9  C   UNL     1      -0.164   5.258   0.752  0.00  0.00    +0.073 C 
ATOM     10  C   UNL     1      -0.462   5.526  -0.725  0.00  0.00    +0.022 C 
ATOM     11  C   UNL     1       0.729   5.077  -1.574  0.00  0.00    +0.005 C 
ENDBRANCH   1   9
BRANCH   2  12
ATOM     12  C   UNL     1      -0.753   1.509   1.238  0.00  0.00    +0.163 C 
BRANCH  12  13
ATOM     13  N   UNL     1      -1.910   0.878   1.878  0.00  0.00    -0.288 N 
ATOM     14  H   UNL     1      -2.779   1.308   1.840  0.00  0.00    +0.151 HD
ATOM     15  C   UNL     1      -1.767  -0.298   2.520  0.00  0.00    +0.298 C 
ATOM     16  O   UNL     1      -0.678  -0.836   2.568  0.00  0.00    -0.253 OA
ATOM     17  N   UNL     1      -2.832  -0.878   3.109  0.00  0.00    -0.313 N 
ATOM     18  H   UNL     1      -3.701  -0.449   3.071  0.00  0.00    +0.146 HD
ATOM     19  H   UNL     1      -2.729  -1.725   3.571  0.00  0.00    +0.146 HD
ENDBRANCH  12  13
BRANCH  12  20
ATOM     20  C   UNL     1      -0.571   0.932  -0.167  0.00  0.00    +0.012 C 
ATOM     21  C   UNL     1      -1.848   1.153  -0.979  0.00  0.00    +0.009 C 
ATOM     22  C   UNL     1      -0.282  -0.568  -0.069  0.00  0.00    +0.009 C 
ENDBRANCH  12  20
ENDBRANCH   2  12
TORSDOF 4
