REMARK  Name = ZINC03885823
REMARK  6 active torsions:
REMARK  status: ('A' for Active; 'I' for Inactive)
REMARK    1  A    between atoms: C_6  and  N_7
REMARK    2  A    between atoms: N_7  and  S_8
REMARK    3  A    between atoms: S_8  and  C_11
REMARK    4  A    between atoms: C_13  and  N_19
REMARK    5  A    between atoms: C_16  and  N_17
REMARK    6  A    between atoms: N_17  and  N_18
REMARK                            x       y       z     vdW  Elec       q    Type
REMARK                         _______ _______ _______ _____ _____    ______ ____
ROOT
ATOM      1  C   UNL     1      -3.814   1.838   0.189  0.00  0.00    +0.133 A 
ATOM      2  C   UNL     1      -2.579   1.223   0.117  0.00  0.00    +0.063 A 
ATOM      3  C   UNL     1      -1.424   1.972   0.244  0.00  0.00    +0.128 A 
ATOM      4  C   UNL     1      -1.500   3.338   0.449  0.00  0.00    +0.034 A 
ATOM      5  C   UNL     1      -2.731   3.960   0.515  0.00  0.00    +0.028 A 
ATOM      6  C   UNL     1      -3.894   3.210   0.388  0.00  0.00    +0.068 A 
ENDROOT
BRANCH   1   7
ATOM      7  S   UNL     1      -5.285   0.883   0.026  0.00  0.00    +0.074 S 
ATOM      8  O   UNL     1      -4.876  -0.454  -0.228  0.00  0.00    -0.150 OA
ATOM      9  O   UNL     1      -6.117   1.228   1.126  0.00  0.00    -0.150 OA
BRANCH   7  10
ATOM     10  N   UNL     1      -6.062   1.408  -1.338  0.00  0.00    -0.216 N 
ATOM     11  H   UNL     1      -6.915   1.865  -1.266  0.00  0.00    +0.174 HD
BRANCH  10  17
ATOM     12  C   UNL     1      -4.143   1.466  -2.801  0.00  0.00    +0.026 A 
ATOM     13  C   UNL     1      -3.578   1.247  -4.042  0.00  0.00    +0.022 A 
ATOM     14  C   UNL     1      -4.354   0.769  -5.083  0.00  0.00    +0.041 A 
ATOM     15  C   UNL     1      -5.697   0.502  -4.882  0.00  0.00    +0.022 A 
ATOM     16  C   UNL     1      -6.266   0.713  -3.641  0.00  0.00    +0.026 A 
ATOM     17  C   UNL     1      -5.489   1.194  -2.595  0.00  0.00    +0.048 A 
ATOM     18 CL   UNL     1      -3.642   0.502  -6.644  0.00  0.00    -0.084 Cl
ENDBRANCH  10  17
ENDBRANCH   7  10
ENDBRANCH   1   7
BRANCH   3  19
ATOM     19  N   UNL     1      -0.102   1.310   0.167  0.00  0.00    +0.056 N 
ATOM     20  O   UNL     1      -0.033   0.107  -0.008  0.00  0.00    -0.126 OA
ATOM     21  O   UNL     1       0.916   1.969   0.274  0.00  0.00    -0.126 OA
ENDBRANCH   3  19
BRANCH   6  22
ATOM     22  N   UNL     1      -5.141   3.835   0.460  0.00  0.00    -0.281 N 
ATOM     23  H   UNL     1      -5.952   3.303   0.444  0.00  0.00    +0.166 HD
BRANCH  22  24
ATOM     24  N   UNL     1      -5.219   5.196   0.554  0.00  0.00    -0.256 NA
ATOM     25  H   UNL     1      -4.807   5.638  -0.254  0.00  0.00    +0.140 HD
ATOM     26  H   UNL     1      -6.174   5.495   0.683  0.00  0.00    +0.140 HD
ENDBRANCH  22  24
ENDBRANCH   6  22
TORSDOF 6
