REMARK  Name = ZINC18405716
REMARK  8 active torsions:
REMARK  status: ('A' for Active; 'I' for Inactive)
REMARK    1  A    between atoms: C_1  and  C_2
REMARK    2  A    between atoms: C_2  and  C_4
REMARK    3  A    between atoms: C_2  and  N_13
REMARK    4  A    between atoms: C_14  and  C_16
REMARK    5  A    between atoms: C_16  and  O_17
REMARK    6  A    between atoms: O_17  and  C_18
REMARK    7  A    between atoms: C_18  and  C_20
REMARK    8  A    between atoms: C_25  and  N_26
REMARK                            x       y       z     vdW  Elec       q    Type
REMARK                         _______ _______ _______ _____ _____    ______ ____
ROOT
ATOM      1  N   UNL     1       1.144   1.897   0.062  0.00  0.00    -0.303 N 
ATOM      2  C   UNL     1      -0.014   1.207   0.063  0.00  0.00    +0.251 C 
ATOM      3  O   UNL     1       0.002  -0.005   0.071  0.00  0.00    -0.272 OA
ATOM      4  H   UNL     1       1.131   2.867   0.055  0.00  0.00    +0.149 HD
ENDROOT
BRANCH   1   6
ATOM      5  C   UNL     1       2.802   0.832   1.510  0.00  0.00    +0.036 C 
ATOM      6  C   UNL     1       2.422   1.181   0.070  0.00  0.00    +0.136 C 
BRANCH   6   7
ATOM      7  C   UNL     1       3.491   2.056  -0.534  0.00  0.00    +0.126 A 
ATOM      8  C   UNL     1       4.462   1.626  -1.351  0.00  0.00    +0.055 A 
ATOM      9  C   UNL     1       5.263   2.808  -1.691  0.00  0.00    +0.020 A 
ATOM     10  C   UNL     1       6.389   3.029  -2.484  0.00  0.00    +0.011 A 
ATOM     11  C   UNL     1       6.908   4.289  -2.588  0.00  0.00    +0.001 A 
ATOM     12  C   UNL     1       6.323   5.349  -1.911  0.00  0.00    +0.004 A 
ATOM     13  C   UNL     1       5.210   5.150  -1.121  0.00  0.00    +0.047 A 
ATOM     14  C   UNL     1       4.666   3.877  -1.002  0.00  0.00    +0.135 A 
ATOM     15  O   UNL     1       3.612   3.378  -0.325  0.00  0.00    -0.458 OA
ENDBRANCH   6   7
ENDBRANCH   1   6
BRANCH   2  16
ATOM     16  C   UNL     1      -1.329   1.943   0.048  0.00  0.00    +0.328 C 
BRANCH  16  17
ATOM     17  O   UNL     1      -2.420   0.985   0.046  0.00  0.00    -0.452 OA
BRANCH  17  18
ATOM     18  C   UNL     1      -3.672   1.484   0.034  0.00  0.00    +0.341 C 
ATOM     19  O   UNL     1      -3.847   2.686   0.025  0.00  0.00    -0.245 OA
BRANCH  18  20
ATOM     20  C   UNL     1      -4.828   0.571   0.031  0.00  0.00    +0.081 A 
ATOM     21  C   UNL     1      -4.635  -0.809  -0.083  0.00  0.00    +0.017 A 
ATOM     22  C   UNL     1      -5.719  -1.658  -0.084  0.00  0.00    +0.002 A 
ATOM     23  C   UNL     1      -7.005  -1.152   0.027  0.00  0.00    +0.022 A 
ATOM     24  C   UNL     1      -7.214   0.208   0.140  0.00  0.00    +0.062 A 
ATOM     25  C   UNL     1      -6.131   1.080   0.149  0.00  0.00    +0.057 A 
ATOM     26 CL   UNL     1      -8.829   0.829   0.279  0.00  0.00    -0.082 Cl
BRANCH  25  27
ATOM     27  N   UNL     1      -6.337   2.449   0.268  0.00  0.00    -0.356 N 
ATOM     28  H   UNL     1      -7.182   2.837  -0.006  0.00  0.00    +0.142 HD
ATOM     29  H   UNL     1      -5.636   3.016   0.625  0.00  0.00    +0.142 HD
ENDBRANCH  25  27
ENDBRANCH  18  20
ENDBRANCH  17  18
ENDBRANCH  16  17
ENDBRANCH   2  16
TORSDOF 7
