REMARK  Name = ZINC42996948
REMARK  10 active torsions:
REMARK  status: ('A' for Active; 'I' for Inactive)
REMARK    1  A    between atoms: C_1  and  C_2
REMARK    2  A    between atoms: C_5  and  C_27
REMARK    3  A    between atoms: C_10  and  C_12
REMARK    4  A    between atoms: C_12  and  C_14
REMARK    5  A    between atoms: C_12  and  S_17
REMARK    6  A    between atoms: C_14  and  C_15
REMARK    7  A    between atoms: C_14  and  C_16
REMARK    8  A    between atoms: S_17  and  C_18
REMARK    9  A    between atoms: C_21  and  C_25
REMARK   10  A    between atoms: C_22  and  N_24
REMARK                            x       y       z     vdW  Elec       q    Type
REMARK                         _______ _______ _______ _____ _____    ______ ____
ROOT
ATOM      1  C   UNL     1       3.192  -2.120   1.345  0.00  0.00    +0.143 C 
ENDROOT
BRANCH   1   9
ATOM      2  C   UNL     1      -0.656   0.960   0.704  0.00  0.00    +0.009 C 
ATOM      3  C   UNL     1      -0.383  -0.541   0.590  0.00  0.00    +0.004 C 
ATOM      4  C   UNL     1      -1.693  -1.313   0.765  0.00  0.00    +0.009 C 
ATOM      5  C   UNL     1      -1.426  -2.813   0.618  0.00  0.00    +0.004 C 
ATOM      6  C   UNL     1      -0.450  -3.263   1.709  0.00  0.00    +0.111 C 
ATOM      7  N   UNL     1       0.756  -2.427   1.640  0.00  0.00    -0.300 N 
ATOM      8  C   UNL     1       0.606  -0.966   1.680  0.00  0.00    +0.111 C 
ATOM      9  C   UNL     1       1.977  -2.989   1.541  0.00  0.00    +0.229 C 
ATOM     10  O   UNL     1       2.097  -4.194   1.609  0.00  0.00    -0.274 OA
ATOM     11  C   UNL     1      -0.819  -3.091  -0.758  0.00  0.00    +0.009 C 
ENDBRANCH   1   9
BRANCH   1  12
ATOM     12  C   UNL     1       3.682  -1.614   2.703  0.00  0.00    +0.005 C 
ATOM     13  C   UNL     1       4.061  -2.805   3.585  0.00  0.00    +0.009 C 
ATOM     14  C   UNL     1       4.905  -0.717   2.502  0.00  0.00    +0.009 C 
ENDBRANCH   1  12
BRANCH   1  15
ATOM     15  S   UNL     1       4.506  -3.088   0.551  0.00  0.00    -0.073 S 
BRANCH  15  16
ATOM     16  C   UNL     1       3.866  -3.440  -1.052  0.00  0.00    +0.191 A 
ATOM     17  N   UNL     1       2.700  -2.916  -1.409  0.00  0.00    -0.229 NA
ATOM     18  C   UNL     1       2.181  -3.152  -2.600  0.00  0.00    +0.136 A 
ATOM     19  C   UNL     1       2.880  -3.970  -3.496  0.00  0.00    +0.109 A 
ATOM     20  C   UNL     1       4.117  -4.508  -3.081  0.00  0.00    +0.138 A 
ATOM     21  N   UNL     1       4.567  -4.215  -1.867  0.00  0.00    -0.206 NA
BRANCH  20  22
ATOM     22  N   UNL     1       4.847  -5.321  -3.924  0.00  0.00    -0.342 N 
ATOM     23  H   UNL     1       4.512  -5.527  -4.811  0.00  0.00    +0.144 HD
ATOM     24  H   UNL     1       5.696  -5.687  -3.630  0.00  0.00    +0.144 HD
ENDBRANCH  20  22
BRANCH  19  25
ATOM     25  C   UNL     1       2.354  -4.252  -4.798  0.00  0.00    +0.104 C 
ATOM     26  N   UNL     1       1.936  -4.476  -5.830  0.00  0.00    -0.191 NA
ENDBRANCH  19  25
ENDBRANCH  15  16
ENDBRANCH   1  15
TORSDOF 6
