REMARK  Name = ZINC63738581
REMARK  9 active torsions:
REMARK  status: ('A' for Active; 'I' for Inactive)
REMARK    1  A    between atoms: C_1  and  C_2
REMARK    2  A    between atoms: C_2  and  C_30
REMARK    3  A    between atoms: C_8  and  O_11
REMARK    4  A    between atoms: O_11  and  C_12
REMARK    5  A    between atoms: C_12  and  C_13
REMARK    6  A    between atoms: C_13  and  N_15
REMARK    7  A    between atoms: C_19  and  C_22
REMARK    8  A    between atoms: C_27  and  O_28
REMARK    9  A    between atoms: O_28  and  C_29
REMARK                            x       y       z     vdW  Elec       q    Type
REMARK                         _______ _______ _______ _____ _____    ______ ____
ROOT
ATOM      1  N   UNL     1       4.810  -0.903   6.144  0.00  0.00    -0.143 NA
ATOM      2  C   UNL     1       4.500  -0.839   7.440  0.00  0.00    +0.216 A 
ATOM      3  N   UNL     1       3.256  -0.679   7.963  0.00  0.00    -0.309 N 
ATOM      4  H   UNL     1       2.433  -0.591   7.457  0.00  0.00    +0.170 HD
ATOM      5  C   UNL     1       3.366  -0.664   9.337  0.00  0.00    +0.164 A 
ATOM      6  N   UNL     1       4.623  -0.808   9.656  0.00  0.00    -0.153 NA
ATOM      7  N   UNL     1       5.365  -0.926   8.474  0.00  0.00    -0.246 N 
ATOM      8  H   UNL     1       6.325  -1.048   8.409  0.00  0.00    +0.192 HD
ENDROOT
BRANCH   5   9
ATOM      9  C   UNL     1       2.246  -0.511  10.290  0.00  0.00    +0.061 A 
ATOM     10  C   UNL     1       0.940  -0.370   9.821  0.00  0.00    +0.015 A 
ATOM     11  C   UNL     1      -0.101  -0.228  10.715  0.00  0.00    +0.001 A 
ATOM     12  C   UNL     1       0.145  -0.224  12.077  0.00  0.00    +0.004 A 
ATOM     13  C   UNL     1       1.435  -0.362  12.554  0.00  0.00    +0.046 A 
ATOM     14  C   UNL     1       2.490  -0.512  11.668  0.00  0.00    +0.131 A 
BRANCH  14  15
ATOM     15  O   UNL     1       3.757  -0.654  12.136  0.00  0.00    -0.494 OA
ATOM     16  C   UNL     1       3.930  -0.645  13.554  0.00  0.00    +0.277 C 
ENDBRANCH  14  15
ENDBRANCH   5   9
BRANCH   1  17
ATOM     17  C   UNL     1       3.855  -0.802   5.228  0.00  0.00    +0.277 C 
ATOM     18  O   UNL     1       2.698  -0.651   5.570  0.00  0.00    -0.270 OA
BRANCH  17  19
ATOM     19  C   UNL     1       4.205  -0.874   3.764  0.00  0.00    +0.327 C 
BRANCH  19  20
ATOM     20  O   UNL     1       3.016  -0.742   2.983  0.00  0.00    -0.479 OA
BRANCH  20  28
ATOM     21  C   UNL     1      -0.019   1.526   0.010  0.00  0.00    +0.056 C 
ATOM     22  C   UNL     1       0.002  -0.004   0.002  0.00  0.00    +0.109 C 
ATOM     23  C   UNL     1       0.832  -0.534  -1.191  0.00  0.00    +0.086 C 
ATOM     24  C   UNL     1       2.204  -0.704  -0.568  0.00  0.00    +0.002 A 
ATOM     25  C   UNL     1       3.456  -0.875  -1.120  0.00  0.00    +0.007 A 
ATOM     26  C   UNL     1       4.564  -1.000  -0.301  0.00  0.00    +0.004 A 
ATOM     27  C   UNL     1       4.412  -0.953   1.073  0.00  0.00    +0.049 A 
ATOM     28  C   UNL     1       3.157  -0.786   1.631  0.00  0.00    +0.163 A 
ATOM     29  C   UNL     1       2.034  -0.662   0.808  0.00  0.00    +0.166 A 
ATOM     30  O   UNL     1       0.721  -0.510   1.139  0.00  0.00    -0.482 OA
ATOM     31  C   UNL     1      -1.422  -0.563  -0.032  0.00  0.00    +0.056 C 
ENDBRANCH  20  28
ENDBRANCH  19  20
ENDBRANCH  17  19
ENDBRANCH   1  17
TORSDOF 6
