REMARK  Name = ZINC05864514
REMARK  6 active torsions:
REMARK  status: ('A' for Active; 'I' for Inactive)
REMARK    1  A    between atoms: C_1  and  C_2
REMARK    2  A    between atoms: C_2  and  C_26
REMARK    3  A    between atoms: C_13  and  C_15
REMARK    4  A    between atoms: C_15  and  O_16
REMARK    5  A    between atoms: O_16  and  C_17
REMARK    6  A    between atoms: C_20  and  N_23
REMARK                            x       y       z     vdW  Elec       q    Type
REMARK                         _______ _______ _______ _____ _____    ______ ____
ROOT
ATOM      1  C   UNL     1      -1.627   3.042   1.888  0.00  0.00    +0.042 C 
ATOM      2  C   UNL     1      -1.207   3.443   0.472  0.00  0.00    +0.113 C 
ATOM      3  C   UNL     1       0.080   4.226   0.530  0.00  0.00    +0.241 C 
ATOM      4  O   UNL     1       0.043   5.431   0.657  0.00  0.00    -0.273 OA
ATOM      5  N   UNL     1       1.270   3.602   0.443  0.00  0.00    -0.282 N 
ATOM      6  C   UNL     1       1.340   2.219   0.245  0.00  0.00    +0.055 A 
ATOM      7  C   UNL     1       2.528   1.534   0.440  0.00  0.00    +0.025 A 
ATOM      8  C   UNL     1       2.578   0.168   0.229  0.00  0.00    +0.002 A 
ATOM      9  C   UNL     1       1.447  -0.519  -0.175  0.00  0.00    +0.002 A 
ATOM     10  C   UNL     1       0.256   0.157  -0.370  0.00  0.00    +0.025 A 
ATOM     11  C   UNL     1       0.199   1.523  -0.159  0.00  0.00    +0.059 A 
ATOM     12  N   UNL     1      -0.997   2.235  -0.339  0.00  0.00    -0.253 N 
ATOM     13  C   UNL     1      -1.924   1.824  -1.227  0.00  0.00    +0.258 C 
ATOM     14  O   UNL     1      -1.684   0.893  -1.967  0.00  0.00    -0.271 OA
ATOM     15  C   UNL     1      -2.301   4.303  -0.164  0.00  0.00    +0.042 C 
ATOM     16  H   UNL     1       2.088   4.118   0.517  0.00  0.00    +0.155 HD
ENDROOT
BRANCH  13  17
ATOM     17  C   UNL     1      -3.257   2.522  -1.302  0.00  0.00    +0.325 C 
BRANCH  17  18
ATOM     18  O   UNL     1      -4.121   1.807  -2.188  0.00  0.00    -0.483 OA
BRANCH  18  19
ATOM     19  C   UNL     1      -5.371   2.307  -2.368  0.00  0.00    +0.121 A 
ATOM     20  C   UNL     1      -5.761   3.459  -1.702  0.00  0.00    +0.048 A 
ATOM     21  C   UNL     1      -7.032   3.968  -1.891  0.00  0.00    +0.036 A 
ATOM     22  C   UNL     1      -7.918   3.324  -2.735  0.00  0.00    +0.126 A 
ATOM     23  C   UNL     1      -7.533   2.173  -3.396  0.00  0.00    +0.036 A 
ATOM     24  C   UNL     1      -6.262   1.663  -3.215  0.00  0.00    +0.048 A 
BRANCH  22  25
ATOM     25  N   UNL     1      -9.280   3.869  -2.931  0.00  0.00    +0.056 N 
ATOM     26  O   UNL     1     -10.060   3.303  -3.675  0.00  0.00    -0.126 OA
ATOM     27  O   UNL     1      -9.620   4.884  -2.349  0.00  0.00    -0.126 OA
ENDBRANCH  22  25
ENDBRANCH  18  19
ENDBRANCH  17  18
ENDBRANCH  13  17
TORSDOF 4
