REMARK  Name = ZINC01390667
REMARK  2 active torsions:
REMARK  status: ('A' for Active; 'I' for Inactive)
REMARK    1  A    between atoms: C_1  and  C_2
REMARK    2  A    between atoms: C_13  and  C_16
REMARK                            x       y       z     vdW  Elec       q    Type
REMARK                         _______ _______ _______ _____ _____    ______ ____
ROOT
ATOM      1  C   UNL     1      -0.018   1.503   0.010  0.00  0.00    +0.066 C 
ATOM      2  C   UNL     1       0.002  -0.004   0.002  0.00  0.00    +0.047 A 
ATOM      3  C   UNL     1      -1.171  -0.701   0.004  0.00  0.00    +0.093 A 
ATOM      4  C   UNL     1      -1.125  -2.108  -0.005  0.00  0.00    +0.253 A 
ATOM      5  O   UNL     1      -2.154  -2.763  -0.004  0.00  0.00    -0.268 OA
ATOM      6  N   UNL     1       0.080  -2.717  -0.014  0.00  0.00    -0.293 N 
ATOM      7  C   UNL     1       1.216  -1.968  -0.015  0.00  0.00    +0.225 A 
ATOM      8  N   UNL     1       1.165  -0.653  -0.013  0.00  0.00    -0.219 NA
ATOM      9  N   UNL     1       2.442  -2.598  -0.025  0.00  0.00    -0.126 N 
ATOM     10  C   UNL     1       3.628  -1.956  -0.027  0.00  0.00    +0.248 C 
ATOM     11  O   UNL     1       3.815  -0.758  -0.022  0.00  0.00    -0.273 OA
ATOM     12  C   UNL     1       4.677  -3.051  -0.038  0.00  0.00    +0.155 C 
ATOM     13  C   UNL     1       3.862  -4.327  -0.041  0.00  0.00    +0.076 C 
ATOM     14  N   UNL     1       2.615  -3.979  -0.028  0.00  0.00    -0.174 NA
ATOM     15  H   UNL     1       0.135  -3.685  -0.019  0.00  0.00    +0.172 HD
ENDROOT
BRANCH  13  16
ATOM     16  C   UNL     1       4.388  -5.705  -0.051  0.00  0.00    -0.002 A 
ATOM     17  C   UNL     1       5.767  -5.929  -0.053  0.00  0.00    +0.010 A 
ATOM     18  C   UNL     1       6.252  -7.220  -0.062  0.00  0.00    +0.001 A 
ATOM     19  C   UNL     1       5.377  -8.292  -0.069  0.00  0.00    +0.000 A 
ATOM     20  C   UNL     1       4.010  -8.077  -0.067  0.00  0.00    +0.001 A 
ATOM     21  C   UNL     1       3.510  -6.792  -0.052  0.00  0.00    +0.010 A 
ENDBRANCH  13  16
TORSDOF 1
