REMARK  Name = ZINC35167781
REMARK  11 active torsions:
REMARK  status: ('A' for Active; 'I' for Inactive)
REMARK    1  A    between atoms: C_1  and  C_2
REMARK    2  A    between atoms: N_8  and  C_9
REMARK    3  A    between atoms: C_9  and  C_10
REMARK    4  A    between atoms: N_22  and  C_25
REMARK    5  A    between atoms: C_25  and  C_26
REMARK    6  A    between atoms: C_26  and  C_27
REMARK    7  A    between atoms: C_26  and  C_28
REMARK    8  A    between atoms: C_29  and  C_33
REMARK    9  A    between atoms: C_30  and  N_32
REMARK   10  A    between atoms: C_33  and  O_35
REMARK   11  A    between atoms: O_35  and  C_36
REMARK                            x       y       z     vdW  Elec       q    Type
REMARK                         _______ _______ _______ _____ _____    ______ ____
ROOT
ATOM      1  C   UNL     1      -0.732   1.545  -0.479  0.00  0.00    +0.064 C 
ATOM      2  C   UNL     1      -0.617   0.047  -0.356  0.00  0.00    +0.023 A 
ATOM      3  C   UNL     1      -0.603  -0.713  -1.472  0.00  0.00    +0.068 A 
ATOM      4  C   UNL     1      -0.495  -2.115  -1.364  0.00  0.00    +0.142 A 
ATOM      5  C   UNL     1      -0.405  -2.682  -0.110  0.00  0.00    +0.083 A 
ATOM      6  C   UNL     1      -0.425  -1.854   1.019  0.00  0.00    +0.260 A 
ATOM      7  O   UNL     1      -0.346  -2.342   2.135  0.00  0.00    -0.267 OA
ATOM      8  N   UNL     1      -0.525  -0.519   0.875  0.00  0.00    -0.305 N 
ATOM      9  C   UNL     1      -0.286  -4.171   0.048  0.00  0.00    +0.144 C 
ATOM     10  C   UNL     1      -1.554  -4.755   0.590  0.00  0.00    -0.002 A 
ATOM     11  C   UNL     1      -2.836  -4.778   0.085  0.00  0.00    +0.007 A 
ATOM     12  C   UNL     1      -3.805  -5.414   0.853  0.00  0.00    +0.000 A 
ATOM     13  C   UNL     1      -3.494  -5.994   2.066  0.00  0.00    +0.002 A 
ATOM     14  C   UNL     1      -2.207  -5.974   2.580  0.00  0.00    +0.024 A 
ATOM     15  C   UNL     1      -1.225  -5.339   1.818  0.00  0.00    +0.041 A 
ATOM     16  N   UNL     1       0.122  -5.171   2.085  0.00  0.00    -0.270 N 
ATOM     17  C   UNL     1       0.753  -4.497   1.102  0.00  0.00    +0.240 C 
ATOM     18  O   UNL     1       1.930  -4.206   1.067  0.00  0.00    -0.274 OA
ATOM     19  C   UNL     1       0.089  -4.815  -1.256  0.00  0.00    +0.117 C 
ATOM     20  C   UNL     1      -0.029  -4.140  -2.428  0.00  0.00    +0.196 C 
ATOM     21  O   UNL     1      -0.484  -2.877  -2.478  0.00  0.00    -0.441 OA
ENDROOT
BRANCH  20  22
ATOM     22  N   UNL     1       0.327  -4.764  -3.594  0.00  0.00    -0.329 N 
ATOM     23  H   UNL     1       0.587  -5.699  -3.583  0.00  0.00    +0.145 HD
ATOM     24  H   UNL     1       0.318  -4.272  -4.429  0.00  0.00    +0.145 HD
ENDBRANCH  20  22
BRANCH  19  25
ATOM     25  C   UNL     1       0.569  -6.133  -1.262  0.00  0.00    +0.341 C 
ATOM     26  O   UNL     1      -0.202  -7.062  -1.103  0.00  0.00    -0.245 OA
BRANCH  25  27
ATOM     27  O   UNL     1       1.885  -6.371  -1.446  0.00  0.00    -0.465 OA
ATOM     28  C   UNL     1       2.304  -7.738  -1.441  0.00  0.00    +0.280 C 
ENDBRANCH  25  27
ENDBRANCH  19  25
BRANCH   8  29
ATOM     29  C   UNL     1      -0.539   0.336   2.065  0.00  0.00    +0.199 C 
BRANCH  29  30
ATOM     30  C   UNL     1      -1.960   0.523   2.531  0.00  0.00    +0.125 A 
ATOM     31  C   UNL     1      -2.608  -0.258   3.413  0.00  0.00    +0.046 A 
ATOM     32  C   UNL     1      -3.909   0.278   3.558  0.00  0.00    +0.041 A 
ATOM     33  C   UNL     1      -3.977   1.355   2.755  0.00  0.00    +0.195 A 
ATOM     34  O   UNL     1      -2.792   1.502   2.140  0.00  0.00    -0.466 OA
ENDBRANCH  29  30
ENDBRANCH   8  29
BRANCH  16  35
ATOM     35  C   UNL     1       0.785  -5.667   3.293  0.00  0.00    +0.116 C 
BRANCH  35  36
ATOM     36  C   UNL     1       0.855  -4.547   4.333  0.00  0.00    +0.001 C 
ATOM     37  C   UNL     1      -0.560  -4.184   4.787  0.00  0.00    +0.009 C 
ATOM     38  C   UNL     1       1.672  -5.020   5.538  0.00  0.00    +0.009 C 
ENDBRANCH  35  36
ENDBRANCH  16  35
TORSDOF 7
