REMARK  Name = ZINC40675330
REMARK  6 active torsions:
REMARK  status: ('A' for Active; 'I' for Inactive)
REMARK    1  A    between atoms: C_1  and  C_2
REMARK    2  A    between atoms: C_2  and  C_3
REMARK    3  A    between atoms: C_2  and  C_4
REMARK    4  A    between atoms: C_2  and  N_7
REMARK    5  A    between atoms: N_7  and  C_8
REMARK    6  A    between atoms: C_13  and  N_14
REMARK                            x       y       z     vdW  Elec       q    Type
REMARK                         _______ _______ _______ _____ _____    ______ ____
ROOT
ATOM      1  C   UNL     1       1.919  -0.207  -1.563  0.00  0.00    +0.060 A 
ATOM      2  C   UNL     1       2.674   0.592  -0.714  0.00  0.00    +0.052 A 
ATOM      3  C   UNL     1       3.998   0.859  -1.019  0.00  0.00    +0.078 A 
ATOM      4  C   UNL     1       4.569   0.326  -2.174  0.00  0.00    +0.145 A 
ATOM      5  C   UNL     1       3.813  -0.471  -3.016  0.00  0.00    +0.082 A 
ATOM      6  C   UNL     1       2.492  -0.741  -2.709  0.00  0.00    +0.150 A 
ATOM      7  O   UNL     1       5.872   0.598  -2.463  0.00  0.00    -0.481 OA
ATOM      8  C   UNL     1       6.364   1.879  -2.062  0.00  0.00    +0.325 C 
ATOM      9  C   UNL     1       5.944   2.161  -0.642  0.00  0.00    +0.255 C 
ATOM     10  O   UNL     1       6.650   2.835   0.079  0.00  0.00    -0.272 OA
ATOM     11  N   UNL     1       4.779   1.662  -0.176  0.00  0.00    -0.280 N 
ATOM     12  H   UNL     1       4.486   1.857   0.728  0.00  0.00    +0.155 HD
ENDROOT
BRANCH   6  13
ATOM     13  N   UNL     1       1.686  -1.598  -3.607  0.00  0.00    +0.058 N 
ATOM     14  O   UNL     1       2.207  -2.138  -4.555  0.00  0.00    -0.126 OA
ATOM     15  O   UNL     1       0.507  -1.757  -3.393  0.00  0.00    -0.126 OA
ENDBRANCH   6  13
BRANCH   1  16
ATOM     16  N   UNL     1       0.580  -0.479  -1.259  0.00  0.00    -0.329 N 
ATOM     17  H   UNL     1       0.029  -0.969  -1.889  0.00  0.00    +0.147 HD
BRANCH  16  19
ATOM     18  C   UNL     1       0.002   1.506   0.047  0.00  0.00    +0.041 C 
ATOM     19  C   UNL     1       0.010  -0.023   0.011  0.00  0.00    +0.103 C 
ATOM     20  C   UNL     1       0.855  -0.556   1.170  0.00  0.00    +0.041 C 
BRANCH  19  21
ATOM     21  C   UNL     1      -1.401  -0.536   0.142  0.00  0.00    +0.233 C 
ATOM     22  O   UNL     1      -1.834  -0.852   1.230  0.00  0.00    -0.274 OA
ATOM     23  N   UNL     1      -2.183  -0.643  -0.951  0.00  0.00    -0.328 N 
ATOM     24  H   UNL     1      -1.837  -0.390  -1.821  0.00  0.00    +0.145 HD
ATOM     25  H   UNL     1      -3.091  -0.973  -0.868  0.00  0.00    +0.145 HD
ENDBRANCH  19  21
ENDBRANCH  16  19
ENDBRANCH   1  16
TORSDOF 4
