REMARK  Name = ZINC02344096
REMARK  8 active torsions:
REMARK  status: ('A' for Active; 'I' for Inactive)
REMARK    1  A    between atoms: C_1  and  C_2
REMARK    2  A    between atoms: C_6  and  O_8
REMARK    3  A    between atoms: O_8  and  C_9
REMARK    4  A    between atoms: C_9  and  C_11
REMARK    5  A    between atoms: C_9  and  C_12
REMARK    6  A    between atoms: N_14  and  C_15
REMARK    7  A    between atoms: C_15  and  C_16
REMARK    8  A    between atoms: C_19  and  C_22
REMARK                            x       y       z     vdW  Elec       q    Type
REMARK                         _______ _______ _______ _____ _____    ______ ____
ROOT
ATOM      1  O   UNL     1       0.827  10.956  -3.911  0.00  0.00    -0.479 OA
ENDROOT
BRANCH   1   7
ATOM      2  C   UNL     1      -2.964  10.615  -6.960  0.00  0.00    +0.044 C 
ATOM      3  C   UNL     1      -1.975  11.447  -6.186  0.00  0.00    -0.043 A 
ATOM      4  C   UNL     1      -2.027  12.824  -6.269  0.00  0.00    +0.050 A 
ATOM      5  C   UNL     1      -1.120  13.598  -5.559  0.00  0.00    +0.143 A 
ATOM      6  C   UNL     1      -0.152  12.970  -4.757  0.00  0.00    +0.063 A 
ATOM      7  C   UNL     1      -0.106  11.569  -4.683  0.00  0.00    +0.133 A 
ATOM      8  C   UNL     1      -1.022  10.820  -5.399  0.00  0.00    +0.050 A 
ATOM      9  C   UNL     1       0.804  13.794  -4.008  0.00  0.00    -0.023 A 
ATOM     10  C   UNL     1       0.715  15.137  -4.117  0.00  0.00    +0.041 A 
ATOM     11  C   UNL     1      -0.296  15.702  -4.935  0.00  0.00    +0.341 A 
ATOM     12  O   UNL     1      -0.376  16.915  -5.020  0.00  0.00    -0.245 OA
ATOM     13  O   UNL     1      -1.159  14.946  -5.625  0.00  0.00    -0.422 OA
ATOM     14  C   UNL     1       1.652  16.075  -3.403  0.00  0.00    +0.042 C 
ATOM     15  C   UNL     1       2.365  15.356  -2.259  0.00  0.00    +0.005 C 
ATOM     16  C   UNL     1       2.973  14.059  -2.808  0.00  0.00    +0.005 C 
ATOM     17  C   UNL     1       1.831  13.105  -3.154  0.00  0.00    +0.036 C 
ENDBRANCH   1   7
BRANCH   1  18
ATOM     18  C   UNL     1       0.732   9.535  -3.786  0.00  0.00    +0.255 C 
ATOM     19  C   UNL     1       1.445   8.871  -4.965  0.00  0.00    +0.062 C 
BRANCH  18  20
ATOM     20  C   UNL     1       1.381   9.100  -2.497  0.00  0.00    +0.254 C 
ATOM     21  O   UNL     1       1.955   9.913  -1.803  0.00  0.00    -0.272 OA
ATOM     22  N   UNL     1       1.323   7.809  -2.116  0.00  0.00    -0.312 N 
ATOM     23  H   UNL     1       0.865   7.159  -2.671  0.00  0.00    +0.149 HD
BRANCH  22  24
ATOM     24  C   UNL     1       1.954   7.386  -0.863  0.00  0.00    +0.107 C 
BRANCH  24  25
ATOM     25  C   UNL     1       1.744   5.883  -0.668  0.00  0.00    +0.006 C 
ATOM     26  C   UNL     1       2.507   5.419   0.574  0.00  0.00    +0.006 C 
ATOM     27  C   UNL     1       2.297   3.916   0.769  0.00  0.00    +0.015 C 
ATOM     28  C   UNL     1       0.805   3.628   0.950  0.00  0.00    +0.102 C 
ATOM     29  C   UNL     1       0.042   4.093  -0.292  0.00  0.00    +0.015 C 
ATOM     30  C   UNL     1       0.252   5.596  -0.487  0.00  0.00    +0.006 C 
BRANCH  28  31
ATOM     31  C   UNL     1       0.599   2.148   1.142  0.00  0.00    +0.359 C 
ATOM     32  O   UNL     1       1.547   1.400   1.135  0.00  0.00    -0.246 OA
ATOM     33  O   UNL     1      -0.639   1.661   1.321  0.00  0.00    -0.246 OA
ENDBRANCH  28  31
ENDBRANCH  24  25
ENDBRANCH  22  24
ENDBRANCH  18  20
ENDBRANCH   1  18
TORSDOF 6
