REMARK  Name = ZINC66160286
REMARK  9 active torsions:
REMARK  status: ('A' for Active; 'I' for Inactive)
REMARK    1  A    between atoms: C_1  and  C_2
REMARK    2  A    between atoms: C_2  and  C_3
REMARK    3  A    between atoms: C_3  and  C_4
REMARK    4  A    between atoms: C_3  and  C_5
REMARK    5  A    between atoms: C_3  and  O_26
REMARK    6  A    between atoms: C_5  and  N_6
REMARK    7  A    between atoms: N_9  and  C_10
REMARK    8  A    between atoms: C_13  and  C_16
REMARK    9  A    between atoms: C_23  and  C_25
REMARK                            x       y       z     vdW  Elec       q    Type
REMARK                         _______ _______ _______ _____ _____    ______ ____
ROOT
ATOM      1  C   UNL     1       2.228  -5.593  -4.176  0.00  0.00    +0.035 A 
ATOM      2  C   UNL     1       2.228  -6.516  -3.135  0.00  0.00    +0.024 A 
ATOM      3  C   UNL     1       2.381  -7.857  -3.402  0.00  0.00    +0.015 A 
ATOM      4  C   UNL     1       2.536  -8.292  -4.721  0.00  0.00    +0.037 A 
ATOM      5  C   UNL     1       2.536  -7.363  -5.765  0.00  0.00    +0.015 A 
ATOM      6  C   UNL     1       2.378  -6.023  -5.491  0.00  0.00    +0.024 A 
ENDROOT
BRANCH   4   7
ATOM      7  C   UNL     1       2.700  -9.730  -5.011  0.00  0.00    +0.247 C 
ATOM      8  O   UNL     1       2.132 -10.557  -4.325  0.00  0.00    -0.270 OA
ATOM      9  N   UNL     1       3.481 -10.126  -6.037  0.00  0.00    -0.295 N 
ATOM     10  C   UNL     1       4.126  -9.137  -6.911  0.00  0.00    +0.108 C 
ATOM     11  C   UNL     1       5.629  -9.428  -6.959  0.00  0.00    +0.019 C 
ATOM     12  C   UNL     1       5.850 -10.881  -7.383  0.00  0.00    +0.003 C 
ATOM     13  C   UNL     1       5.210 -11.818  -6.356  0.00  0.00    +0.022 C 
ATOM     14  C   UNL     1       3.707 -11.554  -6.298  0.00  0.00    +0.073 C 
ATOM     15  C   UNL     1       3.085 -12.385  -5.173  0.00  0.00    +0.028 C 
ENDBRANCH   4   7
BRANCH   1  19
ATOM     16  N   UNL     1       2.549  -2.378  -2.569  0.00  0.00    -0.296 N 
ATOM     17  C   UNL     1       2.613  -3.707  -2.786  0.00  0.00    +0.304 C 
ATOM     18  O   UNL     1       3.159  -4.429  -1.974  0.00  0.00    -0.253 OA
ATOM     19  N   UNL     1       2.074  -4.234  -3.902  0.00  0.00    -0.269 N 
ATOM     20  H   UNL     1       2.114  -1.802  -3.217  0.00  0.00    +0.150 HD
ATOM     21  H   UNL     1       1.577  -3.670  -4.515  0.00  0.00    +0.156 HD
BRANCH  16  22
ATOM     22  C   UNL     1       3.136  -1.804  -1.356  0.00  0.00    +0.140 C 
BRANCH  22  23
ATOM     23  C   UNL     1       2.926  -0.288  -1.356  0.00  0.00    +0.078 C 
ATOM     24  C   UNL     1       1.428   0.020  -1.393  0.00  0.00    +0.043 C 
BRANCH  23  26
ATOM     25  C   UNL     1       3.222   1.807  -0.027  0.00  0.00    +0.007 C 
ATOM     26  C   UNL     1       3.539   0.311  -0.089  0.00  0.00    +0.032 C 
ENDBRANCH  23  26
BRANCH  23  27
ATOM     27  O   UNL     1       3.558   0.280  -2.505  0.00  0.00    -0.387 OA
ATOM     28  H   UNL     1       4.511   0.123  -2.547  0.00  0.00    +0.210 HD
ENDBRANCH  23  27
ENDBRANCH  22  23
ENDBRANCH  16  22
ENDBRANCH   1  19
TORSDOF 6
