REMARK  Name = ZINC40073259
REMARK  10 active torsions:
REMARK  status: ('A' for Active; 'I' for Inactive)
REMARK    1  A    between atoms: C_1  and  C_2
REMARK    2  A    between atoms: C_5  and  N_9
REMARK    3  A    between atoms: C_6  and  C_8
REMARK    4  A    between atoms: N_9  and  C_10
REMARK    5  A    between atoms: C_10  and  N_12
REMARK    6  A    between atoms: N_12  and  N_13
REMARK    7  A    between atoms: C_17  and  S_20
REMARK    8  A    between atoms: S_20  and  N_23
REMARK    9  A    between atoms: N_23  and  C_24
REMARK   10  A    between atoms: C_24  and  C_25
REMARK                            x       y       z     vdW  Elec       q    Type
REMARK                         _______ _______ _______ _____ _____    ______ ____
ROOT
ATOM      1  N   UNL     1      -0.109  -6.886   0.025  0.00  0.00    -0.249 N 
ATOM      2  C   UNL     1      -0.195  -8.274   0.024  0.00  0.00    +0.135 A 
ATOM      3  C   UNL     1      -0.185  -8.966   1.232  0.00  0.00    +0.047 A 
ATOM      4  C   UNL     1      -0.272 -10.346   1.217  0.00  0.00    +0.033 A 
ATOM      5  C   UNL     1      -0.366 -10.991  -0.010  0.00  0.00    +0.123 A 
ATOM      6  C   UNL     1      -0.371 -10.242  -1.169  0.00  0.00    +0.141 A 
ATOM      7  N   UNL     1      -0.292  -8.925  -1.124  0.00  0.00    -0.237 NA
ATOM      8  H   UNL     1      -0.038  -6.405   0.864  0.00  0.00    +0.171 HD
ENDROOT
BRANCH   5   9
ATOM      9  S   UNL     1      -0.479 -12.747  -0.085  0.00  0.00    +0.060 S 
ATOM     10  O   UNL     1      -0.008 -13.130  -1.370  0.00  0.00    -0.153 OA
ATOM     11  O   UNL     1       0.096 -13.243   1.116  0.00  0.00    -0.153 OA
BRANCH   9  12
ATOM     12  N   UNL     1      -2.088 -13.137  -0.036  0.00  0.00    -0.183 NA
ATOM     13  H   UNL     1      -2.444 -13.631   0.720  0.00  0.00    +0.148 HD
BRANCH  12  14
ATOM     14  C   UNL     1      -2.973 -12.737  -1.133  0.00  0.00    +0.180 C 
BRANCH  14  15
ATOM     15  C   UNL     1      -4.265 -13.506  -1.042  0.00  0.00    +0.120 A 
ATOM     16  C   UNL     1      -5.365 -13.119  -0.370  0.00  0.00    +0.046 A 
ATOM     17  C   UNL     1      -6.333 -14.133  -0.552  0.00  0.00    +0.041 A 
ATOM     18  C   UNL     1      -5.768 -15.079  -1.323  0.00  0.00    +0.195 A 
ATOM     19  O   UNL     1      -4.517 -14.691  -1.621  0.00  0.00    -0.466 OA
ENDBRANCH  14  15
ENDBRANCH  12  14
ENDBRANCH   9  12
ENDBRANCH   5   9
BRANCH   1  20
ATOM     20  N   UNL     1      -0.124  -6.183  -1.187  0.00  0.00    -0.247 N 
ATOM     21  H   UNL     1      -0.195  -6.665  -2.026  0.00  0.00    +0.172 HD
BRANCH  20  22
ATOM     22  C   UNL     1      -0.041  -4.838  -1.187  0.00  0.00    +0.151 C 
ATOM     23  S   UNL     1      -0.059  -3.979  -2.668  0.00  0.00    -0.017 S 
BRANCH  22  24
ATOM     24  N   UNL     1       0.058  -4.169  -0.021  0.00  0.00    -0.296 N 
ATOM     25  H   UNL     1       0.132  -4.658   0.814  0.00  0.00    +0.154 HD
BRANCH  24  30
ATOM     26  C   UNL     1       0.039   1.503   0.004  0.00  0.00    +0.044 C 
ATOM     27  C   UNL     1       0.044  -0.004  -0.002  0.00  0.00    -0.050 A 
ATOM     28  C   UNL     1       0.855  -0.687  -0.890  0.00  0.00    +0.005 A 
ATOM     29  C   UNL     1       0.862  -2.068  -0.898  0.00  0.00    +0.024 A 
ATOM     30  C   UNL     1       0.054  -2.771  -0.015  0.00  0.00    +0.036 A 
ATOM     31  C   UNL     1      -0.760  -2.082   0.875  0.00  0.00    -0.029 A 
ATOM     32  C   UNL     1      -0.758  -0.700   0.883  0.00  0.00    +0.008 A 
ATOM     33  C   UNL     1      -1.639  -2.840   1.836  0.00  0.00    +0.045 C 
ENDBRANCH  24  30
ENDBRANCH  22  24
ENDBRANCH  20  22
ENDBRANCH   1  20
TORSDOF 8
