REMARK  Name = ZINC66343782
REMARK  4 active torsions:
REMARK  status: ('A' for Active; 'I' for Inactive)
REMARK    1  A    between atoms: C_6  and  N_7
REMARK    2  A    between atoms: C_10  and  C_13
REMARK    3  A    between atoms: C_13  and  N_14
REMARK    4  A    between atoms: N_17  and  C_18
REMARK                            x       y       z     vdW  Elec       q    Type
REMARK                         _______ _______ _______ _____ _____    ______ ____
ROOT
ATOM      1  N   UNL     1      -4.522  -4.117  -0.795  0.00  0.00    -0.299 N 
ATOM      2  C   UNL     1      -5.021  -5.138  -1.521  0.00  0.00    +0.304 C 
ATOM      3  O   UNL     1      -4.269  -5.919  -2.069  0.00  0.00    -0.253 OA
ATOM      4  N   UNL     1      -6.355  -5.292  -1.639  0.00  0.00    -0.269 N 
ATOM      5  H   UNL     1      -5.123  -3.494  -0.358  0.00  0.00    +0.150 HD
ATOM      6  H   UNL     1      -6.956  -4.716  -1.140  0.00  0.00    +0.156 HD
ENDROOT
BRANCH   4   7
ATOM      7  C   UNL     1      -6.874  -6.283  -2.482  0.00  0.00    +0.037 A 
ATOM      8  C   UNL     1      -8.063  -6.921  -2.153  0.00  0.00    +0.027 A 
ATOM      9  C   UNL     1      -8.580  -7.899  -2.982  0.00  0.00    +0.049 A 
ATOM     10  C   UNL     1      -7.911  -8.245  -4.143  0.00  0.00    +0.142 A 
ATOM     11  C   UNL     1      -6.717  -7.607  -4.476  0.00  0.00    +0.077 A 
ATOM     12  C   UNL     1      -6.203  -6.623  -3.649  0.00  0.00    +0.050 A 
ATOM     13  N   UNL     1      -6.051  -7.970  -5.655  0.00  0.00    -0.280 N 
ATOM     14  C   UNL     1      -6.716  -8.682  -6.590  0.00  0.00    +0.255 C 
ATOM     15  O   UNL     1      -6.151  -9.033  -7.605  0.00  0.00    -0.272 OA
ATOM     16  C   UNL     1      -8.164  -9.040  -6.368  0.00  0.00    +0.325 C 
ATOM     17  O   UNL     1      -8.409  -9.205  -4.969  0.00  0.00    -0.481 OA
ATOM     18  H   UNL     1      -5.127  -7.713  -5.798  0.00  0.00    +0.155 HD
ENDBRANCH   4   7
BRANCH   1  19
ATOM     19  C   UNL     1      -3.072  -3.950  -0.667  0.00  0.00    +0.110 C 
BRANCH  19  23
ATOM     20  N   UNL     1      -1.000  -1.074   0.294  0.00  0.00    -0.330 N 
ATOM     21  C   UNL     1      -2.287  -0.375   0.129  0.00  0.00    +0.105 C 
ATOM     22  C   UNL     1      -3.230  -1.425  -0.511  0.00  0.00    +0.025 C 
ATOM     23  C   UNL     1      -2.775  -2.726   0.201  0.00  0.00    +0.025 C 
ATOM     24  C   UNL     1      -1.253  -2.521   0.353  0.00  0.00    +0.110 C 
BRANCH  20  30
ATOM     25  C   UNL     1       0.361   0.920   0.303  0.00  0.00    +0.026 A 
ATOM     26  C   UNL     1       1.601   1.522   0.383  0.00  0.00    +0.040 A 
ATOM     27  C   UNL     1       2.740   0.748   0.531  0.00  0.00    +0.124 A 
ATOM     28  C   UNL     1       2.637  -0.631   0.601  0.00  0.00    +0.040 A 
ATOM     29  C   UNL     1       1.398  -1.238   0.522  0.00  0.00    +0.026 A 
ATOM     30  C   UNL     1       0.255  -0.463   0.373  0.00  0.00    +0.030 A 
ATOM     31  F   UNL     1       3.952   1.339   0.609  0.00  0.00    -0.205 F 
ENDBRANCH  20  30
ENDBRANCH  19  23
ENDBRANCH   1  19
TORSDOF 4
