REMARK  Name = ZINC39578087
REMARK  8 active torsions:
REMARK  status: ('A' for Active; 'I' for Inactive)
REMARK    1  A    between atoms: C_1  and  C_2
REMARK    2  A    between atoms: N_11  and  C_15
REMARK    3  A    between atoms: C_15  and  C_16
REMARK    4  A    between atoms: C_16  and  O_18
REMARK    5  A    between atoms: O_18  and  C_19
REMARK    6  A    between atoms: C_19  and  C_20
REMARK    7  A    between atoms: N_22  and  C_23
REMARK    8  A    between atoms: C_24  and  C_32
REMARK                            x       y       z     vdW  Elec       q    Type
REMARK                         _______ _______ _______ _____ _____    ______ ____
ROOT
ATOM      1  C   UNL     1       4.361   5.024   1.943  0.00  0.00    +0.328 C 
ENDROOT
BRANCH   1   2
ATOM      2  C   UNL     1       5.574   5.822   2.346  0.00  0.00    +0.255 C 
ATOM      3  O   UNL     1       6.420   5.321   3.057  0.00  0.00    -0.272 OA
ATOM      4  N   UNL     1       5.718   7.091   1.918  0.00  0.00    -0.277 N 
ATOM      5  H   UNL     1       5.041   7.492   1.350  0.00  0.00    +0.155 HD
BRANCH   4   6
ATOM      6  C   UNL     1       6.834   7.826   2.289  0.00  0.00    +0.084 A 
ATOM      7  C   UNL     1       7.145   9.134   1.952  0.00  0.00    +0.068 A 
ATOM      8  C   UNL     1       8.386   9.677   2.474  0.00  0.00    -0.023 A 
ATOM      9  C   UNL     1       9.090   8.813   3.237  0.00  0.00    -0.004 A 
ATOM     10  S   UNL     1       8.117   7.337   3.257  0.00  0.00    -0.077 S 
ATOM     11  C   UNL     1      10.402   9.072   3.912  0.00  0.00    +0.043 C 
ATOM     12  C   UNL     1      11.016  10.340   3.302  0.00  0.00    +0.005 C 
ATOM     13  C   UNL     1       9.948  11.437   3.258  0.00  0.00    +0.005 C 
ATOM     14  C   UNL     1       8.888  11.089   2.210  0.00  0.00    +0.037 C 
BRANCH   7  15
ATOM     15  C   UNL     1       6.257   9.935   1.103  0.00  0.00    +0.244 C 
ATOM     16  O   UNL     1       5.379  10.610   1.608  0.00  0.00    -0.270 OA
ATOM     17  N   UNL     1       6.414   9.924  -0.235  0.00  0.00    -0.325 N 
ATOM     18  H   UNL     1       7.114   9.386  -0.637  0.00  0.00    +0.145 HD
ATOM     19  H   UNL     1       5.827  10.454  -0.797  0.00  0.00    +0.145 HD
ENDBRANCH   7  15
ENDBRANCH   4   6
ENDBRANCH   1   2
BRANCH   1  20
ATOM     20  O   UNL     1       4.436   3.718   2.518  0.00  0.00    -0.454 OA
BRANCH  20  21
ATOM     21  C   UNL     1       3.425   2.876   2.253  0.00  0.00    +0.326 C 
ATOM     22  O   UNL     1       2.506   3.236   1.556  0.00  0.00    -0.249 OA
BRANCH  21  23
ATOM     23  C   UNL     1       3.436   1.482   2.825  0.00  0.00    +0.238 C 
BRANCH  23  33
ATOM     24  C   UNL     1      -0.019   1.526   0.010  0.00  0.00    +0.010 C 
ATOM     25  C   UNL     1       0.002  -0.004   0.002  0.00  0.00    +0.018 C 
ATOM     26  C   UNL     1      -1.434  -0.534   0.012  0.00  0.00    +0.006 C 
ATOM     27  C   UNL     1      -1.412  -2.064   0.024  0.00  0.00    +0.000 C 
ATOM     28  C   UNL     1      -0.687  -2.556   1.279  0.00  0.00    +0.003 C 
ATOM     29  C   UNL     1       0.752  -2.033   1.273  0.00  0.00    +0.035 C 
ATOM     30  C   UNL     1       0.740  -0.509   1.237  0.00  0.00    +0.115 C 
ATOM     31  C   UNL     1       2.151   0.030   1.266  0.00  0.00    +0.247 C 
ATOM     32  O   UNL     1       3.026  -0.158   0.448  0.00  0.00    -0.273 OA
ATOM     33  N   UNL     1       2.233   0.767   2.394  0.00  0.00    -0.213 N 
ATOM     34  C   UNL     1       1.077   0.763   3.069  0.00  0.00    +0.310 C 
ATOM     35  O   UNL     1       0.904   1.356   4.116  0.00  0.00    -0.252 OA
ATOM     36  N   UNL     1       0.127   0.030   2.458  0.00  0.00    -0.285 N 
ATOM     37  H   UNL     1      -0.782  -0.114   2.764  0.00  0.00    +0.151 HD
ENDBRANCH  23  33
ENDBRANCH  21  23
ENDBRANCH  20  21
ENDBRANCH   1  20
TORSDOF 7
