REMARK  Name = ZINC08699835
REMARK  4 active torsions:
REMARK  status: ('A' for Active; 'I' for Inactive)
REMARK    1  A    between atoms: C_1  and  O_2
REMARK    2  A    between atoms: O_2  and  C_3
REMARK    3  A    between atoms: C_6  and  C_9
REMARK    4  A    between atoms: C_9  and  N_10
REMARK                            x       y       z     vdW  Elec       q    Type
REMARK                         _______ _______ _______ _____ _____    ______ ____
ROOT
ATOM      1  N   UNL     1      -0.017   1.393   0.010  0.00  0.00    -0.323 N 
ATOM      2  C   UNL     1       1.390   1.784   0.137  0.00  0.00    +0.124 C 
ATOM      3  C   UNL     1       2.181   1.208  -1.046  0.00  0.00    +0.120 C 
ATOM      4  N   UNL     1       2.075  -0.259  -0.969  0.00  0.00    -0.341 N 
ATOM      5  C   UNL     1       0.826  -0.805  -0.627  0.00  0.00    +0.049 A 
ATOM      6  C   UNL     1      -0.190   0.015  -0.141  0.00  0.00    +0.051 A 
ATOM      7  C   UNL     1      -1.412  -0.550   0.204  0.00  0.00    +0.025 A 
ATOM      8  C   UNL     1      -1.616  -1.909   0.060  0.00  0.00    +0.002 A 
ATOM      9  C   UNL     1      -0.606  -2.718  -0.427  0.00  0.00    +0.002 A 
ATOM     10  C   UNL     1       0.615  -2.167  -0.771  0.00  0.00    +0.025 A 
ATOM     11  H   UNL     1       2.840  -0.828  -1.147  0.00  0.00    +0.146 HD
ENDROOT
BRANCH   1  12
ATOM     12  C   UNL     1      -0.809   1.903   1.137  0.00  0.00    +0.140 C 
BRANCH  12  16
ATOM     13  C   UNL     1       0.027   6.055   1.704  0.00  0.00    +0.120 A 
ATOM     14  C   UNL     1      -1.000   5.662   0.858  0.00  0.00    +0.046 A 
ATOM     15  C   UNL     1      -1.268   4.319   0.676  0.00  0.00    +0.009 A 
ATOM     16  C   UNL     1      -0.514   3.367   1.337  0.00  0.00    -0.030 A 
ATOM     17  C   UNL     1       0.506   3.756   2.185  0.00  0.00    +0.009 A 
ATOM     18  C   UNL     1       0.782   5.098   2.365  0.00  0.00    +0.046 A 
BRANCH  13  20
ATOM     19  C   UNL     1       1.365   7.707   2.769  0.00  0.00    +0.277 C 
ATOM     20  O   UNL     1       0.293   7.375   1.883  0.00  0.00    -0.495 OA
ENDBRANCH  13  20
ENDBRANCH  12  16
ENDBRANCH   1  12
TORSDOF 3
