REMARK  Name = ZINC20877009
REMARK  14 active torsions:
REMARK  status: ('A' for Active; 'I' for Inactive)
REMARK    1  A    between atoms: C_1  and  C_2
REMARK    2  A    between atoms: C_2  and  CA_3
REMARK    3  A    between atoms: CA_3  and  C_5
REMARK    4  A    between atoms: CA_3  and  N_7
REMARK    5  A    between atoms: C_5  and  O_6
REMARK    6  A    between atoms: N_7  and  C_8
REMARK    7  A    between atoms: C_8  and  C_9
REMARK    8  A    between atoms: C_11  and  O_30
REMARK    9  A    between atoms: C_12  and  O_16
REMARK   10  A    between atoms: O_16  and  C_17
REMARK   11  A    between atoms: C_17  and  C_18
REMARK   12  A    between atoms: C_18  and  C_20
REMARK   13  A    between atoms: C_18  and  O_29
REMARK   14  A    between atoms: O_30  and  C_31
REMARK                            x       y       z     vdW  Elec       q    Type
REMARK                         _______ _______ _______ _____ _____    ______ ____
ROOT
ATOM      1  C   UNL     1      -3.904  -0.029   0.567  0.00  0.00    -0.060 A 
ATOM      2  C   UNL     1      -2.590   0.365   0.396  0.00  0.00    +0.051 A 
ATOM      3  C   UNL     1      -1.976   1.163   1.348  0.00  0.00    +0.163 A 
ATOM      4  C   UNL     1      -2.688   1.575   2.470  0.00  0.00    +0.176 A 
ATOM      5  C   UNL     1      -4.007   1.181   2.634  0.00  0.00    +0.063 A 
ATOM      6  C   UNL     1      -4.612   0.381   1.681  0.00  0.00    +0.021 A 
ATOM      7 BR   UNL     1      -4.979   1.739   4.157  0.00  0.00    -0.046 Br
ENDROOT
BRANCH   3   8
ATOM      8  O   UNL     1      -0.682   1.547   1.184  0.00  0.00    -0.491 OA
ATOM      9  C   UNL     1      -0.013   1.086   0.008  0.00  0.00    +0.277 C 
ENDBRANCH   3   8
BRANCH   1  10
ATOM     10  C   UNL     1      -4.568  -0.902  -0.466  0.00  0.00    -0.046 C 
BRANCH  10  11
ATOM     11  N   UNL     1      -5.205  -0.056  -1.485  0.00  0.00    +0.385 N 
ATOM     12  H1  UNL     1      -4.433   0.571  -1.956  0.00  0.00    -0.085 HD
ATOM     13  H2  UNL     1      -5.951   0.586  -0.994  0.00  0.00    -0.085 HD
BRANCH  11  14
ATOM     14  CA  UNL     1      -5.864  -0.875  -2.512  0.00  0.00    -0.046 C 
BRANCH  14  16
ATOM     15  C   UNL     1      -8.072   0.226  -2.122  0.00  0.00    +0.002 C 
ATOM     16  C   UNL     1      -6.989  -0.068  -3.162  0.00  0.00    -0.017 C 
ENDBRANCH  14  16
BRANCH  14  17
ATOM     17  C   UNL     1      -4.842  -1.276  -3.578  0.00  0.00    +0.140 C 
BRANCH  17  18
ATOM     18  O   UNL     1      -4.384  -0.107  -4.262  0.00  0.00    -0.397 OA
ATOM     19  H   UNL     1      -3.641  -0.198  -5.068  0.00  0.00    +0.209 HD
ENDBRANCH  17  18
ENDBRANCH  14  17
ENDBRANCH  11  14
ENDBRANCH  10  11
ENDBRANCH   1  10
BRANCH   4  20
ATOM     20  O   UNL     1      -2.091   2.362   3.405  0.00  0.00    -0.484 OA
BRANCH  20  21
ATOM     21  C   UNL     1      -2.193   3.776   3.224  0.00  0.00    +0.265 C 
BRANCH  21  22
ATOM     22  C   UNL     1      -1.466   4.490   4.366  0.00  0.00    +0.182 C 
BRANCH  22  23
ATOM     23  C   UNL     1      -1.468   5.975   4.111  0.00  0.00    -0.012 A 
ATOM     24  C   UNL     1      -2.555   6.740   4.493  0.00  0.00    +0.010 A 
ATOM     25  C   UNL     1      -2.559   8.103   4.266  0.00  0.00    +0.050 A 
ATOM     26  C   UNL     1      -1.478   8.706   3.644  0.00  0.00    +0.166 A 
ATOM     27  C   UNL     1      -0.385   7.935   3.254  0.00  0.00    +0.167 A 
ATOM     28  C   UNL     1      -0.386   6.570   3.490  0.00  0.00    +0.055 A 
ATOM     29  O   UNL     1       0.539   8.752   2.670  0.00  0.00    -0.453 OA
ATOM     30  C   UNL     1       0.181  10.087   3.073  0.00  0.00    +0.466 C 
ATOM     31  O   UNL     1      -1.238  10.006   3.304  0.00  0.00    -0.453 OA
ENDBRANCH  22  23
BRANCH  22  32
ATOM     32  O   UNL     1      -2.134   4.218   5.600  0.00  0.00    -0.384 OA
ATOM     33  H   UNL     1      -1.754   4.649   6.537  0.00  0.00    +0.210 HD
ENDBRANCH  22  32
ENDBRANCH  21  22
ENDBRANCH  20  21
ENDBRANCH   4  20
TORSDOF 12
