REMARK  Name = ZINC39342504
REMARK  10 active torsions:
REMARK  status: ('A' for Active; 'I' for Inactive)
REMARK    1  A    between atoms: C_1  and  C_2
REMARK    2  A    between atoms: C_5  and  C_8
REMARK    3  A    between atoms: C_8  and  C_29
REMARK    4  A    between atoms: N_9  and  N_10
REMARK    5  A    between atoms: C_11  and  C_13
REMARK    6  A    between atoms: C_16  and  C_19
REMARK    7  A    between atoms: C_22  and  C_25
REMARK    8  A    between atoms: C_25  and  C_26
REMARK    9  A    between atoms: C_26  and  C_27
REMARK   10  A    between atoms: C_26  and  C_28
REMARK                            x       y       z     vdW  Elec       q    Type
REMARK                         _______ _______ _______ _____ _____    ______ ____
ROOT
ATOM      1  C   UNL     1       0.101  -8.466  -2.336  0.00  0.00    +0.240 C 
ATOM      2  C   UNL     1       1.516  -8.985  -2.156  0.00  0.00    +0.041 C 
ATOM      3  C   UNL     1       1.754  -9.672  -3.290  0.00  0.00    +0.092 C 
ATOM      4  N   UNL     1       0.671  -9.626  -4.109  0.00  0.00    -0.153 NA
ATOM      5  N   UNL     1      -0.285  -8.983  -3.659  0.00  0.00    -0.170 NA
ENDROOT
BRANCH   3   6
ATOM      6  C   UNL     1       3.021 -10.379  -3.601  0.00  0.00    +0.002 A 
ATOM      7  C   UNL     1       4.072 -10.367  -2.686  0.00  0.00    +0.010 A 
ATOM      8  C   UNL     1       5.248 -11.026  -2.981  0.00  0.00    +0.004 A 
ATOM      9  C   UNL     1       5.385 -11.698  -4.182  0.00  0.00    -0.047 A 
ATOM     10  C   UNL     1       4.345 -11.713  -5.094  0.00  0.00    +0.004 A 
ATOM     11  C   UNL     1       3.163 -11.061  -4.808  0.00  0.00    +0.010 A 
BRANCH   9  12
ATOM     12  C   UNL     1       6.672 -12.416  -4.498  0.00  0.00    +0.038 C 
BRANCH  12  13
ATOM     13  C   UNL     1       6.588 -13.858  -3.994  0.00  0.00    -0.013 C 
ATOM     14  C   UNL     1       7.843 -14.622  -4.424  0.00  0.00    +0.007 C 
ATOM     15  C   UNL     1       6.489 -13.859  -2.467  0.00  0.00    +0.007 C 
ENDBRANCH  12  13
ENDBRANCH   9  12
ENDBRANCH   3   6
BRANCH   1  17
ATOM     16  N   UNL     1       0.079  -6.292  -1.156  0.00  0.00    -0.205 N 
ATOM     17  C   UNL     1       0.082  -6.959  -2.327  0.00  0.00    +0.263 C 
ATOM     18  O   UNL     1       0.068  -6.347  -3.374  0.00  0.00    -0.271 OA
ATOM     19  H   UNL     1       0.089  -6.781  -0.319  0.00  0.00    +0.177 HD
BRANCH  16  21
ATOM     20  C   UNL     1       0.058  -4.248  -0.021  0.00  0.00    +0.063 C 
ATOM     21  N   UNL     1       0.061  -4.891  -1.149  0.00  0.00    -0.184 NA
ATOM     22  C   UNL     1       0.075  -5.009   1.280  0.00  0.00    +0.068 C 
BRANCH  20  27
ATOM     23  C   UNL     1      -0.018   1.503   0.010  0.00  0.00    +0.044 C 
ATOM     24  C   UNL     1       0.002  -0.004   0.002  0.00  0.00    -0.050 A 
ATOM     25  C   UNL     1       0.006  -0.686  -1.202  0.00  0.00    +0.004 A 
ATOM     26  C   UNL     1       0.024  -2.065  -1.217  0.00  0.00    +0.010 A 
ATOM     27  C   UNL     1       0.039  -2.773  -0.013  0.00  0.00    -0.003 A 
ATOM     28  C   UNL     1       0.036  -2.078   1.198  0.00  0.00    +0.010 A 
ATOM     29  C   UNL     1       0.023  -0.699   1.198  0.00  0.00    +0.004 A 
ENDBRANCH  20  27
ENDBRANCH  16  21
ENDBRANCH   1  17
TORSDOF 6
