REMARK  Name = ZINC08948022
REMARK  12 active torsions:
REMARK  status: ('A' for Active; 'I' for Inactive)
REMARK    1  A    between atoms: C_1  and  C_2
REMARK    2  A    between atoms: C_5  and  O_30
REMARK    3  A    between atoms: C_6  and  N_8
REMARK    4  A    between atoms: C_9  and  C_11
REMARK    5  A    between atoms: C_11  and  N_12
REMARK    6  A    between atoms: C_15  and  C_19
REMARK    7  A    between atoms: C_15  and  C_20
REMARK    8  A    between atoms: C_23  and  C_26
REMARK    9  A    between atoms: C_26  and  C_27
REMARK   10  A    between atoms: C_26  and  C_28
REMARK   11  A    between atoms: C_26  and  C_29
REMARK   12  A    between atoms: O_30  and  C_31
REMARK                            x       y       z     vdW  Elec       q    Type
REMARK                         _______ _______ _______ _____ _____    ______ ____
ROOT
ATOM      1  N   UNL     1      -3.556   1.985   0.120  0.00  0.00    -0.215 N 
ATOM      2  C   UNL     1      -4.168   2.427  -0.996  0.00  0.00    +0.251 C 
ATOM      3  O   UNL     1      -3.940   2.090  -2.138  0.00  0.00    -0.272 OA
ATOM      4  C   UNL     1      -5.199   3.434  -0.527  0.00  0.00    +0.135 C 
ATOM      5  N   UNL     1      -5.033   3.444   0.936  0.00  0.00    -0.281 N 
ATOM      6  C   UNL     1      -4.056   2.563   1.219  0.00  0.00    +0.310 C 
ATOM      7  O   UNL     1      -3.668   2.322   2.345  0.00  0.00    -0.252 OA
ATOM      8  C   UNL     1      -6.609   2.978  -0.906  0.00  0.00    +0.047 C 
ATOM      9  H   UNL     1      -5.533   3.978   1.573  0.00  0.00    +0.152 HD
ENDROOT
BRANCH   4  10
ATOM     10  C   UNL     1      -4.909   4.797  -1.102  0.00  0.00    -0.015 A 
ATOM     11  C   UNL     1      -4.283   4.910  -2.330  0.00  0.00    +0.006 A 
ATOM     12  C   UNL     1      -4.022   6.160  -2.860  0.00  0.00    +0.004 A 
ATOM     13  C   UNL     1      -4.376   7.296  -2.157  0.00  0.00    -0.042 A 
ATOM     14  C   UNL     1      -4.997   7.183  -0.927  0.00  0.00    +0.004 A 
ATOM     15  C   UNL     1      -5.263   5.933  -0.400  0.00  0.00    +0.006 A 
BRANCH  13  16
ATOM     16  C   UNL     1      -4.085   8.659  -2.732  0.00  0.00    -0.013 C 
ATOM     17  C   UNL     1      -3.165   9.427  -1.781  0.00  0.00    +0.015 C 
ATOM     18  C   UNL     1      -3.400   8.503  -4.091  0.00  0.00    +0.015 C 
ATOM     19  C   UNL     1      -5.396   9.429  -2.907  0.00  0.00    +0.015 C 
ENDBRANCH  13  16
ENDBRANCH   4  10
BRANCH   1  20
ATOM     20  C   UNL     1      -2.482   0.989   0.131  0.00  0.00    +0.214 C 
BRANCH  20  22
ATOM     21  N   UNL     1      -0.011   0.966   0.007  0.00  0.00    -0.281 N 
ATOM     22  C   UNL     1      -1.150   1.686   0.018  0.00  0.00    +0.235 C 
ATOM     23  O   UNL     1      -1.103   2.896  -0.063  0.00  0.00    -0.274 OA
ATOM     24  H   UNL     1      -0.050  -0.003  -0.011  0.00  0.00    +0.155 HD
BRANCH  21  30
ATOM     25  C   UNL     1       2.681   4.928   1.115  0.00  0.00    +0.044 C 
ATOM     26  C   UNL     1       2.564   3.537   0.548  0.00  0.00    -0.048 A 
ATOM     27  C   UNL     1       3.682   2.904   0.037  0.00  0.00    +0.007 A 
ATOM     28  C   UNL     1       3.581   1.628  -0.485  0.00  0.00    +0.048 A 
ATOM     29  C   UNL     1       2.358   0.977  -0.492  0.00  0.00    +0.141 A 
ATOM     30  C   UNL     1       1.230   1.617   0.017  0.00  0.00    +0.076 A 
ATOM     31  C   UNL     1       1.339   2.897   0.539  0.00  0.00    +0.030 A 
BRANCH  29  32
ATOM     32  O   UNL     1       2.258  -0.280  -1.000  0.00  0.00    -0.493 OA
ATOM     33  C   UNL     1       3.456  -0.873  -1.504  0.00  0.00    +0.277 C 
ENDBRANCH  29  32
ENDBRANCH  21  30
ENDBRANCH  20  22
ENDBRANCH   1  20
TORSDOF 6
