REMARK  Name = ZINC32753789
REMARK  12 active torsions:
REMARK  status: ('A' for Active; 'I' for Inactive)
REMARK    1  A    between atoms: C_1  and  C_2
REMARK    2  A    between atoms: C_2  and  N_3
REMARK    3  A    between atoms: N_3  and  C_4
REMARK    4  A    between atoms: C_9  and  C_10
REMARK    5  A    between atoms: C_11  and  C_13
REMARK    6  A    between atoms: C_15  and  S_20
REMARK    7  A    between atoms: C_18  and  C_19
REMARK    8  A    between atoms: S_20  and  N_23
REMARK    9  A    between atoms: N_23  and  C_24
REMARK   10  A    between atoms: C_24  and  C_25
REMARK   11  A    between atoms: C_24  and  C_26
REMARK   12  A    between atoms: C_24  and  C_27
REMARK                            x       y       z     vdW  Elec       q    Type
REMARK                         _______ _______ _______ _____ _____    ______ ____
ROOT
ATOM      1  C   UNL     1      -2.553   1.962   3.851  0.00  0.00    +0.042 A 
ATOM      2  C   UNL     1      -2.052   1.257   2.755  0.00  0.00    +0.041 A 
ATOM      3  C   UNL     1      -1.047   1.806   1.986  0.00  0.00    +0.106 A 
ATOM      4  C   UNL     1      -0.532   3.051   2.303  0.00  0.00    +0.029 A 
ATOM      5  C   UNL     1      -1.027   3.757   3.384  0.00  0.00    +0.006 A 
ATOM      6  C   UNL     1      -2.032   3.219   4.162  0.00  0.00    -0.038 A 
ATOM      7  C   UNL     1      -2.566   3.987   5.343  0.00  0.00    +0.044 C 
ENDROOT
BRANCH   1   9
ATOM      8  N   UNL     1      -4.822   1.086   4.124  0.00  0.00    -0.267 N 
ATOM      9  C   UNL     1      -3.630   1.379   4.679  0.00  0.00    +0.251 C 
ATOM     10  O   UNL     1      -3.440   1.165   5.860  0.00  0.00    -0.270 OA
BRANCH   8  11
ATOM     11  C   UNL     1      -5.872   0.626   4.925  0.00  0.00    +0.039 A 
ATOM     12  C   UNL     1      -6.798   1.523   5.441  0.00  0.00    +0.024 A 
ATOM     13  C   UNL     1      -7.836   1.065   6.229  0.00  0.00    +0.002 A 
ATOM     14  C   UNL     1      -7.949  -0.284   6.511  0.00  0.00    +0.000 A 
ATOM     15  C   UNL     1      -7.026  -1.179   6.003  0.00  0.00    +0.005 A 
ATOM     16  C   UNL     1      -5.988  -0.729   5.210  0.00  0.00    -0.029 A 
ATOM     17  C   UNL     1      -4.982  -1.705   4.657  0.00  0.00    +0.045 C 
ENDBRANCH   8  11
BRANCH   8  19
ATOM     18  C   UNL     1      -5.398   2.699   2.378  0.00  0.00    +0.025 C 
ATOM     19  C   UNL     1      -5.019   1.248   2.681  0.00  0.00    +0.110 C 
ENDBRANCH   8  19
ENDBRANCH   1   9
BRANCH   3  20
ATOM     20  S   UNL     1      -0.413   0.918   0.603  0.00  0.00    +0.059 S 
ATOM     21  O   UNL     1      -0.394  -0.453   0.974  0.00  0.00    -0.153 OA
ATOM     22  O   UNL     1       0.753   1.609   0.177  0.00  0.00    -0.153 OA
BRANCH  20  23
ATOM     23  N   UNL     1      -1.521   1.062  -0.620  0.00  0.00    -0.185 NA
ATOM     24  H   UNL     1      -2.259   0.261  -0.774  0.00  0.00    +0.149 HD
BRANCH  23  25
ATOM     25  C   UNL     1      -1.656   2.330  -1.341  0.00  0.00    +0.032 C 
ATOM     26  C   UNL     1      -0.378   2.602  -2.138  0.00  0.00    +0.029 C 
ATOM     27  C   UNL     1      -2.846   2.249  -2.299  0.00  0.00    +0.029 C 
ATOM     28  C   UNL     1      -1.883   3.464  -0.340  0.00  0.00    +0.029 C 
ENDBRANCH  23  25
ENDBRANCH  20  23
ENDBRANCH   3  20
TORSDOF 6
