REMARK  Name = ZINC59843807
REMARK  5 active torsions:
REMARK  status: ('A' for Active; 'I' for Inactive)
REMARK    1  A    between atoms: C_2  and  C_10
REMARK    2  A    between atoms: C_5  and  O_8
REMARK    3  A    between atoms: N_11  and  N_12
REMARK    4  A    between atoms: C_13  and  S_15
REMARK    5  A    between atoms: S_15  and  C_16
REMARK                            x       y       z     vdW  Elec       q    Type
REMARK                         _______ _______ _______ _____ _____    ______ ____
ROOT
ATOM      1  C   UNL     1       1.170   3.562   0.009  0.00  0.00    +0.138 C 
ATOM      2  N   UNL     1       2.287   4.223   0.002  0.00  0.00    -0.187 NA
ENDROOT
BRANCH   1   4
ATOM      3  C   UNL     1      -0.017   1.375   0.010  0.00  0.00    +0.028 A 
ATOM      4  C   UNL     1       1.185   2.088   0.002  0.00  0.00    -0.003 A 
ATOM      5  C   UNL     1       2.401   1.400  -0.013  0.00  0.00    +0.028 A 
ATOM      6  C   UNL     1       2.410   0.021  -0.021  0.00  0.00    +0.061 A 
ATOM      7  C   UNL     1       1.213  -0.684  -0.013  0.00  0.00    +0.145 A 
ATOM      8  C   UNL     1       0.002  -0.004   0.002  0.00  0.00    +0.061 A 
ATOM      9 BR   UNL     1      -1.623  -0.970   0.012  0.00  0.00    -0.046 Br
ATOM     10 BR   UNL     1       4.055  -0.912  -0.042  0.00  0.00    -0.046 Br
BRANCH   7  11
ATOM     11  O   UNL     1       1.227  -2.043  -0.021  0.00  0.00    -0.505 OA
ATOM     12  H   UNL     1       1.240  -2.441   0.860  0.00  0.00    +0.292 HD
ENDBRANCH   7  11
ENDBRANCH   1   4
BRANCH   2  13
ATOM     13  N   UNL     1       2.272   5.623   0.010  0.00  0.00    -0.198 N 
ATOM     14  C   UNL     1       3.433   6.309   0.002  0.00  0.00    +0.299 C 
ATOM     15  O   UNL     1       3.420   7.526   0.009  0.00  0.00    -0.261 OA
ATOM     16  H   UNL     1       1.427   6.100   0.020  0.00  0.00    +0.178 HD
BRANCH  14  17
ATOM     17  S   UNL     1       4.967   5.444  -0.017  0.00  0.00    +0.011 S 
BRANCH  17  18
ATOM     18  C   UNL     1       6.178   6.724  -0.021  0.00  0.00    +0.217 A 
ATOM     19  N   UNL     1       7.502   6.543  -0.035  0.00  0.00    -0.209 NA
ATOM     20  H   UNL     1       7.324   9.624  -0.018  0.00  0.00    +0.190 HD
ATOM     21  C   UNL     1       8.108   7.702  -0.035  0.00  0.00    +0.217 A 
ATOM     22  N   UNL     1       7.171   8.666  -0.021  0.00  0.00    -0.264 N 
ATOM     23  N   UNL     1       5.928   8.012  -0.018  0.00  0.00    -0.145 NA
ENDBRANCH  17  18
ENDBRANCH  14  17
ENDBRANCH   2  13
TORSDOF 5
