REMARK  Name = ZINC13175316
REMARK  7 active torsions:
REMARK  status: ('A' for Active; 'I' for Inactive)
REMARK    1  A    between atoms: C_4  and  N_11
REMARK    2  A    between atoms: C_5  and  C_7
REMARK    3  A    between atoms: C_12  and  C_14
REMARK    4  A    between atoms: C_14  and  S_15
REMARK    5  A    between atoms: S_15  and  C_16
REMARK    6  A    between atoms: C_17  and  C_33
REMARK    7  A    between atoms: C_18  and  C_28
REMARK                            x       y       z     vdW  Elec       q    Type
REMARK                         _______ _______ _______ _____ _____    ______ ____
ROOT
ATOM      1  C   UNL     1       8.881  -0.511  -0.551  0.00  0.00    +0.112 C 
ATOM      2  C   UNL     1      10.117   0.104  -0.664  0.00  0.00    +0.076 C 
ATOM      3  C   UNL     1      11.333  -0.796  -0.786  0.00  0.00    +0.133 C 
ATOM      4  C   UNL     1      11.056  -2.288  -0.771  0.00  0.00    +0.032 C 
ATOM      5  C   UNL     1      12.072  -3.160  -0.870  0.00  0.00    +0.162 C 
ATOM      6  C   UNL     1      11.831  -4.646  -0.859  0.00  0.00    +0.080 C 
ATOM      7  C   UNL     1      10.578  -4.949  -0.034  0.00  0.00    +0.014 C 
ATOM      8  C   UNL     1       9.395  -4.182  -0.630  0.00  0.00    +0.056 C 
ATOM      9  C   UNL     1       9.718  -2.707  -0.648  0.00  0.00    +0.050 C 
ATOM     10  N   UNL     1       8.743  -1.838  -0.543  0.00  0.00    -0.244 NA
ATOM     11  O   UNL     1      13.332  -2.696  -0.983  0.00  0.00    -0.292 OA
ENDROOT
BRANCH   3  12
ATOM     12  C   UNL     1      12.035  -0.466  -2.078  0.00  0.00    +0.117 A 
ATOM     13  C   UNL     1      13.304  -0.033  -2.195  0.00  0.00    +0.045 A 
ATOM     14  C   UNL     1      13.548   0.151  -3.575  0.00  0.00    +0.041 A 
ATOM     15  C   UNL     1      12.414  -0.180  -4.219  0.00  0.00    +0.195 A 
ATOM     16  O   UNL     1      11.504  -0.559  -3.308  0.00  0.00    -0.467 OA
ENDBRANCH   3  12
BRANCH   2  17
ATOM     17  C   UNL     1      10.242   1.531  -0.665  0.00  0.00    +0.099 C 
ATOM     18  N   UNL     1      10.341   2.662  -0.666  0.00  0.00    -0.191 NA
ENDBRANCH   2  17
BRANCH   1  19
ATOM     19  S   UNL     1       7.441   0.494  -0.406  0.00  0.00    -0.096 S 
BRANCH  19  20
ATOM     20  C   UNL     1       6.083  -0.701  -0.278  0.00  0.00    +0.172 C 
BRANCH  20  22
ATOM     21  N   UNL     1       3.622  -0.651  -0.037  0.00  0.00    -0.284 N 
ATOM     22  C   UNL     1       4.775   0.037  -0.147  0.00  0.00    +0.227 C 
ATOM     23  O   UNL     1       4.761   1.250  -0.141  0.00  0.00    -0.275 OA
ATOM     24  H   UNL     1       3.639  -1.618   0.038  0.00  0.00    +0.155 HD
BRANCH  21  28
ATOM     25  C   UNL     1      -0.019   1.375  -0.023  0.00  0.00    +0.001 A 
ATOM     26  C   UNL     1       1.087   1.947  -0.626  0.00  0.00    +0.002 A 
ATOM     27  C   UNL     1       2.295   1.278  -0.633  0.00  0.00    +0.024 A 
ATOM     28  C   UNL     1       2.399   0.030  -0.032  0.00  0.00    +0.045 A 
ATOM     29  C   UNL     1       1.287  -0.541   0.573  0.00  0.00    +0.076 A 
ATOM     30  C   UNL     1       0.082   0.133   0.576  0.00  0.00    +0.014 A 
BRANCH  29  31
ATOM     31  C   UNL     1       1.396  -1.895   1.226  0.00  0.00    +0.419 C 
ATOM     32  F   UNL     1       0.155  -2.255   1.761  0.00  0.00    -0.166 F 
ATOM     33  F   UNL     1       1.785  -2.842   0.273  0.00  0.00    -0.166 F 
ATOM     34  F   UNL     1       2.349  -1.845   2.249  0.00  0.00    -0.166 F 
ENDBRANCH  29  31
ENDBRANCH  21  28
ENDBRANCH  20  22
ENDBRANCH  19  20
ENDBRANCH   1  19
TORSDOF 7
