REMARK  Name = ZINC29273260
REMARK  9 active torsions:
REMARK  status: ('A' for Active; 'I' for Inactive)
REMARK    1  A    between atoms: C_1  and  C_2
REMARK    2  A    between atoms: C_5  and  N_9
REMARK    3  A    between atoms: C_7  and  C_8
REMARK    4  A    between atoms: N_9  and  C_10
REMARK    5  A    between atoms: C_10  and  C_11
REMARK    6  A    between atoms: C_11  and  C_12
REMARK    7  A    between atoms: C_14  and  C_16
REMARK    8  A    between atoms: C_16  and  S_17
REMARK    9  A    between atoms: S_17  and  C_18
REMARK                            x       y       z     vdW  Elec       q    Type
REMARK                         _______ _______ _______ _____ _____    ______ ____
ROOT
ATOM      1  N   UNL     1      -0.684   1.550   1.225  0.00  0.00    -0.270 N 
ATOM      2  C   UNL     1      -1.633   0.799   1.818  0.00  0.00    +0.230 C 
ATOM      3  O   UNL     1      -2.225   1.223   2.788  0.00  0.00    -0.274 OA
ENDROOT
BRANCH   1   8
ATOM      4  C   UNL     1       0.855   6.504   3.523  0.00  0.00    +0.044 C 
ATOM      5  C   UNL     1       0.446   5.188   2.912  0.00  0.00    -0.047 A 
ATOM      6  C   UNL     1      -0.823   5.037   2.383  0.00  0.00    +0.005 A 
ATOM      7  C   UNL     1      -1.198   3.835   1.817  0.00  0.00    +0.024 A 
ATOM      8  C   UNL     1      -0.305   2.772   1.792  0.00  0.00    +0.037 A 
ATOM      9  C   UNL     1       0.969   2.926   2.324  0.00  0.00    +0.027 A 
ATOM     10  C   UNL     1       1.340   4.134   2.882  0.00  0.00    -0.046 A 
ATOM     11  C   UNL     1       2.722   4.302   3.460  0.00  0.00    +0.044 C 
ENDBRANCH   1   8
BRANCH   1  12
ATOM     12  C   UNL     1      -0.051   1.088  -0.012  0.00  0.00    +0.128 C 
BRANCH  12  13
ATOM     13  C   UNL     1      -0.846   1.601  -1.215  0.00  0.00    +0.138 C 
BRANCH  13  14
ATOM     14  C   UNL     1      -0.209   1.136  -2.458  0.00  0.00    +0.064 C 
ATOM     15  N   UNL     1       0.282   0.777  -3.417  0.00  0.00    -0.197 NA
ENDBRANCH  13  14
ENDBRANCH  12  13
ENDBRANCH   1  12
BRANCH   2  16
ATOM     16  C   UNL     1      -1.959  -0.569   1.276  0.00  0.00    +0.173 C 
BRANCH  16  17
ATOM     17  S   UNL     1      -3.267  -1.323   2.282  0.00  0.00    -0.075 S 
BRANCH  17  18
ATOM     18  C   UNL     1      -3.530  -2.894   1.530  0.00  0.00    +0.210 A 
ATOM     19  N   UNL     1      -4.427  -3.841   1.940  0.00  0.00    -0.188 NA
ATOM     20  H   UNL     1      -3.001  -5.222  -0.635  0.00  0.00    +0.192 HD
ATOM     21  C   UNL     1      -4.322  -4.914   1.101  0.00  0.00    +0.209 A 
ATOM     22  N   UNL     1      -3.400  -4.643   0.211  0.00  0.00    -0.246 N 
ATOM     23  N   UNL     1      -2.901  -3.362   0.480  0.00  0.00    -0.144 NA
ATOM     24  N   UNL     1      -5.064  -6.086   1.178  0.00  0.00    -0.328 N 
ATOM     25  H   UNL     1      -4.897  -6.891   0.447  0.00  0.00    +0.145 HD
ATOM     26  H   UNL     1      -5.817  -6.209   1.970  0.00  0.00    +0.145 HD
ENDBRANCH  17  18
ENDBRANCH  16  17
ENDBRANCH   2  16
TORSDOF 7
