REMARK  Name = ZINC61596001
REMARK  6 active torsions:
REMARK  status: ('A' for Active; 'I' for Inactive)
REMARK    1  A    between atoms: C_1  and  C_2
REMARK    2  A    between atoms: C_2  and  C_3
REMARK    3  A    between atoms: C_3  and  N_4
REMARK    4  A    between atoms: C_10  and  S_11
REMARK    5  A    between atoms: S_11  and  C_12
REMARK    6  A    between atoms: C_13  and  N_19
REMARK                            x       y       z     vdW  Elec       q    Type
REMARK                         _______ _______ _______ _____ _____    ______ ____
ROOT
ATOM      1  S   UNL     1      -1.383  -2.261   2.790  0.00  0.00    -0.028 S 
ENDROOT
BRANCH   1   8
ATOM      2  N   UNL     1      -1.413  -1.998   0.005  0.00  0.00    -0.270 N 
ATOM      3  C   UNL     1      -1.407  -2.782  -1.092  0.00  0.00    +0.345 A 
ATOM      4  O   UNL     1      -1.417  -2.400  -2.249  0.00  0.00    -0.245 OA
ATOM      5  N   UNL     1      -1.387  -4.065  -0.677  0.00  0.00    -0.226 N 
ATOM      6  H   UNL     1      -1.378  -4.852  -1.243  0.00  0.00    +0.194 HD
ATOM      7  N   UNL     1      -1.381  -4.052   0.725  0.00  0.00    -0.144 NA
ATOM      8  C   UNL     1      -1.392  -2.810   1.116  0.00  0.00    +0.198 A 
BRANCH   2   9
ATOM      9  C   UNL     1      -1.433  -0.534   0.013  0.00  0.00    +0.129 C 
BRANCH   9  11
ATOM     10  C   UNL     1      -0.019   1.526   0.010  0.00  0.00    +0.005 C 
ATOM     11  C   UNL     1       0.002  -0.004   0.002  0.00  0.00    +0.018 C 
ENDBRANCH   9  11
ENDBRANCH   2   9
ENDBRANCH   1   8
BRANCH   1  12
ATOM     12  C   UNL     1      -1.354  -3.752   3.729  0.00  0.00    +0.136 A 
ATOM     13  C   UNL     1      -1.348  -3.692   5.119  0.00  0.00    +0.158 A 
ATOM     14  C   UNL     1      -1.325  -4.870   5.843  0.00  0.00    +0.038 A 
ATOM     15  C   UNL     1      -1.309  -6.073   5.152  0.00  0.00    +0.042 A 
ATOM     16  C   UNL     1      -1.317  -6.060   3.770  0.00  0.00    +0.131 A 
ATOM     17  N   UNL     1      -1.344  -4.920   3.104  0.00  0.00    -0.226 NA
ATOM     18 CL   UNL     1      -1.297  -7.561   2.898  0.00  0.00    -0.062 Cl
BRANCH  13  19
ATOM     19  N   UNL     1      -1.364  -2.384   5.813  0.00  0.00    +0.059 N 
ATOM     20  O   UNL     1      -1.359  -2.341   7.021  0.00  0.00    -0.126 OA
ATOM     21  O   UNL     1      -1.384  -1.359   5.171  0.00  0.00    -0.126 OA
ENDBRANCH  13  19
ENDBRANCH   1  12
TORSDOF 5
