REMARK  Name = ZINC39782135
REMARK  10 active torsions:
REMARK  status: ('A' for Active; 'I' for Inactive)
REMARK    1  A    between atoms: C_1  and  C_2
REMARK    2  A    between atoms: C_6  and  N_12
REMARK    3  A    between atoms: C_9  and  C_11
REMARK    4  A    between atoms: C_13  and  C_15
REMARK    5  A    between atoms: C_15  and  S_16
REMARK    6  A    between atoms: S_16  and  C_17
REMARK    7  A    between atoms: N_28  and  C_29
REMARK    8  A    between atoms: C_29  and  C_30
REMARK    9  A    between atoms: C_30  and  C_31
REMARK   10  A    between atoms: C_31  and  O_32
REMARK                            x       y       z     vdW  Elec       q    Type
REMARK                         _______ _______ _______ _____ _____    ______ ____
ROOT
ATOM      1  C   UNL     1      -4.645  -4.879  -1.470  0.00  0.00    +0.168 C 
ENDROOT
BRANCH   1   3
ATOM      2  N   UNL     1      -3.401  -2.952  -0.543  0.00  0.00    -0.285 N 
ATOM      3  C   UNL     1      -4.418  -3.827  -0.415  0.00  0.00    +0.225 C 
ATOM      4  O   UNL     1      -5.151  -3.768   0.550  0.00  0.00    -0.275 OA
ATOM      5  H   UNL     1      -2.815  -2.999  -1.315  0.00  0.00    +0.151 HD
BRANCH   2  10
ATOM      6  C   UNL     1      -0.019   1.526   0.010  0.00  0.00    +0.030 C 
ATOM      7  C   UNL     1       0.002  -0.004   0.002  0.00  0.00    +0.099 C 
ATOM      8  C   UNL     1      -1.409  -0.528   0.019  0.00  0.00    -0.011 C 
ATOM      9  C   UNL     1      -1.717  -1.674   0.651  0.00  0.00    +0.065 C 
ATOM     10  C   UNL     1      -3.181  -1.929   0.482  0.00  0.00    +0.243 C 
ATOM     11  O   UNL     1      -3.752  -0.670   0.063  0.00  0.00    -0.347 OA
ATOM     12  C   UNL     1      -2.663   0.023  -0.586  0.00  0.00    +0.146 C 
ATOM     13  C   UNL     1      -2.687  -0.251  -2.091  0.00  0.00    +0.043 C 
ATOM     14  C   UNL     1      -0.670  -2.429   1.357  0.00  0.00    +0.258 C 
ATOM     15  O   UNL     1      -0.872  -3.538   1.815  0.00  0.00    -0.269 OA
ATOM     16  N   UNL     1       0.533  -1.813   1.465  0.00  0.00    -0.247 N 
ATOM     17  N   UNL     1       0.706  -0.493   1.194  0.00  0.00    -0.233 NA
ATOM     18  H   UNL     1       1.300  -2.335   1.746  0.00  0.00    +0.169 HD
ATOM     19  H   UNL     1       1.686  -0.255   1.159  0.00  0.00    +0.145 HD
ENDBRANCH   2  10
ENDBRANCH   1   3
BRANCH   1  20
ATOM     20  S   UNL     1      -6.077  -5.894  -1.013  0.00  0.00    -0.110 S 
BRANCH  20  21
ATOM     21  C   UNL     1      -6.213  -7.095  -2.366  0.00  0.00    +0.222 C 
ATOM     22  N   UNL     1      -4.980  -7.888  -2.437  0.00  0.00    -0.317 N 
ATOM     23  C   UNL     1      -3.848  -7.317  -3.007  0.00  0.00    +0.041 A 
ATOM     24  C   UNL     1      -2.571  -7.689  -2.623  0.00  0.00    +0.024 A 
ATOM     25  C   UNL     1      -1.476  -7.101  -3.226  0.00  0.00    +0.002 A 
ATOM     26  C   UNL     1      -1.646  -6.142  -4.213  0.00  0.00    +0.001 A 
ATOM     27  C   UNL     1      -2.912  -5.757  -4.605  0.00  0.00    +0.015 A 
ATOM     28  C   UNL     1      -4.024  -6.338  -4.001  0.00  0.00    +0.058 A 
ATOM     29  C   UNL     1      -5.396  -5.943  -4.367  0.00  0.00    +0.250 C 
ATOM     30  O   UNL     1      -5.592  -5.226  -5.329  0.00  0.00    -0.270 OA
ATOM     31  N   UNL     1      -6.428  -6.383  -3.626  0.00  0.00    -0.270 N 
ATOM     32  H   UNL     1      -4.956  -8.794  -2.092  0.00  0.00    +0.149 HD
BRANCH  31  33
ATOM     33  C   UNL     1      -7.796  -6.141  -4.091  0.00  0.00    +0.113 C 
BRANCH  33  34
ATOM     34  C   UNL     1      -8.293  -4.803  -3.541  0.00  0.00    +0.047 C 
BRANCH  34  35
ATOM     35  C   UNL     1      -9.722  -4.551  -4.027  0.00  0.00    +0.157 C 
BRANCH  35  36
ATOM     36  O   UNL     1     -10.186  -3.301  -3.513  0.00  0.00    -0.395 OA
ATOM     37  H   UNL     1     -11.087  -3.076  -3.781  0.00  0.00    +0.209 HD
ENDBRANCH  35  36
ENDBRANCH  34  35
ENDBRANCH  33  34
ENDBRANCH  31  33
ENDBRANCH  20  21
ENDBRANCH   1  20
TORSDOF 8
