REMARK  Name = ZINC05860347
REMARK  8 active torsions:
REMARK  status: ('A' for Active; 'I' for Inactive)
REMARK    1  A    between atoms: C_1  and  C_2
REMARK    2  A    between atoms: C_2  and  C_26
REMARK    3  A    between atoms: C_7  and  C_25
REMARK    4  A    between atoms: N_9  and  N_10
REMARK    5  A    between atoms: C_11  and  C_13
REMARK    6  A    between atoms: C_13  and  O_14
REMARK    7  A    between atoms: O_14  and  C_15
REMARK    8  A    between atoms: C_15  and  C_17
REMARK                            x       y       z     vdW  Elec       q    Type
REMARK                         _______ _______ _______ _____ _____    ______ ____
ROOT
ATOM      1  N   UNL     1      -5.178   1.642   1.011  0.00  0.00    -0.204 N 
ATOM      2  C   UNL     1      -4.145   2.191   1.679  0.00  0.00    +0.270 C 
ATOM      3  O   UNL     1      -4.287   3.250   2.252  0.00  0.00    -0.270 OA
ATOM      4  H   UNL     1      -5.065   0.794   0.553  0.00  0.00    +0.177 HD
ENDROOT
BRANCH   1  12
ATOM      5  C   UNL     1      -9.458  -1.379  -0.377  0.00  0.00    +0.012 C 
ATOM      6  C   UNL     1      -9.014  -0.058   0.253  0.00  0.00    -0.021 C 
ATOM      7  C   UNL     1      -9.622   1.185  -0.491  0.00  0.00    +0.001 C 
ATOM      8  C   UNL     1      -8.984   1.013  -1.904  0.00  0.00    +0.005 C 
ATOM      9  C   UNL     1      -7.585   0.417  -1.626  0.00  0.00    +0.013 C 
ATOM     10  C   UNL     1      -7.517   0.280  -0.075  0.00  0.00    +0.013 C 
ATOM     11  C   UNL     1      -7.428   1.724   0.437  0.00  0.00    +0.044 C 
ATOM     12  N   UNL     1      -6.417   2.295   0.977  0.00  0.00    -0.189 NA
ATOM     13  C   UNL     1      -8.798   2.331   0.173  0.00  0.00    +0.057 C 
ATOM     14  C   UNL     1      -6.459  -0.686   0.464  0.00  0.00    +0.018 C 
ATOM     15  C   UNL     1      -9.296  -0.022   1.757  0.00  0.00    +0.012 C 
ENDBRANCH   1  12
BRANCH   2  16
ATOM     16  C   UNL     1      -2.812   1.488   1.715  0.00  0.00    +0.329 C 
BRANCH  16  17
ATOM     17  O   UNL     1      -1.871   2.274   2.492  0.00  0.00    -0.452 OA
BRANCH  17  18
ATOM     18  C   UNL     1      -0.624   1.782   2.622  0.00  0.00    +0.340 C 
ATOM     19  O   UNL     1      -0.331   0.724   2.101  0.00  0.00    -0.245 OA
BRANCH  18  20
ATOM     20  C   UNL     1       0.389   2.531   3.393  0.00  0.00    +0.059 A 
ATOM     21  C   UNL     1       0.057   3.750   3.988  0.00  0.00    +0.016 A 
ATOM     22  C   UNL     1       1.005   4.442   4.712  0.00  0.00    +0.021 A 
ATOM     23  C   UNL     1       2.288   3.935   4.839  0.00  0.00    +0.041 A 
ATOM     24  C   UNL     1       2.625   2.730   4.247  0.00  0.00    +0.021 A 
ATOM     25  C   UNL     1       1.684   2.026   3.525  0.00  0.00    +0.016 A 
ATOM     26 CL   UNL     1       3.478   4.816   5.746  0.00  0.00    -0.084 Cl
ENDBRANCH  18  20
ENDBRANCH  17  18
ENDBRANCH  16  17
ENDBRANCH   2  16
TORSDOF 5
