REMARK  Name = ZINC43660012
REMARK  5 active torsions:
REMARK  status: ('A' for Active; 'I' for Inactive)
REMARK    1  A    between atoms: C_1  and  C_2
REMARK    2  A    between atoms: C_6  and  O_22
REMARK    3  A    between atoms: C_8  and  C_11
REMARK    4  A    between atoms: C_11  and  C_12
REMARK    5  A    between atoms: C_17  and  N_18
REMARK                            x       y       z     vdW  Elec       q    Type
REMARK                         _______ _______ _______ _____ _____    ______ ____
ROOT
ATOM      1  C   UNL     1       1.486  -2.548   2.451  0.00  0.00    +0.043 C 
ENDROOT
BRANCH   1   7
ATOM      2  C   UNL     1       0.081   1.512  -0.100  0.00  0.00    +0.007 C 
ATOM      3  C   UNL     1       0.108  -0.017  -0.103  0.00  0.00    -0.014 C 
ATOM      4  C   UNL     1      -1.324  -0.552  -0.166  0.00  0.00    +0.006 C 
ATOM      5  C   UNL     1      -1.297  -2.082  -0.169  0.00  0.00    +0.032 C 
ATOM      6  C   UNL     1      -0.622  -2.583   1.109  0.00  0.00    +0.118 C 
ATOM      7  C   UNL     1       0.810  -2.048   1.173  0.00  0.00    +0.022 C 
ATOM      8  C   UNL     1       0.783  -0.518   1.175  0.00  0.00    +0.009 C 
BRANCH   6   9
ATOM      9  O   UNL     1      -1.353  -2.121   2.247  0.00  0.00    -0.392 OA
ATOM     10  H   UNL     1      -2.272  -2.423   2.272  0.00  0.00    +0.210 HD
ENDBRANCH   6   9
ENDBRANCH   1   7
BRANCH   1  11
ATOM     11  C   UNL     1       1.623  -4.048   2.393  0.00  0.00    -0.014 A 
ATOM     12  C   UNL     1       0.750  -4.849   3.105  0.00  0.00    +0.044 A 
ATOM     13  C   UNL     1       0.876  -6.227   3.051  0.00  0.00    +0.124 A 
ATOM     14  C   UNL     1       1.876  -6.800   2.284  0.00  0.00    +0.040 A 
ATOM     15  C   UNL     1       2.747  -5.997   1.572  0.00  0.00    +0.036 A 
ATOM     16  C   UNL     1       2.616  -4.621   1.622  0.00  0.00    +0.130 A 
ATOM     17  F   UNL     1       0.025  -7.011   3.748  0.00  0.00    -0.205 F 
BRANCH  16  18
ATOM     18  N   UNL     1       3.546  -3.762   0.855  0.00  0.00    +0.057 N 
ATOM     19  O   UNL     1       4.352  -4.262   0.105  0.00  0.00    -0.126 OA
ATOM     20  O   UNL     1       3.498  -2.560   0.977  0.00  0.00    -0.126 OA
ENDBRANCH  16  18
ENDBRANCH   1  11
TORSDOF 4
