REMARK  Name = ZINC26771628
REMARK  11 active torsions:
REMARK  status: ('A' for Active; 'I' for Inactive)
REMARK    1  A    between atoms: CD1_1  and  CG1_2
REMARK    2  A    between atoms: CG1_2  and  CB_3
REMARK    3  A    between atoms: CB_3  and  CG2_5
REMARK    4  A    between atoms: CB_3  and  CA_6
REMARK    5  A    between atoms: CA_6  and  C_8
REMARK    6  A    between atoms: CA_6  and  N_11
REMARK    7  A    between atoms: C_12  and  C_14
REMARK    8  A    between atoms: C_14  and  C_15
REMARK    9  A    between atoms: C_16  and  C_36
REMARK   10  A    between atoms: C_20  and  C_30
REMARK   11  A    between atoms: C_24  and  C_29
REMARK                            x       y       z     vdW  Elec       q    Type
REMARK                         _______ _______ _______ _____ _____    ______ ____
ROOT
ATOM      1  C   UNK A   0      -0.742   1.585  -1.213  0.00  0.00    +0.049 A 
ATOM      2  C   UNK A   0      -1.732   0.840  -1.766  0.00  0.00    -0.029 A 
ATOM      3  C   UNK A   0      -2.417   1.368  -2.950  0.00  0.00    +0.022 A 
ATOM      4  C   UNK A   0      -3.446   0.648  -3.560  0.00  0.00    +0.024 A 
ATOM      5  C   UNK A   0      -4.069   1.174  -4.681  0.00  0.00    +0.029 A 
ATOM      6  C   UNK A   0      -5.161   0.709  -5.559  0.00  0.00    +0.028 A 
ATOM      7  C   UNK A   0      -5.319   1.672  -6.494  0.00  0.00    +0.204 A 
ATOM      8  O   UNK A   0      -4.444   2.670  -6.280  0.00  0.00    -0.462 OA
ATOM      9  C   UNK A   0      -3.671   2.419  -5.204  0.00  0.00    +0.142 A 
ATOM     10  C   UNK A   0      -2.647   3.129  -4.593  0.00  0.00    +0.035 A 
ATOM     11  C   UNK A   0      -2.017   2.615  -3.473  0.00  0.00    +0.146 A 
ATOM     12  O   UNK A   0      -1.019   3.302  -2.874  0.00  0.00    -0.422 OA
ATOM     13  C   UNK A   0      -0.393   2.826  -1.787  0.00  0.00    +0.341 A 
ATOM     14  O   UNK A   0       0.501   3.481  -1.283  0.00  0.00    -0.245 OA
ATOM     15  C   UNK A   0      -2.219   4.462  -5.151  0.00  0.00    +0.051 C 
ATOM     16  C   UNK A   0      -2.120  -0.492  -1.177  0.00  0.00    +0.045 C 
ENDROOT
BRANCH   6  17
ATOM     17  C   UNK A   0      -5.926  -0.555  -5.441  0.00  0.00    -0.014 A 
ATOM     18  C   UNK A   0      -5.254  -1.770  -5.307  0.00  0.00    +0.008 A 
ATOM     19  C   UNK A   0      -5.972  -2.943  -5.192  0.00  0.00    +0.001 A 
ATOM     20  C   UNK A   0      -7.355  -2.916  -5.220  0.00  0.00    +0.000 A 
ATOM     21  C   UNK A   0      -8.027  -1.715  -5.358  0.00  0.00    +0.001 A 
ATOM     22  C   UNK A   0      -7.320  -0.535  -5.468  0.00  0.00    +0.008 A 
ENDBRANCH   6  17
BRANCH   1  23
ATOM     23  C   UNK A   0      -0.013   1.086   0.008  0.00  0.00    +0.138 C 
BRANCH  23  25
ATOM     24  N   ILE A   1      -0.242   1.246   2.466  0.00  0.00    -0.302 N 
ATOM     25  C   UNK A   0      -0.718   1.572   1.248  0.00  0.00    +0.218 C 
ATOM     26  O   UNK A   0      -1.714   2.256   1.150  0.00  0.00    -0.275 OA
ATOM     27  H   ILE A   1       0.662   0.625   2.555  0.00  0.00    +0.150 HD
BRANCH  24  28
ATOM     28  CA  ILE A   1      -0.927   1.718   3.671  0.00  0.00    +0.189 C 
BRANCH  28  29
ATOM     29  C   ILE A   1      -0.445   3.105   4.013  0.00  0.00    +0.376 C 
ATOM     30  O   ILE A   1       0.386   3.643   3.320  0.00  0.00    -0.244 OA
ATOM     31  OXT ILE A   1      -0.939   3.742   5.086  0.00  0.00    -0.244 OA
ENDBRANCH  28  29
BRANCH  28  32
ATOM     32  CB  ILE A   1      -0.624   0.772   4.834  0.00  0.00    +0.017 C 
ATOM     33  CG2 ILE A   1       0.868   0.834   5.167  0.00  0.00    +0.010 C 
BRANCH  32  35
ATOM     34  CD1 ILE A   1      -1.231   0.176   7.184  0.00  0.00    +0.004 C 
ATOM     35  CG1 ILE A   1      -1.438   1.193   6.060  0.00  0.00    +0.002 C 
ENDBRANCH  32  35
ENDBRANCH  28  32
ENDBRANCH  24  28
ENDBRANCH  23  25
ENDBRANCH   1  23
TORSDOF 7
