REMARK  Name = ZINC53128540
REMARK  6 active torsions:
REMARK  status: ('A' for Active; 'I' for Inactive)
REMARK    1  A    between atoms: C_1  and  C_2
REMARK    2  A    between atoms: C_4  and  N_9
REMARK    3  A    between atoms: N_9  and  C_10
REMARK    4  A    between atoms: C_10  and  C_18
REMARK    5  A    between atoms: C_14  and  C_17
REMARK    6  A    between atoms: C_18  and  O_19
REMARK                            x       y       z     vdW  Elec       q    Type
REMARK                         _______ _______ _______ _____ _____    ______ ____
ROOT
ATOM      1  N   UNL     1      -0.136  -3.042  -2.149  0.00  0.00    -0.321 N 
ATOM      2  H   UNL     1       0.638  -2.849  -1.597  0.00  0.00    +0.148 HD
ENDROOT
BRANCH   1   6
ATOM      3  C   UNL     1      -4.271  -5.609  -2.884  0.00  0.00    +0.066 C 
ATOM      4  C   UNL     1      -3.115  -5.164  -2.024  0.00  0.00    +0.045 A 
ATOM      5  C   UNL     1      -2.166  -4.295  -2.525  0.00  0.00    +0.066 A 
ATOM      6  C   UNL     1      -1.113  -3.911  -1.692  0.00  0.00    +0.124 A 
ATOM      7  N   UNL     1      -1.062  -4.394  -0.454  0.00  0.00    -0.203 NA
ATOM      8  C   UNL     1      -1.990  -5.222  -0.017  0.00  0.00    +0.225 A 
ATOM      9  N   UNL     1      -3.000  -5.599  -0.777  0.00  0.00    -0.223 NA
ATOM     10 CL   UNL     1      -1.884  -5.828   1.607  0.00  0.00    -0.041 Cl
ENDBRANCH   1   6
BRANCH   1  11
ATOM     11  C   UNL     1      -0.271  -2.413  -3.465  0.00  0.00    +0.057 C 
ATOM     12  C   UNL     1       0.860  -1.403  -3.667  0.00  0.00    +0.028 C 
ATOM     13  C   UNL     1       2.207  -2.122  -3.582  0.00  0.00    +0.002 C 
ATOM     14  C   UNL     1       2.282  -3.196  -4.670  0.00  0.00    +0.003 C 
ATOM     15  C   UNL     1       1.151  -4.206  -4.468  0.00  0.00    -0.012 C 
ATOM     16  C   UNL     1      -0.197  -3.486  -4.553  0.00  0.00    +0.031 C 
ATOM     17  C   UNL     1       1.293  -4.862  -3.093  0.00  0.00    +0.007 C 
BRANCH  11  18
ATOM     18  C   UNL     1      -1.619  -1.694  -3.550  0.00  0.00    +0.181 C 
BRANCH  18  19
ATOM     19  O   UNL     1      -1.659  -0.642  -2.584  0.00  0.00    -0.393 OA
ATOM     20  H   UNL     1      -2.487  -0.142  -2.581  0.00  0.00    +0.209 HD
ENDBRANCH  18  19
ENDBRANCH  11  18
ENDBRANCH   1  11
TORSDOF 4
