REMARK  Name = ZINC04073925
REMARK  6 active torsions:
REMARK  status: ('A' for Active; 'I' for Inactive)
REMARK    1  A    between atoms: C_4  and  O_18
REMARK    2  A    between atoms: C_5  and  C_8
REMARK    3  A    between atoms: C_8  and  C_9
REMARK    4  A    between atoms: C_9  and  C_10
REMARK    5  A    between atoms: C_10  and  C_11
REMARK    6  A    between atoms: C_11  and  C_12
REMARK                            x       y       z     vdW  Elec       q    Type
REMARK                         _______ _______ _______ _____ _____    ______ ____
ROOT
ATOM      1  C   UNL     1       1.666   1.842   4.593  0.00  0.00    +0.096 C 
ATOM      2  C   UNL     1       0.165   1.870   4.950  0.00  0.00    +0.135 C 
ATOM      3  C   UNL     1      -0.750   1.444   3.797  0.00  0.00    +0.165 C 
ATOM      4  C   UNL     1       0.011   1.072   2.506  0.00  0.00    +0.099 C 
ATOM      5  S   UNL     1       1.600   1.979   2.746  0.00  0.00    -0.151 S 
ATOM      6  N   UNL     1      -1.431   0.247   4.315  0.00  0.00    -0.269 N 
ATOM      7  C   UNL     1      -1.000   0.005   5.561  0.00  0.00    +0.302 C 
ATOM      8  O   UNL     1      -1.399  -0.927   6.231  0.00  0.00    -0.253 OA
ATOM      9  N   UNL     1      -0.091   0.885   6.001  0.00  0.00    -0.291 N 
ATOM     10  H   UNL     1      -2.086  -0.281   3.833  0.00  0.00    +0.153 HD
ATOM     11  H   UNL     1       0.332   0.870   6.874  0.00  0.00    +0.151 HD
ENDROOT
BRANCH   3  12
ATOM     12  O   UNL     1      -1.705   2.472   3.524  0.00  0.00    -0.369 OA
ATOM     13  H   UNL     1      -2.216   2.749   4.297  0.00  0.00    +0.212 HD
ENDBRANCH   3  12
BRANCH   4  14
ATOM     14  C   UNL     1      -0.729   1.579   1.267  0.00  0.00    +0.019 C 
BRANCH  14  15
ATOM     15  C   UNL     1      -0.013   1.086   0.008  0.00  0.00    +0.002 C 
BRANCH  15  16
ATOM     16  C   UNL     1      -0.753   1.593  -1.232  0.00  0.00    +0.011 C 
BRANCH  16  17
ATOM     17  C   UNL     1      -0.037   1.099  -2.490  0.00  0.00    +0.125 C 
BRANCH  17  18
ATOM     18  C   UNL     1      -0.765   1.598  -3.711  0.00  0.00    +0.356 C 
ATOM     19  O   UNL     1      -1.756   2.279  -3.587  0.00  0.00    -0.246 OA
ATOM     20  O   UNL     1      -0.314   1.287  -4.936  0.00  0.00    -0.246 OA
ENDBRANCH  17  18
ENDBRANCH  16  17
ENDBRANCH  15  16
ENDBRANCH  14  15
ENDBRANCH   4  14
TORSDOF 6
