REMARK  Name = ZINC67269556
REMARK  7 active torsions:
REMARK  status: ('A' for Active; 'I' for Inactive)
REMARK    1  A    between atoms: C_1  and  C_2
REMARK    2  A    between atoms: C_7  and  C_9
REMARK    3  A    between atoms: C_7  and  N_25
REMARK    4  A    between atoms: C_9  and  N_10
REMARK    5  A    between atoms: C_11  and  C_13
REMARK    6  A    between atoms: N_25  and  C_26
REMARK    7  A    between atoms: N_25  and  C_27
REMARK                            x       y       z     vdW  Elec       q    Type
REMARK                         _______ _______ _______ _____ _____    ______ ____
ROOT
ATOM      1  N   UNL     1       1.149  -4.115   2.383  0.00  0.00    -0.316 N 
ATOM      2  C   UNL     1       1.600  -4.886   3.392  0.00  0.00    +0.216 C 
ATOM      3  O   UNL     1       2.204  -4.383   4.316  0.00  0.00    -0.276 OA
ATOM      4  H   UNL     1       0.665  -4.517   1.644  0.00  0.00    +0.149 HD
ENDROOT
BRANCH   2   5
ATOM      5  C   UNL     1       1.355  -6.372   3.373  0.00  0.00    +0.075 C 
ATOM      6  C   UNL     1      -0.152  -6.640   3.348  0.00  0.00    +0.015 C 
ATOM      7  C   UNL     1      -0.400  -8.150   3.317  0.00  0.00    +0.036 C 
ATOM      8  C   UNL     1       0.228  -8.798   4.546  0.00  0.00    +0.112 C 
ATOM      9  C   UNL     1       1.726  -8.518   4.598  0.00  0.00    +0.036 C 
ATOM     10  C   UNL     1       1.966  -7.006   4.624  0.00  0.00    +0.015 C 
ATOM     11  C   UNL     1      -0.445  -8.303   5.805  0.00  0.00    +0.244 C 
ATOM     12  O   UNL     1      -0.493  -7.162   6.212  0.00  0.00    -0.273 OA
ATOM     13  N   UNL     1      -0.982  -9.399   6.381  0.00  0.00    -0.238 N 
ATOM     14  C   UNL     1      -0.740 -10.502   5.663  0.00  0.00    +0.307 C 
ATOM     15  O   UNL     1      -1.122 -11.612   5.978  0.00  0.00    -0.252 OA
ATOM     16  N   UNL     1      -0.025 -10.244   4.551  0.00  0.00    -0.285 N 
ATOM     17  H   UNL     1      -1.481  -9.389   7.213  0.00  0.00    +0.159 HD
ATOM     18  H   UNL     1       0.265 -10.887   3.885  0.00  0.00    +0.151 HD
ENDBRANCH   2   5
BRANCH   1  19
ATOM     19  C   UNL     1       1.387  -2.670   2.401  0.00  0.00    +0.092 C 
BRANCH  19  25
ATOM     20  C   UNL     1       1.112  -2.509  -2.585  0.00  0.00    +0.007 C 
ATOM     21  C   UNL     1       0.543  -1.940  -1.284  0.00  0.00    -0.015 C 
ATOM     22  C   UNL     1      -0.956  -2.236  -1.211  0.00  0.00    +0.003 C 
ATOM     23  C   UNL     1      -1.525  -1.667   0.091  0.00  0.00    -0.001 C 
ATOM     24  C   UNL     1      -0.819  -2.316   1.283  0.00  0.00    -0.010 C 
ATOM     25  C   UNL     1       0.681  -2.021   1.210  0.00  0.00    -0.050 C 
ATOM     26  C   UNL     1       1.250  -2.589  -0.092  0.00  0.00    -0.007 C 
BRANCH  25  27
ATOM     27  N   UNL     1       0.896  -0.568   1.245  0.00  0.00    +0.381 N 
ATOM     28  C   UNL     1       0.328  -0.018   2.483  0.00  0.00    -0.096 C 
ATOM     29  C   UNL     1       2.337  -0.285   1.199  0.00  0.00    -0.096 C 
ATOM     30  H   UNL     1       0.445  -0.142   0.449  0.00  0.00    -0.082 HD
ENDBRANCH  25  27
ENDBRANCH  19  25
ENDBRANCH   1  19
TORSDOF 4
