REMARK  Name = ZINC32819561
REMARK  6 active torsions:
REMARK  status: ('A' for Active; 'I' for Inactive)
REMARK    1  A    between atoms: C_1  and  C_2
REMARK    2  A    between atoms: C_3  and  C_25
REMARK    3  A    between atoms: C_4  and  C_24
REMARK    4  A    between atoms: C_7  and  C_8
REMARK    5  A    between atoms: C_19  and  C_21
REMARK    6  A    between atoms: C_25  and  C_27
REMARK                            x       y       z     vdW  Elec       q    Type
REMARK                         _______ _______ _______ _____ _____    ______ ____
ROOT
ATOM      1  C   UNL     1       4.047   1.444  -1.306  0.00  0.00    +0.264 C 
ATOM      2  O   UNL     1       4.037   1.616  -0.101  0.00  0.00    -0.268 OA
ATOM      3  N   UNL     1       4.249   0.210  -1.808  0.00  0.00    -0.280 N 
ATOM      4  C   UNL     1       4.601   0.009  -3.218  0.00  0.00    +0.144 C 
ATOM      5  C   UNL     1       5.716  -1.002  -3.323  0.00  0.00    -0.027 A 
ATOM      6  C   UNL     1       6.347  -1.144  -4.552  0.00  0.00    +0.005 A 
ATOM      7  C   UNL     1       7.359  -2.067  -4.716  0.00  0.00    +0.000 A 
ATOM      8  C   UNL     1       7.758  -2.846  -3.646  0.00  0.00    +0.000 A 
ATOM      9  C   UNL     1       7.140  -2.696  -2.422  0.00  0.00    +0.004 A 
ATOM     10  C   UNL     1       6.116  -1.771  -2.254  0.00  0.00    -0.040 A 
ATOM     11  C   UNL     1       5.498  -1.654  -0.886  0.00  0.00    +0.067 C 
ATOM     12  C   UNL     1       4.124  -0.990  -0.965  0.00  0.00    +0.167 C 
ENDROOT
BRANCH   1  19
ATOM     13  C   UNL     1       3.979   4.443  -0.456  0.00  0.00    +0.047 C 
ATOM     14  C   UNL     1       3.808   3.894  -1.849  0.00  0.00    -0.010 A 
ATOM     15  C   UNL     1       3.585   4.643  -3.029  0.00  0.00    +0.041 A 
ATOM     16  C   UNL     1       3.488   3.736  -4.072  0.00  0.00    +0.024 A 
ATOM     17  N   UNL     1       3.647   2.501  -3.574  0.00  0.00    -0.354 N 
ATOM     18  H   UNL     1       3.612   1.629  -4.244  0.00  0.00    +0.166 HD
ATOM     19  C   UNL     1       3.839   2.581  -2.212  0.00  0.00    +0.106 A 
ATOM     20  C   UNL     1       3.251   4.080  -5.521  0.00  0.00    +0.064 C 
BRANCH  15  21
ATOM     21  C   UNL     1       3.476   6.102  -3.128  0.00  0.00    +0.162 C 
ATOM     22  O   UNL     1       2.401   6.643  -2.976  0.00  0.00    -0.292 OA
ATOM     23  C   UNL     1       4.701   6.931  -3.419  0.00  0.00    +0.091 C 
ENDBRANCH  15  21
ENDBRANCH   1  19
BRANCH  12  24
ATOM     24  C   UNL     1       3.667  -0.599   0.417  0.00  0.00    +0.231 C 
ATOM     25  O   UNL     1       2.540  -0.860   0.779  0.00  0.00    -0.274 OA
ATOM     26  N   UNL     1       4.511   0.042   1.249  0.00  0.00    -0.328 N 
ATOM     27  H   UNL     1       4.178   0.328   2.258  0.00  0.00    +0.145 HD
ATOM     28  H   UNL     1       5.534   0.279   0.921  0.00  0.00    +0.145 HD
ENDBRANCH  12  24
TORSDOF 3
