REMARK  Name = ZINC67157472
REMARK  7 active torsions:
REMARK  status: ('A' for Active; 'I' for Inactive)
REMARK    1  A    between atoms: C_2  and  N_23
REMARK    2  A    between atoms: C_6  and  C_7
REMARK    3  A    between atoms: N_9  and  N_10
REMARK    4  A    between atoms: N_10  and  C_11
REMARK    5  A    between atoms: C_11  and  N_13
REMARK    6  A    between atoms: N_13  and  C_14
REMARK    7  A    between atoms: C_14  and  C_15
REMARK                            x       y       z     vdW  Elec       q    Type
REMARK                         _______ _______ _______ _____ _____    ______ ____
ROOT
ATOM      1  C   UNL     1      -1.264  -0.762   0.010  0.00  0.00    +0.264 C 
ATOM      2  O   UNL     1      -1.244  -1.978   0.003  0.00  0.00    -0.269 OA
ATOM      3  N   UNL     1      -2.442  -0.107   0.025  0.00  0.00    -0.231 N 
ATOM      4  H   UNL     1      -2.457   0.863   0.030  0.00  0.00    +0.173 HD
ENDROOT
BRANCH   1  10
ATOM      5  C   UNL     1      -0.017   1.393   0.010  0.00  0.00    +0.049 A 
ATOM      6  C   UNL     1       1.167   2.097   0.002  0.00  0.00    +0.131 A 
ATOM      7  C   UNL     1       2.379   1.427  -0.015  0.00  0.00    +0.082 A 
ATOM      8  C   UNL     1       2.414   0.041  -0.024  0.00  0.00    +0.165 A 
ATOM      9  C   UNL     1       1.228  -0.682  -0.013  0.00  0.00    +0.174 A 
ATOM     10  C   UNL     1       0.002  -0.004   0.002  0.00  0.00    +0.086 A 
ATOM     11  O   UNL     1       1.240  -2.040  -0.014  0.00  0.00    -0.484 OA
ATOM     12  C   UNL     1       2.463  -2.673  -0.406  0.00  0.00    +0.270 C 
ATOM     13  C   UNL     1       3.620  -1.978   0.326  0.00  0.00    +0.270 C 
ATOM     14  O   UNL     1       3.618  -0.595  -0.045  0.00  0.00    -0.485 OA
BRANCH   6  15
ATOM     15  N   UNL     1       1.144   3.577   0.012  0.00  0.00    +0.057 N 
ATOM     16  O   UNL     1       0.088   4.165   0.026  0.00  0.00    -0.126 OA
ATOM     17  O   UNL     1       2.182   4.198   0.005  0.00  0.00    -0.126 OA
ENDBRANCH   6  15
ENDBRANCH   1  10
BRANCH   3  18
ATOM     18  N   UNL     1      -3.643  -0.827   0.032  0.00  0.00    -0.246 N 
ATOM     19  H   UNL     1      -3.628  -1.797   0.027  0.00  0.00    +0.172 HD
BRANCH  18  20
ATOM     20  C   UNL     1      -4.821  -0.172   0.047  0.00  0.00    +0.147 C 
ATOM     21  S   UNL     1      -6.290  -1.052   0.057  0.00  0.00    -0.017 S 
BRANCH  20  22
ATOM     22  N   UNL     1      -4.843   1.175   0.055  0.00  0.00    -0.317 N 
ATOM     23  H   UNL     1      -4.011   1.674   0.049  0.00  0.00    +0.148 HD
BRANCH  22  24
ATOM     24  C   UNL     1      -6.123   1.887   0.071  0.00  0.00    +0.216 C 
BRANCH  24  25
ATOM     25  C   UNL     1      -5.867   3.396   0.076  0.00  0.00    +0.405 C 
ATOM     26  F   UNL     1      -5.150   3.752  -1.071  0.00  0.00    -0.169 F 
ATOM     27  F   UNL     1      -7.090   4.076   0.092  0.00  0.00    -0.169 F 
ATOM     28  F   UNL     1      -5.128   3.740   1.214  0.00  0.00    -0.169 F 
ENDBRANCH  24  25
ENDBRANCH  22  24
ENDBRANCH  20  22
ENDBRANCH  18  20
ENDBRANCH   3  18
TORSDOF 7
