REMARK  Name = ZINC48839781
REMARK  5 active torsions:
REMARK  status: ('A' for Active; 'I' for Inactive)
REMARK    1  A    between atoms: C_4  and  C_20
REMARK    2  A    between atoms: C_6  and  S_7
REMARK    3  A    between atoms: S_7  and  N_10
REMARK    4  A    between atoms: N_10  and  C_11
REMARK    5  A    between atoms: C_17  and  N_19
REMARK                            x       y       z     vdW  Elec       q    Type
REMARK                         _______ _______ _______ _____ _____    ______ ____
ROOT
ATOM      1  S   UNL     1      -1.513  -0.903   0.012  0.00  0.00    +0.059 S 
ATOM      2  O   UNL     1      -1.222  -2.184   0.553  0.00  0.00    -0.153 OA
ATOM      3  O   UNL     1      -2.492  -0.042   0.577  0.00  0.00    -0.153 OA
ENDROOT
BRANCH   1   9
ATOM      4  C   UNL     1      -0.017   1.380   0.010  0.00  0.00    +0.030 A 
ATOM      5  C   UNL     1       1.167   2.095   0.002  0.00  0.00    +0.023 A 
ATOM      6  C   UNL     1       2.378   1.431  -0.013  0.00  0.00    +0.055 A 
ATOM      7  C   UNL     1       2.404   0.033  -0.021  0.00  0.00    +0.083 A 
ATOM      8  C   UNL     1       1.203  -0.681  -0.013  0.00  0.00    +0.045 A 
ATOM      9  C   UNL     1       0.002  -0.004   0.002  0.00  0.00    +0.106 A 
ATOM     10 CL   UNL     1       3.864   2.330  -0.024  0.00  0.00    -0.083 Cl
BRANCH   7  11
ATOM     11  C   UNL     1       3.692  -0.684  -0.038  0.00  0.00    +0.388 C 
ATOM     12  O   UNL     1       3.712  -1.907  -0.045  0.00  0.00    -0.241 OA
ATOM     13  O   UNL     1       4.742  -0.056  -0.046  0.00  0.00    -0.241 OA
ENDBRANCH   7  11
ENDBRANCH   1   9
BRANCH   1  14
ATOM     14  N   UNL     1      -1.950  -1.145  -1.567  0.00  0.00    -0.188 NA
ATOM     15  H   UNL     1      -2.757  -0.734  -1.915  0.00  0.00    +0.148 HD
BRANCH  14  16
ATOM     16  C   UNL     1      -1.118  -1.978  -2.438  0.00  0.00    +0.062 C 
ATOM     17  C   UNL     1      -1.664  -3.407  -2.450  0.00  0.00    +0.019 C 
ATOM     18  C   UNL     1      -3.101  -3.399  -2.974  0.00  0.00    +0.001 C 
ATOM     19  C   UNL     1      -3.123  -2.833  -4.395  0.00  0.00    -0.001 C 
ATOM     20  C   UNL     1      -2.577  -1.404  -4.383  0.00  0.00    -0.015 C 
ATOM     21  C   UNL     1      -1.140  -1.411  -3.859  0.00  0.00    -0.056 C 
BRANCH  21  22
ATOM     22  N   UNL     1      -0.616  -0.039  -3.847  0.00  0.00    +0.381 N 
ATOM     23  H   UNL     1       0.333  -0.044  -3.502  0.00  0.00    -0.090 HD
ATOM     24  H   UNL     1      -0.630   0.335  -4.785  0.00  0.00    -0.090 HD
ATOM     25  H   UNL     1      -1.189   0.535  -3.247  0.00  0.00    -0.090 HD
ENDBRANCH  21  22
ENDBRANCH  14  16
ENDBRANCH   1  14
TORSDOF 5
