REMARK  Name = ZINC67189709
REMARK  6 active torsions:
REMARK  status: ('A' for Active; 'I' for Inactive)
REMARK    1  A    between atoms: C_1  and  O_2
REMARK    2  A    between atoms: O_2  and  C_3
REMARK    3  A    between atoms: C_5  and  C_11
REMARK    4  A    between atoms: C_8  and  O_9
REMARK    5  A    between atoms: C_12  and  C_13
REMARK    6  A    between atoms: C_12  and  C_15
REMARK                            x       y       z     vdW  Elec       q    Type
REMARK                         _______ _______ _______ _____ _____    ______ ____
ROOT
ATOM      1  C   UNL     1      -4.893   0.227   0.216  0.00  0.00    +0.032 C 
ATOM      2  C   UNL     1      -6.074  -0.426  -0.063  0.00  0.00    +0.114 C 
ENDROOT
BRANCH   2   3
ATOM      3  C   UNL     1      -6.119  -1.897  -0.061  0.00  0.00    +0.257 C 
ATOM      4  O   UNL     1      -6.572  -2.490   0.900  0.00  0.00    -0.269 OA
ATOM      5  N   UNL     1      -5.659  -2.587  -1.124  0.00  0.00    -0.297 N 
ATOM      6  C   UNL     1      -5.196  -1.885  -2.328  0.00  0.00    +0.108 C 
ATOM      7  C   UNL     1      -3.779  -2.363  -2.663  0.00  0.00    +0.019 C 
ATOM      8  C   UNL     1      -3.775  -3.888  -2.784  0.00  0.00    +0.003 C 
ATOM      9  C   UNL     1      -4.191  -4.509  -1.448  0.00  0.00    +0.019 C 
ATOM     10  C   UNL     1      -5.607  -4.055  -1.097  0.00  0.00    +0.108 C 
ENDBRANCH   2   3
BRANCH   1  13
ATOM     11  C   UNL     1      -1.342  -0.886   0.652  0.00  0.00    +0.163 A 
ATOM     12  C   UNL     1      -2.440  -0.166   0.230  0.00  0.00    +0.057 A 
ATOM     13  C   UNL     1      -3.723  -0.533   0.660  0.00  0.00    -0.019 A 
ATOM     14  C   UNL     1      -3.882  -1.631   1.518  0.00  0.00    +0.032 A 
ATOM     15  C   UNL     1      -2.779  -2.343   1.934  0.00  0.00    +0.087 A 
ATOM     16  C   UNL     1      -1.508  -1.980   1.502  0.00  0.00    +0.177 A 
ATOM     17 CL   UNL     1      -2.976  -3.702   2.997  0.00  0.00    -0.080 Cl
BRANCH  11  19
ATOM     18  C   UNL     1       0.001   0.598  -0.633  0.00  0.00    +0.277 C 
ATOM     19  O   UNL     1      -0.096  -0.532   0.236  0.00  0.00    -0.491 OA
ENDBRANCH  11  19
BRANCH  16  20
ATOM     20  O   UNL     1      -0.425  -2.690   1.911  0.00  0.00    -0.502 OA
ATOM     21  H   UNL     1      -0.029  -2.364   2.731  0.00  0.00    +0.292 HD
ENDBRANCH  16  20
ENDBRANCH   1  13
BRANCH   2  22
ATOM     22  C   UNL     1      -7.257   0.326  -0.355  0.00  0.00    +0.104 C 
ATOM     23  N   UNL     1      -8.195   0.923  -0.586  0.00  0.00    -0.191 NA
ENDBRANCH   2  22
TORSDOF 5
