REMARK  Name = ZINC06753009
REMARK  6 active torsions:
REMARK  status: ('A' for Active; 'I' for Inactive)
REMARK    1  A    between atoms: C_4  and  C_7
REMARK    2  A    between atoms: C_10  and  C_21
REMARK    3  A    between atoms: N_17  and  C_18
REMARK    4  A    between atoms: C_18  and  C_19
REMARK    5  A    between atoms: C_19  and  O_20
REMARK    6  A    between atoms: C_26  and  O_27
REMARK                            x       y       z     vdW  Elec       q    Type
REMARK                         _______ _______ _______ _____ _____    ______ ____
ROOT
ATOM      1  C   UNL     1       3.431  -0.579   0.008  0.00  0.00    +0.141 C 
ATOM      2  C   UNL     1       3.764  -1.038  -1.385  0.00  0.00    +0.035 A 
ATOM      3  C   UNL     1       3.859  -0.728  -2.704  0.00  0.00    +0.075 A 
ATOM      4  N   UNL     1       4.283  -1.858  -3.343  0.00  0.00    -0.276 N 
ATOM      5  H   UNL     1       4.441  -1.933  -4.297  0.00  0.00    +0.189 HD
ATOM      6  N   UNL     1       4.444  -2.809  -2.492  0.00  0.00    -0.168 NA
ATOM      7  C   UNL     1       4.149  -2.394  -1.276  0.00  0.00    +0.153 A 
ATOM      8  C   UNL     1       4.061  -2.776   0.145  0.00  0.00    +0.268 C 
ATOM      9  O   UNL     1       4.325  -3.878   0.585  0.00  0.00    -0.268 OA
ATOM     10  N   UNL     1       3.648  -1.733   0.888  0.00  0.00    -0.283 N 
ENDROOT
BRANCH   1  14
ATOM     11  C   UNL     1      -0.650   0.667   0.202  0.00  0.00    +0.000 A 
ATOM     12  C   UNL     1       0.362   1.607   0.255  0.00  0.00    +0.000 A 
ATOM     13  C   UNL     1       1.683   1.203   0.192  0.00  0.00    +0.006 A 
ATOM     14  C   UNL     1       1.991  -0.139   0.077  0.00  0.00    -0.022 A 
ATOM     15  C   UNL     1       0.978  -1.079   0.025  0.00  0.00    +0.006 A 
ATOM     16  C   UNL     1      -0.343  -0.675   0.086  0.00  0.00    +0.000 A 
ENDBRANCH   1  14
BRANCH   3  17
ATOM     17  C   UNL     1       3.561   0.580  -3.328  0.00  0.00    +0.042 A 
ATOM     18  C   UNL     1       2.498   0.703  -4.223  0.00  0.00    +0.013 A 
ATOM     19  C   UNL     1       2.224   1.925  -4.801  0.00  0.00    +0.001 A 
ATOM     20  C   UNL     1       3.000   3.030  -4.497  0.00  0.00    +0.004 A 
ATOM     21  C   UNL     1       4.056   2.920  -3.612  0.00  0.00    +0.046 A 
ATOM     22  C   UNL     1       4.339   1.700  -3.018  0.00  0.00    +0.126 A 
BRANCH  22  23
ATOM     23  O   UNL     1       5.373   1.592  -2.144  0.00  0.00    -0.506 OA
ATOM     24  H   UNL     1       6.217   1.366  -2.558  0.00  0.00    +0.292 HD
ENDBRANCH  22  23
ENDBRANCH   3  17
BRANCH  10  25
ATOM     25  C   UNL     1       3.447  -1.746   2.339  0.00  0.00    +0.137 C 
BRANCH  25  26
ATOM     26  C   UNL     1       4.780  -1.473   3.040  0.00  0.00    +0.175 C 
BRANCH  26  27
ATOM     27  O   UNL     1       5.213  -0.145   2.740  0.00  0.00    -0.393 OA
ATOM     28  H   UNL     1       6.053   0.097   3.152  0.00  0.00    +0.209 HD
ENDBRANCH  26  27
ENDBRANCH  25  26
ENDBRANCH  10  25
TORSDOF 6
