REMARK  Name = ZINC63521311
REMARK  4 active torsions:
REMARK  status: ('A' for Active; 'I' for Inactive)
REMARK    1  A    between atoms: C_1  and  O_2
REMARK    2  A    between atoms: O_2  and  C_3
REMARK    3  A    between atoms: C_10  and  C_18
REMARK    4  A    between atoms: C_22  and  N_24
REMARK                            x       y       z     vdW  Elec       q    Type
REMARK                         _______ _______ _______ _____ _____    ______ ____
ROOT
ATOM      1  C   UNL     1       0.561  -0.754  -0.890  0.00  0.00    +0.121 A 
ATOM      2  C   UNL     1       1.088   0.089  -1.884  0.00  0.00    +0.047 A 
ATOM      3  C   UNL     1       1.692  -0.387  -2.993  0.00  0.00    +0.029 A 
ATOM      4  C   UNL     1       1.816  -1.833  -3.193  0.00  0.00    +0.043 A 
ATOM      5  N   UNL     1       2.368  -2.541  -4.152  0.00  0.00    -0.376 N 
ATOM      6  C   UNL     1       2.120  -3.954  -3.884  0.00  0.00    +0.128 C 
ATOM      7  C   UNL     1       3.409  -4.777  -3.821  0.00  0.00    +0.111 C 
ATOM      8  N   UNL     1       3.086  -6.101  -3.265  0.00  0.00    -0.307 NA
ATOM      9  C   UNL     1       2.668  -6.052  -1.861  0.00  0.00    +0.086 C 
ATOM     10  C   UNL     1       1.336  -5.291  -1.733  0.00  0.00    +0.048 C 
ATOM     11  C   UNL     1       1.493  -3.996  -2.499  0.00  0.00    -0.035 C 
ATOM     12  C   UNL     1       1.268  -2.726  -2.140  0.00  0.00    +0.003 A 
ATOM     13  C   UNL     1       0.632  -2.103  -0.974  0.00  0.00    +0.055 A 
ATOM     14  H   UNL     1       2.397  -6.573  -3.831  0.00  0.00    +0.123 HD
ATOM     15  H   UNL     1       2.857  -2.186  -4.910  0.00  0.00    +0.160 HD
ENDROOT
BRANCH   7  16
ATOM     16  C   UNL     1       4.411  -4.084  -2.934  0.00  0.00    -0.026 A 
ATOM     17  C   UNL     1       4.057  -3.710  -1.651  0.00  0.00    +0.007 A 
ATOM     18  C   UNL     1       4.975  -3.075  -0.837  0.00  0.00    +0.022 A 
ATOM     19  C   UNL     1       6.250  -2.813  -1.307  0.00  0.00    +0.071 A 
ATOM     20  C   UNL     1       6.605  -3.188  -2.591  0.00  0.00    +0.145 A 
ATOM     21  C   UNL     1       5.686  -3.828  -3.402  0.00  0.00    +0.039 A 
ATOM     22 CL   UNL     1       7.405  -2.015  -0.286  0.00  0.00    -0.081 Cl
BRANCH  20  23
ATOM     23  N   UNL     1       7.968  -2.908  -3.094  0.00  0.00    +0.058 N 
ATOM     24  O   UNL     1       8.278  -3.236  -4.215  0.00  0.00    -0.126 OA
ATOM     25  O   UNL     1       8.773  -2.353  -2.382  0.00  0.00    -0.126 OA
ENDBRANCH  20  23
ENDBRANCH   7  16
BRANCH   1  27
ATOM     26  C   UNL     1      -0.090   1.233   0.243  0.00  0.00    +0.277 C 
ATOM     27  O   UNL     1      -0.037  -0.194   0.195  0.00  0.00    -0.495 OA
ENDBRANCH   1  27
TORSDOF 3
