REMARK  Name = ZINC32581043
REMARK  4 active torsions:
REMARK  status: ('A' for Active; 'I' for Inactive)
REMARK    1  A    between atoms: C_1  and  C_2
REMARK    2  A    between atoms: C_2  and  N_3
REMARK    3  A    between atoms: C_7  and  C_11
REMARK    4  A    between atoms: C_14  and  C_19
REMARK                            x       y       z     vdW  Elec       q    Type
REMARK                         _______ _______ _______ _____ _____    ______ ____
ROOT
ATOM      1  N   UNL     1      -1.392  -0.611  -0.111  0.00  0.00    -0.299 N 
ATOM      2  C   UNL     1      -1.931  -0.892   1.212  0.00  0.00    +0.126 C 
ATOM      3  C   UNL     1      -3.459  -0.803   1.206  0.00  0.00    +0.126 C 
ATOM      4  N   UNL     1      -3.957  -1.547   0.037  0.00  0.00    -0.302 N 
ATOM      5  C   UNL     1      -3.541  -1.074  -1.292  0.00  0.00    +0.158 C 
ATOM      6  C   UNL     1      -2.080  -0.721  -1.248  0.00  0.00    +0.236 C 
ATOM      7  O   UNL     1      -1.500  -0.531  -2.296  0.00  0.00    -0.274 OA
ATOM      8  C   UNL     1      -3.777  -2.177  -2.326  0.00  0.00    +0.038 C 
ATOM      9  C   UNL     1      -4.785  -2.649   0.183  0.00  0.00    +0.127 A 
ATOM     10  C   UNL     1      -6.173  -2.499   0.163  0.00  0.00    +0.066 A 
ATOM     11  C   UNL     1      -6.959  -3.625   0.312  0.00  0.00    +0.045 A 
ATOM     12  N   UNL     1      -6.378  -4.805   0.469  0.00  0.00    -0.220 NA
ATOM     13  C   UNL     1      -5.058  -4.918   0.484  0.00  0.00    +0.214 A 
ATOM     14  N   UNL     1      -4.269  -3.864   0.339  0.00  0.00    -0.200 NA
ATOM     15  N   UNL     1      -4.490  -6.168   0.650  0.00  0.00    -0.327 N 
ATOM     16  C   UNL     1      -8.462  -3.512   0.298  0.00  0.00    +0.066 C 
ATOM     17  H   UNL     1      -5.056  -6.949   0.754  0.00  0.00    +0.145 HD
ATOM     18  H   UNL     1      -3.525  -6.265   0.663  0.00  0.00    +0.145 HD
ENDROOT
BRANCH   1  20
ATOM     19  C   UNL     1       0.065   1.353  -0.105  0.00  0.00    +0.024 C 
ATOM     20  C   UNL     1       0.003  -0.172  -0.199  0.00  0.00    +0.104 C 
ENDBRANCH   1  20
TORSDOF 1
