REMARK  Name = ZINC62766431
REMARK  4 active torsions:
REMARK  status: ('A' for Active; 'I' for Inactive)
REMARK    1  A    between atoms: C_1  and  C_2
REMARK    2  A    between atoms: C_6  and  C_22
REMARK    3  A    between atoms: C_8  and  S_11
REMARK    4  A    between atoms: S_11  and  C_12
REMARK                            x       y       z     vdW  Elec       q    Type
REMARK                         _______ _______ _______ _____ _____    ______ ____
ROOT
ATOM      1  S   UNL     1       3.055  -0.582   2.700  0.00  0.00    -0.100 S 
ENDROOT
BRANCH   1   2
ATOM      2  C   UNL     1       2.209   0.181   4.044  0.00  0.00    +0.126 A 
ATOM      3  C   UNL     1       2.611  -0.044   5.362  0.00  0.00    +0.117 A 
ATOM      4  C   UNL     1       1.905   0.588   6.399  0.00  0.00    +0.182 A 
ATOM      5  N   UNL     1       2.486   0.210   7.553  0.00  0.00    -0.216 NA
ATOM      6  H   UNL     1       4.263  -1.338   5.525  0.00  0.00    +0.167 HD
ATOM      7  C   UNL     1       3.481  -0.595   7.304  0.00  0.00    +0.199 A 
ATOM      8  N   UNL     1       3.602  -0.785   5.971  0.00  0.00    -0.341 N 
ATOM      9  N   UNL     1       0.875   1.380   6.083  0.00  0.00    -0.214 NA
ATOM     10  C   UNL     1       0.532   1.563   4.827  0.00  0.00    +0.224 A 
ATOM     11  N   UNL     1       1.175   0.991   3.825  0.00  0.00    -0.227 NA
ENDBRANCH   1   2
BRANCH   1  17
ATOM     12  C   UNL     1      -0.019   1.526   0.010  0.00  0.00    +0.007 C 
ATOM     13  C   UNL     1       0.002  -0.004   0.002  0.00  0.00    -0.013 C 
ATOM     14  C   UNL     1       0.718  -0.497  -1.257  0.00  0.00    +0.004 C 
ATOM     15  C   UNL     1       2.154   0.032  -1.268  0.00  0.00    +0.016 C 
ATOM     16  C   UNL     1       2.894  -0.475  -0.028  0.00  0.00    +0.115 C 
ATOM     17  C   UNL     1       2.178   0.019   1.231  0.00  0.00    +0.067 C 
ATOM     18  C   UNL     1       0.742  -0.511   1.242  0.00  0.00    +0.018 C 
BRANCH  16  19
ATOM     19  C   UNL     1       4.307   0.047  -0.039  0.00  0.00    +0.360 C 
ATOM     20  O   UNL     1       4.688   0.758  -0.953  0.00  0.00    -0.246 OA
ATOM     21  O   UNL     1       5.071  -0.242   0.867  0.00  0.00    -0.246 OA
ENDBRANCH  16  19
ENDBRANCH   1  17
TORSDOF 3
