REMARK  Name = ZINC04898591
REMARK  6 active torsions:
REMARK  status: ('A' for Active; 'I' for Inactive)
REMARK    1  A    between atoms: C_3  and  O_30
REMARK    2  A    between atoms: C_6  and  C_7
REMARK    3  A    between atoms: C_9  and  C_21
REMARK    4  A    between atoms: C_11  and  C_16
REMARK    5  A    between atoms: C_11  and  O_20
REMARK    6  A    between atoms: C_21  and  C_23
REMARK                            x       y       z     vdW  Elec       q    Type
REMARK                         _______ _______ _______ _____ _____    ______ ____
ROOT
ATOM      1  C   UNL     1      -1.290  -0.766   0.007  0.00  0.00    +0.120 C 
ATOM      2  C   UNL     1      -1.682  -1.139  -1.426  0.00  0.00    +0.144 C 
ATOM      3  C   UNL     1      -2.934  -2.021  -1.375  0.00  0.00    +0.243 C 
ATOM      4  N   UNL     1      -2.672  -3.177  -0.515  0.00  0.00    -0.264 N 
ATOM      5  C   UNL     1      -1.804  -3.105   0.504  0.00  0.00    +0.302 C 
ATOM      6  O   UNL     1      -1.631  -4.091   1.195  0.00  0.00    -0.253 OA
ATOM      7  N   UNL     1      -1.118  -1.988   0.794  0.00  0.00    -0.292 N 
ATOM      8  H   UNL     1      -3.137  -4.011  -0.686  0.00  0.00    +0.153 HD
ATOM      9  H   UNL     1      -0.496  -1.991   1.538  0.00  0.00    +0.151 HD
ENDROOT
BRANCH   1  15
ATOM     10  C   UNL     1      -0.018   1.386  -0.118  0.00  0.00    +0.009 A 
ATOM     11  C   UNL     1       1.166   2.098  -0.133  0.00  0.00    +0.046 A 
ATOM     12  C   UNL     1       2.377   1.428  -0.040  0.00  0.00    +0.117 A 
ATOM     13  C   UNL     1       2.396   0.045   0.069  0.00  0.00    +0.046 A 
ATOM     14  C   UNL     1       1.210  -0.662   0.084  0.00  0.00    +0.009 A 
ATOM     15  C   UNL     1       0.004   0.008  -0.009  0.00  0.00    -0.026 A 
BRANCH  12  16
ATOM     16  O   UNL     1       3.543   2.126  -0.055  0.00  0.00    -0.507 OA
ATOM     17  H   UNL     1       3.851   2.397   0.821  0.00  0.00    +0.292 HD
ENDBRANCH  12  16
ENDBRANCH   1  15
BRANCH   3  18
ATOM     18  C   UNL     1      -4.104  -1.216  -0.808  0.00  0.00    +0.436 C 
ATOM     19  F   UNL     1      -4.348  -0.108  -1.626  0.00  0.00    -0.166 F 
ATOM     20  F   UNL     1      -5.247  -2.022  -0.762  0.00  0.00    -0.166 F 
ATOM     21  F   UNL     1      -3.788  -0.781   0.484  0.00  0.00    -0.166 F 
ENDBRANCH   3  18
BRANCH   3  22
ATOM     22  O   UNL     1      -3.256  -2.470  -2.693  0.00  0.00    -0.364 OA
ATOM     23  H   UNL     1      -4.039  -3.035  -2.736  0.00  0.00    +0.212 HD
ENDBRANCH   3  22
BRANCH   2  24
ATOM     24  C   UNL     1      -0.553  -1.893  -2.080  0.00  0.00    +0.173 C 
ATOM     25  O   UNL     1       0.129  -2.652  -1.424  0.00  0.00    -0.292 OA
BRANCH  24  26
ATOM     26  C   UNL     1      -0.278  -1.709  -3.512  0.00  0.00    +0.018 A 
ATOM     27  C   UNL     1      -1.059  -0.829  -4.270  0.00  0.00    +0.014 A 
ATOM     28  C   UNL     1      -0.795  -0.661  -5.612  0.00  0.00    +0.039 A 
ATOM     29  C   UNL     1       0.241  -1.361  -6.212  0.00  0.00    +0.123 A 
ATOM     30  C   UNL     1       1.019  -2.235  -5.466  0.00  0.00    +0.039 A 
ATOM     31  C   UNL     1       0.770  -2.408  -4.122  0.00  0.00    +0.014 A 
ATOM     32  F   UNL     1       0.493  -1.193  -7.528  0.00  0.00    -0.205 F 
ENDBRANCH  24  26
ENDBRANCH   2  24
TORSDOF 6
