REMARK  Name = ZINC35452330
REMARK  1 active torsions:
REMARK  status: ('A' for Active; 'I' for Inactive)
REMARK    1  A    between atoms: C_6  and  C_7
REMARK                            x       y       z     vdW  Elec       q    Type
REMARK                         _______ _______ _______ _____ _____    ______ ____
ROOT
ATOM      1  C   UNL     1      -0.008   1.379   0.197  0.00  0.00    +0.013 A 
ATOM      2  C   UNL     1       1.178   2.079   0.188  0.00  0.00    +0.024 A 
ATOM      3  C   UNL     1       2.384   1.413  -0.013  0.00  0.00    +0.030 A 
ATOM      4  C   UNL     1       2.400   0.038  -0.204  0.00  0.00    -0.026 A 
ATOM      5  C   UNL     1       1.213  -0.668  -0.198  0.00  0.00    +0.017 A 
ATOM      6  C   UNL     1       0.002  -0.004   0.002  0.00  0.00    +0.020 A 
ATOM      7  C   UNL     1       3.690  -0.712  -0.413  0.00  0.00    +0.038 C 
ATOM      8  C   UNL     1       4.791   0.237  -0.884  0.00  0.00    +0.023 C 
ATOM      9  C   UNL     1       4.853   1.437   0.071  0.00  0.00    +0.102 C 
ATOM     10  N   UNL     1       3.572   2.151  -0.021  0.00  0.00    -0.344 N 
ATOM     11  H   UNL     1       3.551   3.118  -0.087  0.00  0.00    +0.146 HD
ENDROOT
BRANCH   6  12
ATOM     12  C   UNL     1      -1.266  -0.762   0.008  0.00  0.00    +0.169 A 
ATOM     13  N   UNL     1      -2.477  -0.265  -0.170  0.00  0.00    -0.128 NA
ATOM     14  N   UNL     1      -3.355  -1.203  -0.105  0.00  0.00    -0.127 NA
ATOM     15  C   UNL     1      -2.756  -2.359   0.120  0.00  0.00    +0.180 A 
ATOM     16  N   UNL     1      -1.404  -2.104   0.192  0.00  0.00    -0.280 N 
ATOM     17  C   UNL     1      -0.542  -3.139   0.415  0.00  0.00    +0.114 A 
ATOM     18  C   UNL     1      -1.024  -4.392   0.558  0.00  0.00    +0.129 A 
ATOM     19  N   UNL     1      -2.334  -4.643   0.485  0.00  0.00    -0.258 NA
ATOM     20  C   UNL     1      -3.205  -3.683   0.281  0.00  0.00    +0.159 A 
ENDBRANCH   6  12
TORSDOF 1
