REMARK  Name = ZINC38008934
REMARK  5 active torsions:
REMARK  status: ('A' for Active; 'I' for Inactive)
REMARK    1  A    between atoms: C_1  and  C_2
REMARK    2  A    between atoms: C_5  and  N_7
REMARK    3  A    between atoms: N_7  and  S_8
REMARK    4  A    between atoms: S_8  and  C_11
REMARK    5  A    between atoms: N_17  and  N_18
REMARK                            x       y       z     vdW  Elec       q    Type
REMARK                         _______ _______ _______ _____ _____    ______ ____
ROOT
ATOM      1  C   UNL     1       0.943  -6.615  -0.036  0.00  0.00    +0.115 A 
ATOM      2  C   UNL     1       1.335  -7.198  -1.234  0.00  0.00    +0.046 A 
ATOM      3  C   UNL     1       2.097  -8.349  -1.209  0.00  0.00    +0.086 A 
ATOM      4  N   UNL     1       2.455  -8.898  -0.064  0.00  0.00    -0.349 N 
ATOM      5  C   UNL     1       2.101  -8.373   1.099  0.00  0.00    +0.112 A 
ATOM      6  C   UNL     1       1.338  -7.211   1.148  0.00  0.00    +0.071 A 
ATOM      7  N   UNL     1       2.500  -8.986   2.281  0.00  0.00    -0.269 N 
ATOM      8  H   UNL     1       2.243  -8.605   3.135  0.00  0.00    +0.167 HD
ATOM      9  H   UNL     1       2.991  -9.707  -0.074  0.00  0.00    +0.167 HD
ENDROOT
BRANCH   1  10
ATOM     10  S   UNL     1      -0.030  -5.146  -0.025  0.00  0.00    +0.094 S 
ATOM     11  O   UNL     1      -0.708  -5.118   1.223  0.00  0.00    -0.148 OA
ATOM     12  O   UNL     1      -0.718  -5.105  -1.267  0.00  0.00    -0.148 OA
BRANCH  10  13
ATOM     13  N   UNL     1       1.019  -3.865  -0.023  0.00  0.00    -0.070 NA
BRANCH  13  18
ATOM     14  C   UNL     1      -0.018   1.503   0.010  0.00  0.00    +0.053 C 
ATOM     15  C   UNL     1       0.002  -0.004   0.002  0.00  0.00    +0.008 A 
ATOM     16  C   UNL     1      -1.030  -0.882   0.002  0.00  0.00    +0.124 A 
ATOM     17  N   UNL     1      -0.725  -2.168  -0.007  0.00  0.00    -0.230 NA
ATOM     18  C   UNL     1       0.529  -2.568  -0.014  0.00  0.00    +0.202 A 
ATOM     19  S   UNL     1       1.393  -1.124  -0.018  0.00  0.00    -0.054 S 
ENDBRANCH  13  18
ENDBRANCH  10  13
ENDBRANCH   1  10
BRANCH   7  20
ATOM     20  N   UNL     1       3.255 -10.124   2.240  0.00  0.00    -0.255 NA
ATOM     21  H   UNL     1       4.099  -9.979   1.707  0.00  0.00    +0.140 HD
ATOM     22  H   UNL     1       3.466 -10.451   3.171  0.00  0.00    +0.140 HD
ENDBRANCH   7  20
TORSDOF 4
