REMARK  Name = ZINC08643728
REMARK  10 active torsions:
REMARK  status: ('A' for Active; 'I' for Inactive)
REMARK    1  A    between atoms: C_1  and  N_45
REMARK    2  A    between atoms: C_2  and  C_3
REMARK    3  A    between atoms: C_2  and  N_45
REMARK    4  A    between atoms: N_5  and  C_8
REMARK    5  A    between atoms: C_8  and  C_9
REMARK    6  A    between atoms: C_11  and  O_26
REMARK    7  A    between atoms: C_13  and  O_25
REMARK    8  A    between atoms: C_15  and  C_18
REMARK    9  A    between atoms: C_18  and  C_19
REMARK   10  A    between atoms: N_21  and  C_22
REMARK                            x       y       z     vdW  Elec       q    Type
REMARK                         _______ _______ _______ _____ _____    ______ ____
ROOT
ATOM      1  C   UNL     1       0.002  -0.004   0.002  0.00  0.00    +0.171 C 
ATOM      2  C   UNL     1       1.152  -0.389   0.959  0.00  0.00    +0.176 C 
ATOM      3  C   UNL     1       2.073   0.852   0.957  0.00  0.00    +0.175 C 
ATOM      4  C   UNL     1       1.370   1.839  -0.001  0.00  0.00    +0.159 C 
ATOM      5  O   UNL     1      -0.018   1.440   0.010  0.00  0.00    -0.366 OA
ENDROOT
BRANCH   3   6
ATOM      6  O   UNL     1       3.370   0.512   0.463  0.00  0.00    -0.387 OA
ATOM      7  H   UNL     1       3.832  -0.150   0.995  0.00  0.00    +0.210 HD
ENDBRANCH   3   6
BRANCH   2   8
ATOM      8  O   UNL     1       1.850  -1.534   0.468  0.00  0.00    -0.387 OA
ATOM      9  H   UNL     1       2.583  -1.820   1.031  0.00  0.00    +0.210 HD
ENDBRANCH   2   8
BRANCH   1  10
ATOM     10  C   UNL     1      -1.328  -0.558   0.518  0.00  0.00    +0.179 C 
BRANCH  10  13
ATOM     11  C   UNL     1      -4.061  -0.362  -1.801  0.00  0.00    +0.066 A 
ATOM     12  C   UNL     1      -3.244  -1.097  -1.011  0.00  0.00    +0.131 A 
ATOM     13  N   UNL     1      -2.396  -0.220  -0.426  0.00  0.00    -0.249 N 
ATOM     14  N   UNL     1      -2.693   0.964  -0.837  0.00  0.00    -0.065 NA
ATOM     15  N   UNL     1      -3.679   0.912  -1.662  0.00  0.00    -0.136 NA
BRANCH  11  16
ATOM     16  C   UNL     1      -5.183  -0.877  -2.666  0.00  0.00    -0.023 C 
BRANCH  16  18
ATOM     17  C   UNL     1      -7.569  -1.277  -2.746  0.00  0.00    -0.100 C 
ATOM     18  N   UNL     1      -6.452  -0.778  -1.922  0.00  0.00    +0.381 N 
ATOM     19  H   UNL     1      -6.387  -1.339  -1.064  0.00  0.00    -0.086 HD
ATOM     20  H   UNL     1      -6.625   0.204  -1.676  0.00  0.00    -0.086 HD
ENDBRANCH  16  18
ENDBRANCH  11  16
ENDBRANCH  10  13
ENDBRANCH   1  10
BRANCH   4  21
ATOM     21  C   UNL     1       1.516   3.274   0.511  0.00  0.00    +0.130 C 
BRANCH  21  22
ATOM     22  C   UNL     1       0.863   4.223  -0.461  0.00  0.00    +0.216 C 
ATOM     23  O   UNL     1       0.334   3.794  -1.464  0.00  0.00    -0.276 OA
ATOM     24  N   UNL     1       0.868   5.548  -0.214  0.00  0.00    -0.312 N 
ATOM     25  H   UNL     1       1.291   5.891   0.588  0.00  0.00    +0.149 HD
BRANCH  24  26
ATOM     26  C   UNL     1       0.234   6.471  -1.159  0.00  0.00    +0.073 C 
ATOM     27  C   UNL     1       0.988   7.755  -1.507  0.00  0.00    +0.024 C 
ATOM     28  C   UNL     1      -0.254   7.815  -0.614  0.00  0.00    +0.024 C 
ENDBRANCH  24  26
ENDBRANCH  21  22
ENDBRANCH   4  21
TORSDOF 9
