REMARK  Name = ZINC50440472
REMARK  6 active torsions:
REMARK  status: ('A' for Active; 'I' for Inactive)
REMARK    1  A    between atoms: C_2  and  N_16
REMARK    2  A    between atoms: C_5  and  O_8
REMARK    3  A    between atoms: O_8  and  C_9
REMARK    4  A    between atoms: C_9  and  C_10
REMARK    5  A    between atoms: C_10  and  C_11
REMARK    6  A    between atoms: N_12  and  O_13
REMARK                            x       y       z     vdW  Elec       q    Type
REMARK                         _______ _______ _______ _____ _____    ______ ____
ROOT
ATOM      1  C   UNL     1      -0.017   1.378   0.010  0.00  0.00    +0.056 A 
ATOM      2  C   UNL     1       1.170   2.087   0.002  0.00  0.00    +0.129 A 
ATOM      3  C   UNL     1       2.379   1.416  -0.013  0.00  0.00    +0.056 A 
ATOM      4  C   UNL     1       2.404   0.034  -0.021  0.00  0.00    +0.086 A 
ATOM      5  C   UNL     1       1.214  -0.680  -0.014  0.00  0.00    +0.157 A 
ATOM      6  C   UNL     1       0.002  -0.004   0.002  0.00  0.00    +0.086 A 
ATOM      7 CL   UNL     1      -1.489  -0.893   0.012  0.00  0.00    -0.080 Cl
ATOM      8 CL   UNL     1       3.922  -0.808  -0.042  0.00  0.00    -0.080 Cl
ENDROOT
BRANCH   2   9
ATOM      9  N   UNL     1       1.147   3.567   0.010  0.00  0.00    +0.057 N 
ATOM     10  O   UNL     1       0.091   4.155   0.023  0.00  0.00    -0.126 OA
ATOM     11  O   UNL     1       2.184   4.188   0.004  0.00  0.00    -0.126 OA
ENDBRANCH   2   9
BRANCH   5  12
ATOM     12  O   UNL     1       1.236  -2.039  -0.022  0.00  0.00    -0.489 OA
BRANCH  12  13
ATOM     13  C   UNL     1       1.259  -2.696   1.247  0.00  0.00    +0.237 C 
BRANCH  13  14
ATOM     14  C   UNL     1       1.281  -4.211   1.038  0.00  0.00    +0.115 C 
BRANCH  14  15
ATOM     15  C   UNL     1       1.305  -4.903   2.376  0.00  0.00    +0.135 C 
ATOM     16  N   UNL     1       1.305  -4.206   3.464  0.00  0.00    -0.077 NA
ATOM     17  N   UNL     1       1.328  -6.279   2.439  0.00  0.00    -0.344 N 
ATOM     18  H   UNL     1       1.328  -6.802   1.623  0.00  0.00    +0.144 HD
ATOM     19  H   UNL     1       1.344  -6.724   3.301  0.00  0.00    +0.144 HD
BRANCH  16  20
ATOM     20  O   UNL     1       1.329  -4.857   4.721  0.00  0.00    -0.408 OA
ATOM     21  H   UNL     1       1.327  -4.253   5.476  0.00  0.00    +0.328 HD
ENDBRANCH  16  20
ENDBRANCH  14  15
ENDBRANCH  13  14
ENDBRANCH  12  13
ENDBRANCH   5  12
TORSDOF 6
