REMARK  Name = ZINC20857264
REMARK  9 active torsions:
REMARK  status: ('A' for Active; 'I' for Inactive)
REMARK    1  A    between atoms: C_1  and  C_2
REMARK    2  A    between atoms: C_2  and  C_3
REMARK    3  A    between atoms: C_2  and  C_4
REMARK    4  A    between atoms: C_2  and  O_27
REMARK    5  A    between atoms: C_5  and  C_6
REMARK    6  A    between atoms: C_9  and  C_12
REMARK    7  A    between atoms: C_12  and  N_13
REMARK    8  A    between atoms: C_17  and  C_19
REMARK    9  A    between atoms: C_22  and  C_24
REMARK                            x       y       z     vdW  Elec       q    Type
REMARK                         _______ _______ _______ _____ _____    ______ ____
ROOT
ATOM      1  N   UNL     1       4.622   0.871   0.794  0.00  0.00    +0.387 N 
ATOM      2  C   UNL     1       5.995   1.110   0.280  0.00  0.00    -0.078 C 
ATOM      3  C   UNL     1       5.821   1.244  -1.248  0.00  0.00    -0.020 C 
ATOM      4  C   UNL     1       4.354   1.677  -1.448  0.00  0.00    -0.012 C 
ATOM      5  C   UNL     1       3.765   1.768  -0.024  0.00  0.00    -0.030 C 
ATOM      6  H   UNL     1       4.319  -0.184   0.726  0.00  0.00    -0.080 HD
ENDROOT
BRANCH   5   7
ATOM      7  C   UNL     1       2.337   1.285  -0.013  0.00  0.00    -0.023 A 
ATOM      8  C   UNL     1       1.197   2.024   0.002  0.00  0.00    +0.010 A 
ATOM      9  C   UNL     1      -0.017   1.382   0.010  0.00  0.00    +0.021 A 
ATOM     10  C   UNL     1       0.002  -0.004   0.002  0.00  0.00    +0.074 A 
ATOM     11  S   UNL     1       1.753  -0.347  -0.017  0.00  0.00    -0.090 S 
BRANCH  10  12
ATOM     12  C   UNL     1      -1.123  -0.943   0.008  0.00  0.00    +0.248 C 
ATOM     13  O   UNL     1      -2.266  -0.524   0.021  0.00  0.00    -0.270 OA
ATOM     14  N   UNL     1      -0.893  -2.271  -0.002  0.00  0.00    -0.325 N 
ATOM     15  H   UNL     1      -1.737  -2.976   0.003  0.00  0.00    +0.145 HD
ATOM     16  H   UNL     1       0.140  -2.650  -0.013  0.00  0.00    +0.145 HD
ENDBRANCH  10  12
ENDBRANCH   5   7
BRANCH   1  17
ATOM     17  C   UNL     1       4.527   1.210   2.220  0.00  0.00    -0.042 C 
BRANCH  17  21
ATOM     18  C   UNL     1       6.451  -1.828   4.535  0.00  0.00    +0.025 A 
ATOM     19  C   UNL     1       7.178  -0.726   4.082  0.00  0.00    +0.017 A 
ATOM     20  C   UNL     1       6.551   0.250   3.335  0.00  0.00    +0.003 A 
ATOM     21  C   UNL     1       5.205   0.139   3.036  0.00  0.00    -0.064 A 
ATOM     22  C   UNL     1       4.477  -0.948   3.487  0.00  0.00    +0.003 A 
ATOM     23  C   UNL     1       5.093  -1.934   4.230  0.00  0.00    +0.017 A 
BRANCH  18  25
ATOM     24  C   UNL     1       7.624  -3.679   5.945  0.00  0.00    -0.063 C 
ATOM     25  C   UNL     1       7.095  -2.845   5.310  0.00  0.00    -0.063 C 
BRANCH  24  27
ATOM     26  C   UNL     1       9.422  -5.345   5.926  0.00  0.00    +0.055 C 
ATOM     27  C   UNL     1       8.286  -4.725   6.742  0.00  0.00    +0.121 C 
ATOM     28  C   UNL     1       8.855  -4.108   8.021  0.00  0.00    +0.055 C 
BRANCH  27  29
ATOM     29  O   UNL     1       7.337  -5.737   7.082  0.00  0.00    -0.377 OA
ATOM     30  H   UNL     1       6.445  -5.479   7.672  0.00  0.00    +0.211 HD
ENDBRANCH  27  29
ENDBRANCH  24  27
ENDBRANCH  18  25
ENDBRANCH  17  21
ENDBRANCH   1  17
TORSDOF 7
