REMARK  Name = ZINC40542589
REMARK  1 active torsions:
REMARK  status: ('A' for Active; 'I' for Inactive)
REMARK    1  A    between atoms: C_8  and  C_9
REMARK                            x       y       z     vdW  Elec       q    Type
REMARK                         _______ _______ _______ _____ _____    ______ ____
ROOT
ATOM      1  C   UNL     1      -0.019   1.522   0.010  0.00  0.00    +0.041 C 
ATOM      2  C   UNL     1       1.413   2.064  -0.000  0.00  0.00    +0.167 C 
ATOM      3  S   UNL     1       2.223   1.554  -1.545  0.00  0.00    -0.031 S 
ATOM      4  O   UNL     1       1.501   2.106  -2.638  0.00  0.00    -0.174 OA
ATOM      5  O   UNL     1       3.615   1.815  -1.433  0.00  0.00    -0.174 OA
ATOM      6  C   UNL     1       1.965  -0.245  -1.532  0.00  0.00    +0.167 C 
ATOM      7  C   UNL     1       0.472  -0.530  -1.351  0.00  0.00    +0.041 C 
ATOM      8  C   UNL     1       0.002  -0.004   0.002  0.00  0.00    +0.095 C 
ENDROOT
BRANCH   8   9
ATOM      9  C   UNL     1      -1.354  -0.509   0.274  0.00  0.00    +0.066 C 
ATOM     10  N   UNL     1      -2.400  -0.898   0.483  0.00  0.00    -0.196 NA
ENDBRANCH   8   9
TORSDOF 1
