REMARK  Name = ZINC63972392
REMARK  2 active torsions:
REMARK  status: ('A' for Active; 'I' for Inactive)
REMARK    1  A    between atoms: C_6  and  C_7
REMARK    2  A    between atoms: C_11  and  C_13
REMARK                            x       y       z     vdW  Elec       q    Type
REMARK                         _______ _______ _______ _____ _____    ______ ____
ROOT
ATOM      1  C   UNL     1      -0.864  -2.989   1.273  0.00  0.00    +0.009 C 
ATOM      2  C   UNL     1       0.168  -3.830   1.142  0.00  0.00    +0.075 C 
ATOM      3  C   UNL     1       0.803  -4.355  -0.091  0.00  0.00    +0.264 C 
ATOM      4  O   UNL     1       0.406  -4.039  -1.195  0.00  0.00    -0.269 OA
ATOM      5  N   UNL     1       1.821  -5.184   0.068  0.00  0.00    -0.193 N 
ATOM      6  C   UNL     1       2.256  -5.529   1.335  0.00  0.00    +0.166 C 
ATOM      7  N   UNL     1       3.234  -6.324   1.667  0.00  0.00    -0.279 NA
ATOM      8  S   UNL     1       1.157  -4.617   2.406  0.00  0.00    -0.049 S 
ATOM      9  C   UNL     1       2.463  -5.714  -1.053  0.00  0.00    +0.219 A 
ATOM     10  C   UNL     1       2.123  -6.975  -1.720  0.00  0.00    +0.203 A 
ATOM     11  N   UNL     1       2.938  -7.139  -2.725  0.00  0.00    -0.032 NA
ATOM     12  O   UNL     1       3.817  -6.029  -2.758  0.00  0.00    -0.239 OA
ATOM     13  N   UNL     1       3.463  -5.171  -1.688  0.00  0.00    -0.031 NA
ATOM     14  N   UNL     1       1.107  -7.847  -1.344  0.00  0.00    -0.338 N 
ATOM     15  H   UNL     1       3.435  -6.481   2.603  0.00  0.00    +0.189 HD
ATOM     16  H   UNL     1       0.499  -7.603  -0.629  0.00  0.00    +0.144 HD
ATOM     17  H   UNL     1       1.006  -8.698  -1.798  0.00  0.00    +0.144 HD
ENDROOT
BRANCH   1  22
ATOM     18  C   UNL     1      -1.466  -0.932   0.015  0.00  0.00    +0.083 C 
ATOM     19  N   UNL     1      -2.698  -0.505   0.049  0.00  0.00    -0.153 NA
ATOM     20  N   UNL     1      -3.615  -1.550   0.107  0.00  0.00    -0.161 NA
ATOM     21  C   UNL     1      -3.043  -2.710   0.115  0.00  0.00    +0.121 C 
ATOM     22  C   UNL     1      -1.552  -2.445   0.048  0.00  0.00    +0.107 C 
BRANCH  18  28
ATOM     23  C   UNL     1      -0.335   1.282  -0.075  0.00  0.00    +0.011 A 
ATOM     24  C   UNL     1       0.814   2.042  -0.136  0.00  0.00    +0.020 A 
ATOM     25  C   UNL     1       2.055   1.426  -0.173  0.00  0.00    +0.041 A 
ATOM     26  C   UNL     1       2.151   0.044  -0.149  0.00  0.00    +0.020 A 
ATOM     27  C   UNL     1       1.011  -0.728  -0.088  0.00  0.00    +0.011 A 
ATOM     28  C   UNL     1      -0.245  -0.114  -0.050  0.00  0.00    -0.001 A 
ATOM     29 CL   UNL     1       3.495   2.392  -0.251  0.00  0.00    -0.084 Cl
ENDBRANCH  18  28
ENDBRANCH   1  22
TORSDOF 2
