REMARK  Name = ZINC05053710
REMARK  8 active torsions:
REMARK  status: ('A' for Active; 'I' for Inactive)
REMARK    1  A    between atoms: C_1  and  C_2
REMARK    2  A    between atoms: C_6  and  C_25
REMARK    3  A    between atoms: C_7  and  N_8
REMARK    4  A    between atoms: C_9  and  C_11
REMARK    5  A    between atoms: C_11  and  S_12
REMARK    6  A    between atoms: S_12  and  C_13
REMARK    7  A    between atoms: N_17  and  C_18
REMARK    8  A    between atoms: C_21  and  O_24
REMARK                            x       y       z     vdW  Elec       q    Type
REMARK                         _______ _______ _______ _____ _____    ______ ____
ROOT
ATOM      1  S   UNL     1       0.950   3.578  -1.802  0.00  0.00    -0.075 S 
ENDROOT
BRANCH   1   2
ATOM      2  C   UNL     1       0.618   1.860  -1.596  0.00  0.00    +0.214 A 
ATOM      3  N   UNL     1      -0.274   1.327  -0.788  0.00  0.00    -0.101 NA
ATOM      4  N   UNL     1      -0.259   0.047  -0.884  0.00  0.00    -0.022 NA
ATOM      5  N   UNL     1       0.625  -0.329  -1.743  0.00  0.00    -0.038 NA
ATOM      6  N   UNL     1       1.232   0.837  -2.241  0.00  0.00    -0.187 N 
BRANCH   6   7
ATOM      7  C   UNL     1       2.253   0.924  -3.200  0.00  0.00    +0.070 A 
ATOM      8  C   UNL     1       2.268   1.977  -4.104  0.00  0.00    +0.031 A 
ATOM      9  C   UNL     1       3.276   2.066  -5.044  0.00  0.00    +0.047 A 
ATOM     10  C   UNL     1       4.268   1.096  -5.091  0.00  0.00    +0.117 A 
ATOM     11  C   UNL     1       4.249   0.040  -4.192  0.00  0.00    +0.047 A 
ATOM     12  C   UNL     1       3.244  -0.046  -3.248  0.00  0.00    +0.031 A 
BRANCH  10  13
ATOM     13  O   UNL     1       5.257   1.181  -6.020  0.00  0.00    -0.507 OA
ATOM     14  H   UNL     1       5.054   0.733  -6.853  0.00  0.00    +0.292 HD
ENDBRANCH  10  13
ENDBRANCH   6   7
ENDBRANCH   1   2
BRANCH   1  15
ATOM     15  C   UNL     1      -0.243   4.272  -0.631  0.00  0.00    +0.173 C 
BRANCH  15  17
ATOM     16  N   UNL     1      -0.934   6.510   0.163  0.00  0.00    -0.284 N 
ATOM     17  C   UNL     1      -0.137   5.775  -0.637  0.00  0.00    +0.228 C 
ATOM     18  O   UNL     1       0.667   6.324  -1.361  0.00  0.00    -0.275 OA
ATOM     19  H   UNL     1      -1.613   6.075   0.703  0.00  0.00    +0.155 HD
BRANCH  16  26
ATOM     20  C   UNL     1       1.659   7.564   0.679  0.00  0.00    +0.045 C 
ATOM     21  C   UNL     1       0.464   8.457   0.463  0.00  0.00    -0.029 A 
ATOM     22  C   UNL     1       0.610   9.829   0.508  0.00  0.00    +0.005 A 
ATOM     23  C   UNL     1      -0.487  10.649   0.316  0.00  0.00    +0.001 A 
ATOM     24  C   UNL     1      -1.732  10.099   0.073  0.00  0.00    +0.005 A 
ATOM     25  C   UNL     1      -1.883   8.727   0.022  0.00  0.00    -0.029 A 
ATOM     26  C   UNL     1      -0.784   7.901   0.214  0.00  0.00    +0.039 A 
ATOM     27  C   UNL     1      -3.240   8.127  -0.243  0.00  0.00    +0.045 C 
ENDBRANCH  16  26
ENDBRANCH  15  17
ENDBRANCH   1  15
TORSDOF 6
