REMARK  Name = ZINC35591921
REMARK  15 active torsions:
REMARK  status: ('A' for Active; 'I' for Inactive)
REMARK    1  A    between atoms: C_1  and  N_2
REMARK    2  A    between atoms: N_2  and  C_3
REMARK    3  A    between atoms: N_2  and  C_4
REMARK    4  A    between atoms: C_4  and  C_5
REMARK    5  A    between atoms: C_5  and  N_6
REMARK    6  A    between atoms: C_7  and  C_9
REMARK    7  A    between atoms: C_9  and  O_24
REMARK    8  A    between atoms: C_11  and  O_23
REMARK    9  A    between atoms: C_13  and  O_22
REMARK   10  A    between atoms: C_15  and  O_18
REMARK   11  A    between atoms: O_18  and  C_19
REMARK   12  A    between atoms: C_19  and  C_20
REMARK   13  A    between atoms: O_24  and  C_25
REMARK   14  A    between atoms: C_25  and  C_26
REMARK   15  A    between atoms: C_30  and  C_32
REMARK                            x       y       z     vdW  Elec       q    Type
REMARK                         _______ _______ _______ _____ _____    ______ ____
ROOT
ATOM      1  C   UNL     1       0.792  -0.956   6.007  0.00  0.00    +0.150 C 
ATOM      2  C   UNL     1       0.368  -2.425   6.065  0.00  0.00    +0.078 C 
ATOM      3  C   UNL     1       0.987  -3.086   7.298  0.00  0.00    +0.149 C 
ATOM      4  C   UNL     1       0.505  -2.366   8.559  0.00  0.00    +0.172 C 
ATOM      5  C   UNL     1       0.928  -0.897   8.501  0.00  0.00    +0.153 C 
ATOM      6  C   UNL     1       0.309  -0.236   7.268  0.00  0.00    +0.079 C 
ENDROOT
BRANCH   1   8
ATOM      7  N   UNL     1       0.800  -0.394   3.598  0.00  0.00    -0.315 N 
ATOM      8  C   UNL     1       0.182  -0.305   4.793  0.00  0.00    +0.245 C 
ATOM      9  O   UNL     1      -0.865   0.300   4.890  0.00  0.00    -0.273 OA
ATOM     10  H   UNL     1       1.668  -0.821   3.532  0.00  0.00    +0.149 HD
BRANCH   7  11
ATOM     11  C   UNL     1       0.160   0.154   2.400  0.00  0.00    +0.086 C 
BRANCH  11  12
ATOM     12  C   UNL     1       1.065  -0.077   1.188  0.00  0.00    -0.061 C 
BRANCH  12  14
ATOM     13  C   UNL     1       0.311   1.931   0.114  0.00  0.00    -0.097 C 
ATOM     14  N   UNL     1       0.423   0.472  -0.014  0.00  0.00    +0.377 N 
ATOM     15  C   UNL     1       1.234   0.145  -1.195  0.00  0.00    -0.097 C 
ATOM     16  H   UNL     1      -0.497   0.071  -0.117  0.00  0.00    -0.083 HD
ENDBRANCH  12  14
ENDBRANCH  11  12
ENDBRANCH   7  11
ENDBRANCH   1   8
BRANCH   4  17
ATOM     17  O   UNL     1       1.083  -2.984   9.711  0.00  0.00    -0.387 OA
ATOM     18  H   UNL     1       0.856  -3.919   9.811  0.00  0.00    +0.210 HD
ENDBRANCH   4  17
BRANCH   3  19
ATOM     19  O   UNL     1       2.412  -3.004   7.218  0.00  0.00    -0.389 OA
ATOM     20  H   UNL     1       2.871  -3.404   7.969  0.00  0.00    +0.210 HD
ENDBRANCH   3  19
BRANCH   5  21
ATOM     21  O   UNL     1       0.478  -0.225   9.679  0.00  0.00    -0.370 OA
BRANCH  21  22
ATOM     22  C   UNL     1       1.415  -0.251  10.758  0.00  0.00    +0.187 C 
BRANCH  22  23
ATOM     23  C   UNL     1       0.839   0.483  11.941  0.00  0.00    -0.007 C 
ATOM     24  C   UNL     1       0.930  -0.035  13.141  0.00  0.00    +0.006 C 
ENDBRANCH  22  23
ENDBRANCH  21  22
ENDBRANCH   5  21
BRANCH   1  25
ATOM     25  O   UNL     1       2.216  -0.874   5.927  0.00  0.00    -0.359 OA
BRANCH  25  26
ATOM     26  C   UNL     1       2.720   0.463   5.900  0.00  0.00    +0.196 C 
BRANCH  26  27
ATOM     27  C   UNL     1       4.227   0.431   5.864  0.00  0.00    -0.021 A 
ATOM     28  C   UNL     1       4.946   0.425   7.045  0.00  0.00    +0.006 A 
ATOM     29  C   UNL     1       6.327   0.395   7.013  0.00  0.00    +0.001 A 
ATOM     30  C   UNL     1       6.990   0.372   5.800  0.00  0.00    +0.012 A 
ATOM     31  C   UNL     1       6.271   0.377   4.620  0.00  0.00    +0.055 A 
ATOM     32  C   UNL     1       4.889   0.402   4.652  0.00  0.00    +0.018 A 
BRANCH  31  33
ATOM     33  C   UNL     1       6.994   0.352   3.297  0.00  0.00    +0.417 C 
ATOM     34  F   UNL     1       8.374   0.326   3.521  0.00  0.00    -0.166 F 
ATOM     35  F   UNL     1       6.615  -0.788   2.581  0.00  0.00    -0.166 F 
ATOM     36  F   UNL     1       6.662   1.496   2.563  0.00  0.00    -0.166 F 
ENDBRANCH  31  33
ENDBRANCH  26  27
ENDBRANCH  25  26
ENDBRANCH   1  25
TORSDOF 13
