REMARK  Name = ZINC13501839
REMARK  14 active torsions:
REMARK  status: ('A' for Active; 'I' for Inactive)
REMARK    1  A    between atoms: C_1  and  C_2
REMARK    2  A    between atoms: C_2  and  C_3
REMARK    3  A    between atoms: C_3  and  C_4
REMARK    4  A    between atoms: C_3  and  C_5
REMARK    5  A    between atoms: C_3  and  N_6
REMARK    6  A    between atoms: C_7  and  C_9
REMARK    7  A    between atoms: C_9  and  C_11
REMARK    8  A    between atoms: C_9  and  N_18
REMARK    9  A    between atoms: N_18  and  C_19
REMARK   10  A    between atoms: C_22  and  O_25
REMARK   11  A    between atoms: O_25  and  C_26
REMARK   12  A    between atoms: C_27  and  C_29
REMARK   13  A    between atoms: C_29  and  C_30
REMARK   14  A    between atoms: C_30  and  C_31
REMARK                            x       y       z     vdW  Elec       q    Type
REMARK                         _______ _______ _______ _____ _____    ______ ____
ROOT
ATOM      1  N   UNL     1       4.897   0.919  -0.540  0.00  0.00    -0.255 N 
ATOM      2  C   UNL     1       3.799   1.645  -0.829  0.00  0.00    +0.221 C 
ATOM      3  O   UNL     1       3.913   2.755  -1.304  0.00  0.00    -0.275 OA
ENDROOT
BRANCH   1   4
ATOM      4  C   UNL     1       6.166   1.397  -0.893  0.00  0.00    +0.038 A 
ATOM      5  C   UNL     1       6.673   2.536  -0.282  0.00  0.00    +0.027 A 
ATOM      6  C   UNL     1       7.925   3.004  -0.626  0.00  0.00    +0.047 A 
ATOM      7  C   UNL     1       8.673   2.343  -1.590  0.00  0.00    +0.120 A 
ATOM      8  C   UNL     1       8.165   1.208  -2.204  0.00  0.00    +0.047 A 
ATOM      9  C   UNL     1       6.914   0.735  -1.857  0.00  0.00    +0.027 A 
BRANCH   7  10
ATOM     10  O   UNL     1       9.904   2.808  -1.932  0.00  0.00    -0.495 OA
ATOM     11  C   UNL     1      10.364   3.981  -1.260  0.00  0.00    +0.277 C 
ENDBRANCH   7  10
ENDBRANCH   1   4
BRANCH   1  12
ATOM     12  C   UNL     1       4.764  -0.371   0.143  0.00  0.00    +0.197 C 
BRANCH  12  13
ATOM     13  C   UNL     1       6.114  -1.033   0.233  0.00  0.00    -0.018 A 
ATOM     14  C   UNL     1       7.163  -0.381   0.854  0.00  0.00    +0.009 A 
ATOM     15  C   UNL     1       8.401  -0.990   0.942  0.00  0.00    +0.038 A 
ATOM     16  C   UNL     1       8.593  -2.248   0.397  0.00  0.00    +0.123 A 
ATOM     17  C   UNL     1       7.543  -2.898  -0.229  0.00  0.00    +0.038 A 
ATOM     18  C   UNL     1       6.305  -2.290  -0.311  0.00  0.00    +0.009 A 
ATOM     19  F   UNL     1       9.804  -2.842   0.478  0.00  0.00    -0.205 F 
ENDBRANCH  12  13
BRANCH  12  21
ATOM     20  N   UNL     1       3.638  -1.168   2.196  0.00  0.00    -0.308 N 
ATOM     21  C   UNL     1       4.219  -0.150   1.530  0.00  0.00    +0.239 C 
ATOM     22  O   UNL     1       4.303   0.943   2.049  0.00  0.00    -0.273 OA
ATOM     23  H   UNL     1       3.571  -2.042   1.782  0.00  0.00    +0.149 HD
BRANCH  20  24
ATOM     24  C   UNL     1       3.108  -0.954   3.545  0.00  0.00    +0.029 C 
ATOM     25  C   UNL     1       4.240  -0.504   4.472  0.00  0.00    +0.031 C 
ATOM     26  C   UNL     1       2.025   0.126   3.502  0.00  0.00    +0.031 C 
BRANCH  24  28
ATOM     27  C   UNL     1       1.954  -2.035   5.479  0.00  0.00    +0.006 C 
ATOM     28  C   UNL     1       2.507  -2.259   4.070  0.00  0.00    +0.022 C 
ENDBRANCH  24  28
ENDBRANCH  20  24
ENDBRANCH  12  21
ENDBRANCH   1  12
BRANCH   2  29
ATOM     29  C   UNL     1       2.429   1.077  -0.562  0.00  0.00    +0.105 C 
BRANCH  29  30
ATOM     30  C   UNL     1       1.365   2.096  -0.977  0.00  0.00    +0.105 C 
BRANCH  30  31
ATOM     31  C   UNL     1      -0.005   1.528  -0.710  0.00  0.00    +0.219 C 
ATOM     32  O   UNL     1      -0.120   0.418  -0.234  0.00  0.00    -0.275 OA
ATOM     33  N   UNL     1      -1.104   2.252  -1.004  0.00  0.00    -0.265 N 
ATOM     34  C   UNL     1      -2.368   1.726  -0.763  0.00  0.00    +0.164 A 
ATOM     35  N   UNL     1      -2.694   0.550  -0.263  0.00  0.00    -0.233 NA
ATOM     36  C   UNL     1      -3.956   0.207  -0.093  0.00  0.00    +0.120 A 
ATOM     37  C   UNL     1      -4.920   1.088  -0.457  0.00  0.00    +0.068 A 
ATOM     38  S   UNL     1      -3.922   2.446  -1.050  0.00  0.00    -0.061 S 
ATOM     39  H   UNL     1      -1.012   3.139  -1.384  0.00  0.00    +0.157 HD
ENDBRANCH  30  31
ENDBRANCH  29  30
ENDBRANCH   2  29
TORSDOF 10
