REMARK  Name = ZINC61766901
REMARK  5 active torsions:
REMARK  status: ('A' for Active; 'I' for Inactive)
REMARK    1  A    between atoms: C_1  and  C_2
REMARK    2  A    between atoms: C_2  and  N_3
REMARK    3  A    between atoms: N_10  and  C_11
REMARK    4  A    between atoms: C_11  and  C_13
REMARK    5  A    between atoms: C_11  and  C_14
REMARK                            x       y       z     vdW  Elec       q    Type
REMARK                         _______ _______ _______ _____ _____    ______ ____
ROOT
ATOM      1  N   UNL     1      -1.372  -0.511   0.012  0.00  0.00    -0.311 N 
ATOM      2  C   UNL     1      -2.011  -0.751   1.193  0.00  0.00    +0.109 A 
ATOM      3  C   UNL     1      -3.277  -1.218   1.213  0.00  0.00    +0.131 A 
ATOM      4  N   UNL     1      -3.952  -1.463   0.090  0.00  0.00    -0.234 NA
ATOM      5  C   UNL     1      -3.400  -1.254  -1.086  0.00  0.00    +0.185 A 
ATOM      6  C   UNL     1      -2.026  -0.742  -1.148  0.00  0.00    +0.291 A 
ATOM      7  O   UNL     1      -1.485  -0.533  -2.221  0.00  0.00    -0.264 OA
ATOM      8  N   UNL     1      -4.108  -1.512  -2.252  0.00  0.00    -0.318 N 
ATOM      9  H   UNL     1      -3.694  -1.356  -3.115  0.00  0.00    +0.148 HD
ENDROOT
BRANCH   1  11
ATOM     10  C   UNL     1      -0.019   1.526   0.010  0.00  0.00    +0.027 C 
ATOM     11  C   UNL     1       0.002  -0.004   0.002  0.00  0.00    +0.121 C 
ENDBRANCH   1  11
BRANCH   8  12
ATOM     12  C   UNL     1      -5.481  -2.018  -2.179  0.00  0.00    +0.100 C 
ATOM     13  C   UNL     1      -6.450  -0.845  -2.022  0.00  0.00    +0.033 C 
BRANCH  12  14
ATOM     14  C   UNL     1      -5.806  -2.773  -3.442  0.00  0.00    -0.021 A 
ATOM     15  C   UNL     1      -6.543  -3.942  -3.390  0.00  0.00    +0.013 A 
ATOM     16  C   UNL     1      -6.818  -4.597  -4.545  0.00  0.00    +0.045 A 
ATOM     17  S   UNL     1      -6.024  -3.555  -5.758  0.00  0.00    -0.105 S 
ATOM     18  C   UNL     1      -5.385  -2.314  -4.645  0.00  0.00    +0.050 A 
ENDBRANCH  12  14
ENDBRANCH   8  12
TORSDOF 3
