REMARK  Name = ZINC13650742
REMARK  7 active torsions:
REMARK  status: ('A' for Active; 'I' for Inactive)
REMARK    1  A    between atoms: C_2  and  C_3
REMARK    2  A    between atoms: C_3  and  N_4
REMARK    3  A    between atoms: C_14  and  N_74
REMARK    4  A    between atoms: C_17  and  C_18
REMARK    5  A    between atoms: C_17  and  N_74
REMARK    6  A    between atoms: N_34  and  C_35
REMARK    7  A    between atoms: C_35  and  C_36
REMARK                            x       y       z     vdW  Elec       q    Type
REMARK                         _______ _______ _______ _____ _____    ______ ____
ROOT
ATOM      1  N   UNL     1      -5.517   1.955  -6.306  0.00  0.00    -0.310 N 
ATOM      2  C   UNL     1      -5.280   2.675  -5.152  0.00  0.00    +0.221 A 
ATOM      3  N   UNL     1      -5.895   3.837  -4.955  0.00  0.00    -0.181 NA
ATOM      4  C   UNL     1      -5.667   4.530  -3.844  0.00  0.00    +0.221 A 
ATOM      5  N   UNL     1      -4.823   4.061  -2.930  0.00  0.00    -0.181 NA
ATOM      6  C   UNL     1      -4.208   2.898  -3.127  0.00  0.00    +0.224 A 
ATOM      7  N   UNL     1      -4.433   2.208  -4.240  0.00  0.00    -0.181 NA
ATOM      8  N   UNL     1      -3.333   2.412  -2.178  0.00  0.00    -0.300 N 
ATOM      9  C   UNL     1      -2.769   1.121  -2.595  0.00  0.00    +0.106 C 
ATOM     10  C   UNL     1      -1.919   0.544  -1.460  0.00  0.00    +0.003 C 
ATOM     11  C   UNL     1      -0.795   1.527  -1.120  0.00  0.00    -0.069 C 
ATOM     12  C   UNL     1      -1.407   2.877  -0.736  0.00  0.00    +0.003 C 
ATOM     13  C   UNL     1      -2.272   3.386  -1.891  0.00  0.00    +0.106 C 
ATOM     14  N   UNL     1      -6.304   5.736  -3.640  0.00  0.00    -0.310 N 
ATOM     15  H   UNL     1      -5.069   1.107  -6.450  0.00  0.00    +0.149 HD
ATOM     16  H   UNL     1      -6.137   6.242  -2.829  0.00  0.00    +0.149 HD
ENDROOT
BRANCH  11  17
ATOM     17  N   UNL     1      -0.015   0.998   0.015  0.00  0.00    +0.382 N 
ATOM     18  H   UNL     1       0.032  -0.025  -0.054  0.00  0.00    -0.085 HD
ATOM     19  H   UNL     1      -0.475   1.261   0.894  0.00  0.00    -0.085 HD
BRANCH  17  20
ATOM     20  C   UNL     1       1.353   1.550  -0.003  0.00  0.00    -0.066 C 
BRANCH  20  21
ATOM     21  C   UNL     1       2.136   0.985   1.184  0.00  0.00    +0.006 C 
ATOM     22  C   UNL     1       3.589   1.505   1.254  0.00  0.00    +0.015 C 
ATOM     23  C   UNL     1       4.328   0.925   2.457  0.00  0.00    +0.014 C 
ATOM     24  C   UNL     1       3.421  -0.022   3.273  0.00  0.00    +0.050 C 
ATOM     25  C   UNL     1       2.193   0.803   3.627  0.00  0.00    -0.036 A 
ATOM     26  C   UNL     1       1.518   1.331   2.529  0.00  0.00    -0.035 A 
ATOM     27  C   UNL     1       0.397   2.093   2.699  0.00  0.00    +0.005 A 
ATOM     28  C   UNL     1      -0.059   2.334   3.989  0.00  0.00    +0.000 A 
ATOM     29  C   UNL     1       0.611   1.809   5.078  0.00  0.00    +0.000 A 
ATOM     30  C   UNL     1       1.750   1.035   4.897  0.00  0.00    +0.004 A 
ATOM     31  C   UNL     1       2.946  -1.075   2.284  0.00  0.00    -0.036 A 
ATOM     32  C   UNL     1       2.252  -0.532   1.155  0.00  0.00    -0.035 A 
ATOM     33  C   UNL     1       1.795  -1.395   0.204  0.00  0.00    +0.005 A 
ATOM     34  C   UNL     1       1.983  -2.764   0.343  0.00  0.00    +0.000 A 
ATOM     35  C   UNL     1       2.647  -3.272   1.444  0.00  0.00    +0.000 A 
ATOM     36  C   UNL     1       3.134  -2.420   2.427  0.00  0.00    +0.004 A 
ENDBRANCH  20  21
ENDBRANCH  17  20
ENDBRANCH  11  17
BRANCH   1  37
ATOM     37  C   UNL     1      -6.447   2.473  -7.314  0.00  0.00    +0.131 C 
BRANCH  37  39
ATOM     38  C   UNL     1      -7.688   1.034  -8.847  0.00  0.00    +0.005 C 
ATOM     39  C   UNL     1      -6.527   1.505  -8.467  0.00  0.00    -0.016 C 
ENDBRANCH  37  39
ENDBRANCH   1  37
BRANCH  14  40
ATOM     40  C   UNL     1      -7.234   6.253  -4.647  0.00  0.00    +0.131 C 
BRANCH  40  41
ATOM     41  C   UNL     1      -7.790   7.576  -4.186  0.00  0.00    -0.016 C 
ATOM     42  C   UNL     1      -7.684   8.634  -4.951  0.00  0.00    +0.005 C 
ENDBRANCH  40  41
ENDBRANCH  14  40
TORSDOF 7
