REMARK  Name = ZINC37104812
REMARK  6 active torsions:
REMARK  status: ('A' for Active; 'I' for Inactive)
REMARK    1  A    between atoms: C_1  and  C_2
REMARK    2  A    between atoms: C_5  and  C_7
REMARK    3  A    between atoms: C_7  and  C_9
REMARK    4  A    between atoms: C_7  and  N_10
REMARK    5  A    between atoms: N_10  and  C_11
REMARK    6  A    between atoms: C_14  and  C_17
REMARK                            x       y       z     vdW  Elec       q    Type
REMARK                         _______ _______ _______ _____ _____    ______ ____
ROOT
ATOM      1  C   UNL     1       3.532  -4.025   1.433  0.00  0.00    +0.028 A 
ATOM      2  C   UNL     1       3.167  -5.338   1.158  0.00  0.00    +0.023 A 
ATOM      3  C   UNL     1       3.869  -6.383   1.721  0.00  0.00    +0.012 A 
ATOM      4  C   UNL     1       4.945  -6.121   2.567  0.00  0.00    +0.002 A 
ATOM      5  C   UNL     1       5.310  -4.804   2.841  0.00  0.00    +0.012 A 
ATOM      6  C   UNL     1       4.609  -3.763   2.271  0.00  0.00    +0.023 A 
ENDROOT
BRANCH   4   7
ATOM      7  C   UNL     1       5.702  -7.244   3.174  0.00  0.00    +0.092 A 
ATOM      8  C   UNL     1       6.802  -7.126   4.046  0.00  0.00    +0.049 A 
ATOM      9  C   UNL     1       7.206  -8.372   4.375  0.00  0.00    +0.105 A 
ATOM     10  N   UNL     1       6.401  -9.252   3.741  0.00  0.00    -0.284 N 
ATOM     11  H   UNL     1       6.460 -10.218   3.794  0.00  0.00    +0.188 HD
ATOM     12  N   UNL     1       5.461  -8.526   2.998  0.00  0.00    -0.174 NA
ENDBRANCH   4   7
BRANCH   1  13
ATOM     13  N   UNL     1       2.819  -2.969   0.861  0.00  0.00    -0.334 N 
ATOM     14  H   UNL     1       3.076  -2.053   1.050  0.00  0.00    +0.147 HD
BRANCH  13  15
ATOM     15  C   UNL     1       1.684  -3.245  -0.023  0.00  0.00    +0.133 C 
ATOM     16  C   UNL     1       2.192  -3.480  -1.447  0.00  0.00    +0.036 C 
BRANCH  15  21
ATOM     17  C   UNL     1      -0.018   1.503   0.010  0.00  0.00    +0.086 C 
ATOM     18  C   UNL     1       0.002  -0.004   0.002  0.00  0.00    +0.102 A 
ATOM     19  C   UNL     1      -1.078  -0.805   0.003  0.00  0.00    +0.045 A 
ATOM     20  C   UNL     1      -0.601  -2.136  -0.007  0.00  0.00    +0.047 A 
ATOM     21  C   UNL     1       0.742  -2.069  -0.013  0.00  0.00    +0.125 A 
ATOM     22  O   UNL     1       1.102  -0.775  -0.013  0.00  0.00    -0.463 OA
ENDBRANCH  15  21
ENDBRANCH  13  15
ENDBRANCH   1  13
TORSDOF 4
