REMARK  Name = ZINC36437928
REMARK  7 active torsions:
REMARK  status: ('A' for Active; 'I' for Inactive)
REMARK    1  A    between atoms: C_1  and  C_2
REMARK    2  A    between atoms: C_3  and  C_14
REMARK    3  A    between atoms: C_4  and  C_13
REMARK    4  A    between atoms: N_5  and  C_7
REMARK    5  A    between atoms: N_20  and  C_21
REMARK    6  A    between atoms: C_21  and  C_22
REMARK    7  A    between atoms: C_28  and  C_29
REMARK                            x       y       z     vdW  Elec       q    Type
REMARK                         _______ _______ _______ _____ _____    ______ ____
ROOT
ATOM      1  C   UNL     1       0.122  -0.383  -2.577  0.00  0.00    +0.054 C 
ATOM      2  C   UNL     1       1.556  -0.229  -2.995  0.00  0.00    +0.204 C 
ATOM      3  O   UNL     1       2.358  -1.070  -2.645  0.00  0.00    -0.277 OA
ATOM      4  N   UNL     1       1.986   0.797  -3.738  0.00  0.00    -0.318 N 
ATOM      5  C   UNL     1       1.102   1.871  -4.184  0.00  0.00    +0.085 C 
ATOM      6  C   UNL     1      -0.357   1.427  -4.066  0.00  0.00    -0.058 C 
ATOM      7  N   UNL     1      -0.584   0.898  -2.712  0.00  0.00    +0.397 N 
ATOM      8  H   UNL     1       2.922   0.829  -3.991  0.00  0.00    +0.149 HD
ATOM      9  H   UNL     1      -0.230   1.552  -2.030  0.00  0.00    -0.079 HD
ENDROOT
BRANCH   1  12
ATOM     10  C   UNL     1      -0.612  -3.296  -1.570  0.00  0.00    +0.068 C 
ATOM     11  C   UNL     1      -0.258  -2.122  -0.695  0.00  0.00    +0.063 A 
ATOM     12  C   UNL     1       0.065  -0.835  -1.141  0.00  0.00    -0.009 A 
ATOM     13  C   UNL     1       0.319  -0.070  -0.055  0.00  0.00    +0.044 A 
ATOM     14  N   UNL     1       0.162  -0.846   1.042  0.00  0.00    -0.237 N 
ATOM     15  N   UNL     1      -0.205  -2.128   0.612  0.00  0.00    -0.171 NA
ATOM     16  C   UNL     1       0.708   1.387  -0.065  0.00  0.00    +0.066 C 
BRANCH  14  17
ATOM     17  C   UNL     1       0.332  -0.438   2.372  0.00  0.00    +0.066 A 
ATOM     18  C   UNL     1      -0.156   0.792   2.790  0.00  0.00    +0.028 A 
ATOM     19  C   UNL     1       0.013   1.191   4.102  0.00  0.00    +0.002 A 
ATOM     20  C   UNL     1       0.667   0.366   4.998  0.00  0.00    +0.000 A 
ATOM     21  C   UNL     1       1.155  -0.860   4.584  0.00  0.00    +0.002 A 
ATOM     22  C   UNL     1       0.983  -1.267   3.276  0.00  0.00    +0.028 A 
ENDBRANCH  14  17
ENDBRANCH   1  12
BRANCH   7  23
ATOM     23  C   UNL     1      -2.023   0.691  -2.499  0.00  0.00    +0.020 C 
BRANCH  23  24
ATOM     24  C   UNL     1      -2.729   2.022  -2.516  0.00  0.00    +0.200 C 
ATOM     25  O   UNL     1      -2.096   3.043  -2.688  0.00  0.00    -0.278 OA
ATOM     26  N   UNL     1      -4.064   2.079  -2.339  0.00  0.00    -0.295 N 
ATOM     27  C   UNL     1      -4.951   0.923  -2.114  0.00  0.00    +0.108 C 
ATOM     28  C   UNL     1      -6.348   1.398  -2.586  0.00  0.00    +0.021 C 
ATOM     29  C   UNL     1      -6.345   2.880  -2.127  0.00  0.00    +0.029 C 
ATOM     30  C   UNL     1      -4.876   3.305  -2.333  0.00  0.00    +0.113 C 
BRANCH  30  31
ATOM     31  C   UNL     1      -4.437   4.205  -1.206  0.00  0.00    +0.010 A 
ATOM     32  C   UNL     1      -4.306   5.554  -1.193  0.00  0.00    +0.013 A 
ATOM     33  C   UNL     1      -3.884   6.175  -0.032  0.00  0.00    +0.008 A 
ATOM     34  C   UNL     1      -3.613   5.416   1.058  0.00  0.00    +0.045 A 
ATOM     35  S   UNL     1      -3.963   3.771   0.459  0.00  0.00    -0.100 S 
ENDBRANCH  30  31
ENDBRANCH  23  24
ENDBRANCH   7  23
TORSDOF 5
