REMARK  Name = ZINC54731115
REMARK  10 active torsions:
REMARK  status: ('A' for Active; 'I' for Inactive)
REMARK    1  A    between atoms: C_1  and  C_2
REMARK    2  A    between atoms: C_2  and  C_3
REMARK    3  A    between atoms: C_3  and  C_5
REMARK    4  A    between atoms: C_3  and  C_6
REMARK    5  A    between atoms: C_6  and  C_8
REMARK    6  A    between atoms: C_6  and  N_24
REMARK    7  A    between atoms: N_10  and  C_11
REMARK    8  A    between atoms: C_14  and  S_17
REMARK    9  A    between atoms: S_17  and  C_18
REMARK   10  A    between atoms: N_22  and  C_23
REMARK                            x       y       z     vdW  Elec       q    Type
REMARK                         _______ _______ _______ _____ _____    ______ ____
ROOT
ATOM      1  C   UNL     1       1.335  -2.510  -2.568  0.00  0.00    +0.238 C 
ATOM      2  O   UNL     1       0.693  -2.812  -3.552  0.00  0.00    -0.273 OA
ATOM      3  N   UNL     1       2.679  -2.619  -2.580  0.00  0.00    -0.284 N 
ATOM      4  H   UNL     1       3.197  -2.317  -1.818  0.00  0.00    +0.155 HD
ENDROOT
BRANCH   3   5
ATOM      5  C   UNL     1       3.327  -3.170  -3.694  0.00  0.00    +0.034 A 
ATOM      6  C   UNL     1       4.466  -3.945  -3.522  0.00  0.00    +0.024 A 
ATOM      7  C   UNL     1       5.105  -4.486  -4.619  0.00  0.00    +0.017 A 
ATOM      8  C   UNL     1       4.608  -4.256  -5.896  0.00  0.00    +0.016 A 
ATOM      9  C   UNL     1       3.468  -3.481  -6.068  0.00  0.00    +0.017 A 
ATOM     10  C   UNL     1       2.826  -2.944  -4.970  0.00  0.00    +0.024 A 
BRANCH   8  11
ATOM     11  S   UNL     1       5.424  -4.947  -7.296  0.00  0.00    -0.050 S 
BRANCH  11  12
ATOM     12  C   UNL     1       4.553  -6.448  -7.600  0.00  0.00    +0.196 A 
ATOM     13  N   UNL     1       3.589  -6.954  -6.865  0.00  0.00    -0.122 NA
ATOM     14  N   UNL     1       3.181  -8.058  -7.380  0.00  0.00    -0.137 NA
ATOM     15  C   UNL     1       3.854  -8.322  -8.465  0.00  0.00    +0.225 A 
ATOM     16  N   UNL     1       4.747  -7.303  -8.647  0.00  0.00    -0.311 N 
ATOM     17  C   UNL     1       5.715  -7.159  -9.737  0.00  0.00    +0.152 C 
ENDBRANCH  11  12
ENDBRANCH   8  11
ENDBRANCH   3   5
BRANCH   1  18
ATOM     18  C   UNL     1       0.631  -2.015  -1.332  0.00  0.00    +0.163 C 
BRANCH  18  19
ATOM     19  N   UNL     1      -0.776  -2.423  -1.374  0.00  0.00    -0.288 N 
ATOM     20  C   UNL     1      -1.566  -2.014  -2.386  0.00  0.00    +0.298 C 
ATOM     21  O   UNL     1      -1.112  -1.305  -3.263  0.00  0.00    -0.253 OA
ATOM     22  N   UNL     1      -2.860  -2.389  -2.425  0.00  0.00    -0.313 N 
ATOM     23  H   UNL     1      -1.138  -2.989  -0.674  0.00  0.00    +0.151 HD
ATOM     24  H   UNL     1      -3.222  -2.955  -1.725  0.00  0.00    +0.146 HD
ATOM     25  H   UNL     1      -3.429  -2.094  -3.153  0.00  0.00    +0.146 HD
ENDBRANCH  18  19
BRANCH  18  26
ATOM     26  C   UNL     1       0.717  -0.488  -1.273  0.00  0.00    +0.015 C 
ATOM     27  C   UNL     1       2.185  -0.062  -1.229  0.00  0.00    +0.010 C 
BRANCH  26  29
ATOM     28  C   UNL     1      -0.021   1.545  -0.022  0.00  0.00    +0.004 C 
ATOM     29  C   UNL     1       0.002   0.015  -0.018  0.00  0.00    +0.002 C 
ENDBRANCH  26  29
ENDBRANCH  18  26
ENDBRANCH   1  18
TORSDOF 7
