REMARK  Name = ZINC62828196
REMARK  5 active torsions:
REMARK  status: ('A' for Active; 'I' for Inactive)
REMARK    1  A    between atoms: C_1  and  N_2
REMARK    2  A    between atoms: N_2  and  C_3
REMARK    3  A    between atoms: C_3  and  C_4
REMARK    4  A    between atoms: N_12  and  C_13
REMARK    5  A    between atoms: C_14  and  C_18
REMARK                            x       y       z     vdW  Elec       q    Type
REMARK                         _______ _______ _______ _____ _____    ______ ____
ROOT
ATOM      1  C   UNL     1      -0.018   1.461   0.010  0.00  0.00    +0.134 C 
ATOM      2  N   UNL     1       0.002  -0.004   0.002  0.00  0.00    -0.281 N 
ATOM      3  C   UNL     1       0.000  -0.672  -1.169  0.00  0.00    +0.307 C 
ATOM      4  O   UNL     1       0.017  -1.887  -1.175  0.00  0.00    -0.252 OA
ATOM      5  N   UNL     1      -0.020   0.009  -2.332  0.00  0.00    -0.263 N 
ATOM      6  H   UNL     1      -0.033   0.978  -2.327  0.00  0.00    +0.157 HD
ENDROOT
BRANCH   5   7
ATOM      7  C   UNL     1      -0.022  -0.677  -3.535  0.00  0.00    +0.087 A 
ATOM      8  C   UNL     1      -0.036  -0.148  -4.821  0.00  0.00    +0.092 A 
ATOM      9  C   UNL     1      -0.035  -1.101  -5.910  0.00  0.00    +0.024 A 
ATOM     10  C   UNL     1      -0.021  -2.398  -5.554  0.00  0.00    +0.048 A 
ATOM     11  S   UNL     1      -0.001  -2.337  -3.776  0.00  0.00    -0.081 S 
BRANCH   8  12
ATOM     12  C   UNL     1      -0.051   1.250  -5.053  0.00  0.00    +0.389 C 
ATOM     13  O   UNL     1      -0.063   1.681  -6.200  0.00  0.00    -0.241 OA
ATOM     14  O   UNL     1      -0.052   2.028  -4.107  0.00  0.00    -0.241 OA
ENDBRANCH   8  12
ENDBRANCH   5   7
BRANCH   2  15
ATOM     15  C   UNL     1       0.024  -0.743   1.267  0.00  0.00    +0.183 C 
BRANCH  15  16
ATOM     16  C   UNL     1      -1.389  -1.016   1.714  0.00  0.00    +0.124 A 
ATOM     17  C   UNL     1      -2.117  -2.103   1.401  0.00  0.00    +0.047 A 
ATOM     18  C   UNL     1      -3.375  -1.948   2.027  0.00  0.00    +0.057 A 
ATOM     19  C   UNL     1      -3.340  -0.775   2.686  0.00  0.00    +0.170 A 
ATOM     20  O   UNL     1      -2.133  -0.218   2.497  0.00  0.00    -0.452 OA
ATOM     21 BR   UNL     1      -4.750  -0.039   3.710  0.00  0.00    -0.008 Br
ENDBRANCH  15  16
ENDBRANCH   2  15
TORSDOF 4
