REMARK  Name = ZINC17080438
REMARK  9 active torsions:
REMARK  status: ('A' for Active; 'I' for Inactive)
REMARK    1  A    between atoms: C_1  and  C_2
REMARK    2  A    between atoms: C_2  and  C_3
REMARK    3  A    between atoms: C_6  and  S_9
REMARK    4  A    between atoms: N_7  and  C_8
REMARK    5  A    between atoms: S_9  and  C_10
REMARK    6  A    between atoms: C_10  and  C_11
REMARK    7  A    between atoms: N_13  and  C_14
REMARK    8  A    between atoms: C_15  and  C_25
REMARK    9  A    between atoms: C_20  and  C_24
REMARK                            x       y       z     vdW  Elec       q    Type
REMARK                         _______ _______ _______ _____ _____    ______ ____
ROOT
ATOM      1  C   UNL     1       7.170   4.671  -0.041  0.00  0.00    +0.084 A 
ATOM      2  C   UNL     1       7.750   5.932  -0.039  0.00  0.00    +0.068 A 
ATOM      3  C   UNL     1       9.202   6.003  -0.052  0.00  0.00    -0.023 A 
ATOM      4  C   UNL     1       9.836   4.811  -0.063  0.00  0.00    -0.004 A 
ATOM      5  S   UNL     1       8.538   3.607  -0.051  0.00  0.00    -0.077 S 
ATOM      6  C   UNL     1      11.315   4.575  -0.078  0.00  0.00    +0.046 C 
ATOM      7  C   UNL     1      12.011   5.890  -0.456  0.00  0.00    -0.009 C 
ATOM      8  C   UNL     1      11.422   7.021   0.392  0.00  0.00    +0.008 C 
ATOM      9  C   UNL     1       9.986   7.309  -0.051  0.00  0.00    +0.037 C 
ATOM     10  C   UNL     1      13.512   5.772  -0.186  0.00  0.00    +0.008 C 
ENDROOT
BRANCH   2  11
ATOM     11  C   UNL     1       6.929   7.147  -0.026  0.00  0.00    +0.244 C 
ATOM     12  O   UNL     1       6.598   7.645   1.034  0.00  0.00    -0.270 OA
ATOM     13  N   UNL     1       6.542   7.711  -1.187  0.00  0.00    -0.325 N 
ATOM     14  H   UNL     1       6.806   7.314  -2.031  0.00  0.00    +0.145 HD
ATOM     15  H   UNL     1       5.999   8.515  -1.177  0.00  0.00    +0.145 HD
ENDBRANCH   2  11
BRANCH   1  18
ATOM     16  C   UNL     1       5.445   3.049  -0.033  0.00  0.00    +0.228 C 
ATOM     17  O   UNL     1       6.283   2.172  -0.045  0.00  0.00    -0.275 OA
ATOM     18  N   UNL     1       5.823   4.343  -0.030  0.00  0.00    -0.279 N 
ATOM     19  H   UNL     1       5.153   5.044  -0.020  0.00  0.00    +0.155 HD
BRANCH  16  20
ATOM     20  C   UNL     1       3.981   2.692  -0.021  0.00  0.00    +0.173 C 
BRANCH  20  21
ATOM     21  S   UNL     1       3.799   0.891  -0.029  0.00  0.00    -0.077 S 
BRANCH  21  25
ATOM     22  C   UNL     1       0.002  -0.004   0.002  0.00  0.00    +0.134 A 
ATOM     23  N   UNL     1      -0.016   1.299   0.009  0.00  0.00    -0.134 NA
ATOM     24  N   UNL     1       1.185   1.756   0.000  0.00  0.00    -0.123 NA
ATOM     25  C   UNL     1       2.042   0.761  -0.013  0.00  0.00    +0.192 A 
ATOM     26  N   UNL     1       1.313  -0.393  -0.013  0.00  0.00    -0.309 N 
ATOM     27  C   UNL     1       1.829  -1.765  -0.025  0.00  0.00    +0.152 C 
BRANCH  22  29
ATOM     28  C   UNL     1      -1.621  -1.214  -1.431  0.00  0.00    +0.012 C 
ATOM     29  C   UNL     1      -1.200  -0.913   0.009  0.00  0.00    +0.073 C 
ENDBRANCH  22  29
ENDBRANCH  21  25
ENDBRANCH  20  21
ENDBRANCH  16  20
ENDBRANCH   1  18
TORSDOF 6
