REMARK  Name = ZINC14641623
REMARK  14 active torsions:
REMARK  status: ('A' for Active; 'I' for Inactive)
REMARK    1  A    between atoms: C_1  and  C_2
REMARK    2  A    between atoms: C_2  and  C_3
REMARK    3  A    between atoms: C_3  and  O_4
REMARK    4  A    between atoms: O_4  and  C_5
REMARK    5  A    between atoms: C_9  and  C_11
REMARK    6  A    between atoms: N_13  and  C_14
REMARK    7  A    between atoms: C_14  and  N_16
REMARK    8  A    between atoms: N_16  and  N_17
REMARK    9  A    between atoms: C_18  and  C_20
REMARK   10  A    between atoms: C_20  and  O_21
REMARK   11  A    between atoms: O_21  and  C_22
REMARK   12  A    between atoms: C_25  and  C_29
REMARK   13  A    between atoms: C_29  and  C_30
REMARK   14  A    between atoms: C_29  and  C_31
REMARK                            x       y       z     vdW  Elec       q    Type
REMARK                         _______ _______ _______ _____ _____    ______ ____
ROOT
ATOM      1  N   UNL     1       2.241   8.046   0.023  0.00  0.00    -0.245 N 
ATOM      2  H   UNL     1       2.231   9.016   0.029  0.00  0.00    +0.172 HD
ENDROOT
BRANCH   1   3
ATOM      3  N   UNL     1       3.462   7.359   0.008  0.00  0.00    -0.232 N 
ATOM      4  C   UNL     1       4.622   8.045   0.001  0.00  0.00    +0.267 C 
ATOM      5  O   UNL     1       4.609   9.257   0.007  0.00  0.00    -0.271 OA
ATOM      6  H   UNL     1       3.472   6.389   0.003  0.00  0.00    +0.173 HD
BRANCH   4   7
ATOM      7  C   UNL     1       5.935   7.305  -0.016  0.00  0.00    +0.326 C 
BRANCH   7   8
ATOM      8  O   UNL     1       7.011   8.245  -0.021  0.00  0.00    -0.482 OA
BRANCH   8   9
ATOM      9  C   UNL     1       8.273   7.739  -0.036  0.00  0.00    +0.135 A 
ATOM     10  C   UNL     1       8.470   6.366  -0.045  0.00  0.00    +0.047 A 
ATOM     11  C   UNL     1       9.753   5.854  -0.061  0.00  0.00    +0.007 A 
ATOM     12  C   UNL     1      10.840   6.708  -0.067  0.00  0.00    -0.044 A 
ATOM     13  C   UNL     1      10.647   8.077  -0.058  0.00  0.00    +0.022 A 
ATOM     14  C   UNL     1       9.365   8.595  -0.048  0.00  0.00    +0.060 A 
ATOM     15 BR   UNL     1       9.101  10.467  -0.042  0.00  0.00    -0.047 Br
BRANCH  12  16
ATOM     16  C   UNL     1      12.238   6.146  -0.085  0.00  0.00    +0.013 C 
ATOM     17  C   UNL     1      12.968   6.632  -1.339  0.00  0.00    +0.012 C 
ATOM     18  C   UNL     1      12.993   6.619   1.159  0.00  0.00    +0.012 C 
ENDBRANCH  12  16
ENDBRANCH   8   9
ENDBRANCH   7   8
ENDBRANCH   4   7
ENDBRANCH   1   3
BRANCH   1  19
ATOM     19  C   UNL     1       1.081   7.360   0.031  0.00  0.00    +0.153 C 
ATOM     20  S   UNL     1      -0.410   8.200   0.050  0.00  0.00    -0.017 S 
BRANCH  19  23
ATOM     21  C   UNL     1      -0.064   5.326   0.031  0.00  0.00    +0.250 C 
ATOM     22  O   UNL     1      -1.123   5.923   0.044  0.00  0.00    -0.270 OA
ATOM     23  N   UNL     1       1.096   6.012   0.023  0.00  0.00    -0.263 N 
ATOM     24  H   UNL     1       1.941   5.536   0.013  0.00  0.00    +0.157 HD
BRANCH  21  29
ATOM     25  C   UNL     1      -1.226   1.751   0.017  0.00  0.00    +0.121 A 
ATOM     26  C   UNL     1      -0.013   1.076   0.008  0.00  0.00    +0.046 A 
ATOM     27  C   UNL     1       1.177   1.781   0.000  0.00  0.00    +0.004 A 
ATOM     28  C   UNL     1       1.166   3.161   0.007  0.00  0.00    +0.013 A 
ATOM     29  C   UNL     1      -0.049   3.848   0.023  0.00  0.00    +0.041 A 
ATOM     30  C   UNL     1      -1.248   3.135   0.031  0.00  0.00    +0.058 A 
BRANCH  25  31
ATOM     31  O   UNL     1      -2.392   1.053   0.019  0.00  0.00    -0.492 OA
BRANCH  31  32
ATOM     32  C   UNL     1      -2.294  -0.373   0.010  0.00  0.00    +0.229 C 
BRANCH  32  34
ATOM     33  C   UNL     1      -3.594  -2.507   0.004  0.00  0.00    +0.007 C 
ATOM     34  C   UNL     1      -3.699  -0.980   0.013  0.00  0.00    +0.038 C 
ENDBRANCH  32  34
ENDBRANCH  31  32
ENDBRANCH  25  31
ENDBRANCH  21  29
ENDBRANCH  19  23
ENDBRANCH   1  19
TORSDOF 11
