REMARK  Name = ZINC40110964
REMARK  7 active torsions:
REMARK  status: ('A' for Active; 'I' for Inactive)
REMARK    1  A    between atoms: C_1  and  C_2
REMARK    2  A    between atoms: C_5  and  C_9
REMARK    3  A    between atoms: C_9  and  C_10
REMARK    4  A    between atoms: C_10  and  C_11
REMARK    5  A    between atoms: N_13  and  C_14
REMARK    6  A    between atoms: C_18  and  C_20
REMARK    7  A    between atoms: C_20  and  C_27
REMARK                            x       y       z     vdW  Elec       q    Type
REMARK                         _______ _______ _______ _____ _____    ______ ____
ROOT
ATOM      1  C   UNL     1       2.726  -8.328   0.045  0.00  0.00    +0.034 A 
ATOM      2  C   UNL     1       1.724  -9.082  -0.551  0.00  0.00    +0.023 A 
ATOM      3  C   UNL     1       1.747 -10.460  -0.454  0.00  0.00    +0.002 A 
ATOM      4  C   UNL     1       2.768 -11.088   0.237  0.00  0.00    +0.006 A 
ATOM      5  C   UNL     1       3.767 -10.340   0.832  0.00  0.00    -0.014 A 
ATOM      6  C   UNL     1       3.752  -8.962   0.732  0.00  0.00    +0.029 A 
ENDROOT
BRANCH   5   7
ATOM      7  C   UNL     1       4.877 -11.028   1.583  0.00  0.00    +0.135 C 
ATOM      8  C   UNL     1       6.204 -10.822   0.882  0.00  0.00    +0.248 C 
ATOM      9  O   UNL     1       6.765  -9.767   0.672  0.00  0.00    -0.273 OA
ATOM     10  N   UNL     1       6.632 -12.053   0.542  0.00  0.00    -0.238 N 
ATOM     11  C   UNL     1       5.769 -13.000   0.927  0.00  0.00    +0.307 C 
ATOM     12  O   UNL     1       5.937 -14.187   0.731  0.00  0.00    -0.252 OA
ATOM     13  N   UNL     1       4.693 -12.490   1.554  0.00  0.00    -0.282 N 
ATOM     14  C   UNL     1       4.942 -10.523   3.026  0.00  0.00    +0.047 C 
ATOM     15  H   UNL     1       7.464 -12.232   0.075  0.00  0.00    +0.159 HD
ATOM     16  H   UNL     1       3.944 -12.987   1.917  0.00  0.00    +0.152 HD
ENDBRANCH   5   7
BRANCH   1  19
ATOM     17  C   UNL     1       1.529  -6.274  -0.041  0.00  0.00    +0.218 C 
ATOM     18  O   UNL     1       0.486  -6.894  -0.032  0.00  0.00    -0.275 OA
ATOM     19  N   UNL     1       2.705  -6.932  -0.052  0.00  0.00    -0.285 N 
ATOM     20  H   UNL     1       3.536  -6.438  -0.127  0.00  0.00    +0.155 HD
BRANCH  17  21
ATOM     21  C   UNL     1       1.509  -4.767  -0.040  0.00  0.00    +0.101 C 
BRANCH  21  22
ATOM     22  C   UNL     1       0.060  -4.276  -0.026  0.00  0.00    +0.044 C 
BRANCH  22  27
ATOM     23  C   UNL     1      -0.018   1.503  -0.025  0.00  0.00    +0.045 C 
ATOM     24  C   UNL     1       0.002  -0.004  -0.025  0.00  0.00    -0.032 A 
ATOM     25  C   UNL     1       0.001  -0.695  -1.222  0.00  0.00    +0.005 A 
ATOM     26  C   UNL     1       0.020  -2.077  -1.222  0.00  0.00    +0.004 A 
ATOM     27  C   UNL     1       0.040  -2.769  -0.025  0.00  0.00    -0.046 A 
ATOM     28  C   UNL     1       0.041  -2.079   1.172  0.00  0.00    +0.024 A 
ATOM     29  C   UNL     1       0.028  -0.695   1.173  0.00  0.00    +0.044 A 
ATOM     30 CL   UNL     1       0.036   0.172   2.676  0.00  0.00    -0.083 Cl
ENDBRANCH  22  27
ENDBRANCH  21  22
ENDBRANCH  17  21
ENDBRANCH   1  19
TORSDOF 5
