REMARK  Name = ZINC50038605
REMARK  8 active torsions:
REMARK  status: ('A' for Active; 'I' for Inactive)
REMARK    1  A    between atoms: C_1  and  N_2
REMARK    2  A    between atoms: N_2  and  C_3
REMARK    3  A    between atoms: N_2  and  C_4
REMARK    4  A    between atoms: C_4  and  C_5
REMARK    5  A    between atoms: C_10  and  C_11
REMARK    6  A    between atoms: C_11  and  N_12
REMARK    7  A    between atoms: N_15  and  C_16
REMARK    8  A    between atoms: C_18  and  C_24
REMARK                            x       y       z     vdW  Elec       q    Type
REMARK                         _______ _______ _______ _____ _____    ______ ____
ROOT
ATOM      1  N   UNL     1       2.304  -3.105  -0.549  0.00  0.00    -0.295 N 
ATOM      2  C   UNL     1       1.905  -4.307  -0.087  0.00  0.00    +0.304 C 
ATOM      3  O   UNL     1       1.486  -4.413   1.050  0.00  0.00    -0.252 OA
ATOM      4  N   UNL     1       1.970  -5.391  -0.885  0.00  0.00    -0.265 N 
ATOM      5  H   UNL     1       2.638  -3.021  -1.456  0.00  0.00    +0.151 HD
ATOM      6  H   UNL     1       2.234  -5.295  -1.814  0.00  0.00    +0.157 HD
ENDROOT
BRANCH   4   7
ATOM      7  C   UNL     1       1.657  -6.658  -0.373  0.00  0.00    +0.100 A 
ATOM      8  C   UNL     1       0.656  -7.403  -0.933  0.00  0.00    +0.042 A 
ATOM      9  C   UNL     1       0.363  -8.667  -0.402  0.00  0.00    +0.073 A 
ATOM     10  C   UNL     1       1.068  -9.139   0.651  0.00  0.00    +0.098 A 
ATOM     11  N   UNL     1       2.064  -8.400   1.210  0.00  0.00    -0.327 N 
ATOM     12  H   UNL     1       2.558  -8.755   1.965  0.00  0.00    +0.168 HD
ATOM     13  C   UNL     1       2.376  -7.184   0.722  0.00  0.00    +0.270 A 
ATOM     14  O   UNL     1       3.276  -6.535   1.230  0.00  0.00    -0.266 OA
BRANCH   9  15
ATOM     15  C   UNL     1      -0.737  -9.502  -1.006  0.00  0.00    +0.419 C 
ATOM     16  F   UNL     1      -0.839 -10.711  -0.311  0.00  0.00    -0.166 F 
ATOM     17  F   UNL     1      -1.949  -8.809  -0.917  0.00  0.00    -0.166 F 
ATOM     18  F   UNL     1      -0.444  -9.758  -2.349  0.00  0.00    -0.166 F 
ENDBRANCH   9  15
ENDBRANCH   4   7
BRANCH   1  19
ATOM     19  C   UNL     1       2.232  -1.927   0.319  0.00  0.00    +0.141 C 
BRANCH  19  25
ATOM     20  C   UNL     1       1.904  -0.069  -1.326  0.00  0.00    -0.059 A 
ATOM     21  C   UNL     1       2.362   1.042  -2.010  0.00  0.00    +0.002 A 
ATOM     22  C   UNL     1       3.650   1.498  -1.804  0.00  0.00    +0.000 A 
ATOM     23  C   UNL     1       4.481   0.844  -0.913  0.00  0.00    +0.000 A 
ATOM     24  C   UNL     1       4.023  -0.266  -0.229  0.00  0.00    +0.005 A 
ATOM     25  C   UNL     1       2.733  -0.720  -0.432  0.00  0.00    -0.029 A 
BRANCH  20  26
ATOM     26  C   UNL     1       0.499  -0.566  -1.550  0.00  0.00    -0.043 C 
BRANCH  26  28
ATOM     27  C   UNL     1      -0.461   1.369  -0.509  0.00  0.00    -0.096 C 
ATOM     28  N   UNL     1      -0.367  -0.096  -0.462  0.00  0.00    +0.379 N 
ATOM     29  C   UNL     1      -1.707  -0.678  -0.615  0.00  0.00    -0.096 C 
ATOM     30  H   UNL     1       0.023  -0.379   0.425  0.00  0.00    -0.082 HD
ENDBRANCH  26  28
ENDBRANCH  20  26
ENDBRANCH  19  25
ENDBRANCH   1  19
TORSDOF 6
