REMARK  Name = ZINC01126696
REMARK  7 active torsions:
REMARK  status: ('A' for Active; 'I' for Inactive)
REMARK    1  A    between atoms: C_4  and  C_7
REMARK    2  A    between atoms: C_8  and  C_26
REMARK    3  A    between atoms: C_9  and  C_15
REMARK    4  A    between atoms: C_18  and  O_21
REMARK    5  A    between atoms: O_21  and  C_22
REMARK    6  A    between atoms: C_22  and  C_23
REMARK    7  A    between atoms: C_26  and  C_28
REMARK                            x       y       z     vdW  Elec       q    Type
REMARK                         _______ _______ _______ _____ _____    ______ ____
ROOT
ATOM      1  C   UNL     1      -1.713   2.100  -0.869  0.00  0.00    +0.049 C 
ATOM      2  C   UNL     1      -0.486   1.544  -1.107  0.00  0.00    +0.046 C 
ATOM      3  C   UNL     1       0.533   1.584   0.013  0.00  0.00    +0.138 C 
ATOM      4  N   UNL     1       0.115   2.220   1.274  0.00  0.00    -0.315 N 
ATOM      5  C   UNL     1      -1.130   2.725   1.362  0.00  0.00    +0.135 C 
ATOM      6  S   UNL     1      -1.618   3.464   2.828  0.00  0.00    -0.019 S 
ATOM      7  N   UNL     1      -2.001   2.669   0.347  0.00  0.00    -0.296 N 
ATOM      8  H   UNL     1       0.725   2.273   2.026  0.00  0.00    +0.149 HD
ATOM      9  H   UNL     1      -2.882   3.052   0.477  0.00  0.00    +0.154 HD
ENDROOT
BRANCH   1  13
ATOM     10  C   UNL     1      -4.665   2.061  -3.920  0.00  0.00    +0.000 A 
ATOM     11  C   UNL     1      -3.975   0.901  -3.615  0.00  0.00    +0.001 A 
ATOM     12  C   UNL     1      -3.015   0.906  -2.625  0.00  0.00    +0.010 A 
ATOM     13  C   UNL     1      -2.740   2.086  -1.930  0.00  0.00    -0.003 A 
ATOM     14  C   UNL     1      -3.445   3.252  -2.239  0.00  0.00    +0.010 A 
ATOM     15  C   UNL     1      -4.398   3.234  -3.236  0.00  0.00    +0.001 A 
ENDBRANCH   1  13
BRANCH   3  16
ATOM     16  C   UNL     1       1.751   2.312  -0.492  0.00  0.00    -0.022 A 
ATOM     17  C   UNL     1       1.771   3.695  -0.510  0.00  0.00    +0.009 A 
ATOM     18  C   UNL     1       2.889   4.365  -0.968  0.00  0.00    +0.046 A 
ATOM     19  C   UNL     1       3.988   3.649  -1.421  0.00  0.00    +0.121 A 
ATOM     20  C   UNL     1       3.963   2.262  -1.408  0.00  0.00    +0.046 A 
ATOM     21  C   UNL     1       2.845   1.597  -0.943  0.00  0.00    +0.009 A 
BRANCH  19  22
ATOM     22  O   UNL     1       5.087   4.306  -1.877  0.00  0.00    -0.483 OA
BRANCH  22  23
ATOM     23  C   UNL     1       5.042   5.734  -1.862  0.00  0.00    +0.324 C 
BRANCH  23  24
ATOM     24  C   UNL     1       6.338   6.283  -2.399  0.00  0.00    +0.248 C 
ATOM     25  O   UNL     1       7.215   5.526  -2.759  0.00  0.00    -0.272 OA
ATOM     26  N   UNL     1       6.524   7.616  -2.479  0.00  0.00    -0.327 N 
ATOM     27  H   UNL     1       5.823   8.222  -2.191  0.00  0.00    +0.145 HD
ATOM     28  H   UNL     1       7.358   7.970  -2.825  0.00  0.00    +0.145 HD
ENDBRANCH  23  24
ENDBRANCH  22  23
ENDBRANCH  19  22
ENDBRANCH   3  16
BRANCH   2  29
ATOM     29  C   UNL     1      -0.181   0.958  -2.351  0.00  0.00    +0.193 C 
ATOM     30  O   UNL     1      -0.138   1.646  -3.355  0.00  0.00    -0.287 OA
BRANCH  29  31
ATOM     31  C   UNL     1       0.087  -0.495  -2.438  0.00  0.00    +0.022 A 
ATOM     32  C   UNL     1      -0.075  -1.306  -1.313  0.00  0.00    +0.012 A 
ATOM     33  C   UNL     1       0.172  -2.661  -1.402  0.00  0.00    +0.001 A 
ATOM     34  C   UNL     1       0.590  -3.214  -2.600  0.00  0.00    +0.000 A 
ATOM     35  C   UNL     1       0.758  -2.414  -3.717  0.00  0.00    +0.001 A 
ATOM     36  C   UNL     1       0.509  -1.059  -3.642  0.00  0.00    +0.012 A 
ENDBRANCH  29  31
ENDBRANCH   2  29
TORSDOF 7
