REMARK  Name = ZINC09471955
REMARK  14 active torsions:
REMARK  status: ('A' for Active; 'I' for Inactive)
REMARK    1  A    between atoms: C_1  and  C_2
REMARK    2  A    between atoms: C_2  and  C_3
REMARK    3  A    between atoms: C_3  and  C_5
REMARK    4  A    between atoms: C_3  and  S_13
REMARK    5  A    between atoms: N_7  and  C_8
REMARK    6  A    between atoms: C_8  and  C_9
REMARK    7  A    between atoms: C_9  and  C_10
REMARK    8  A    between atoms: C_10  and  O_11
REMARK    9  A    between atoms: O_11  and  C_12
REMARK   10  A    between atoms: S_13  and  C_14
REMARK   11  A    between atoms: C_24  and  C_29
REMARK   12  A    between atoms: C_29  and  C_30
REMARK   13  A    between atoms: C_30  and  C_31
REMARK   14  A    between atoms: N_33  and  C_34
REMARK                            x       y       z     vdW  Elec       q    Type
REMARK                         _______ _______ _______ _____ _____    ______ ____
ROOT
ATOM      1  C   UNL     1      -3.517   1.706  -0.035  0.00  0.00    +0.170 C 
ATOM      2  N   UNL     1      -2.383   1.065   0.045  0.00  0.00    -0.225 NA
ATOM      3  C   UNL     1      -1.190   1.709   0.079  0.00  0.00    +0.077 A 
ATOM      4  C   UNL     1       0.013   1.004   0.171  0.00  0.00    +0.028 A 
ATOM      5  C   UNL     1       1.206   1.691   0.208  0.00  0.00    +0.002 A 
ATOM      6  C   UNL     1       1.229   3.078   0.160  0.00  0.00    +0.001 A 
ATOM      7  C   UNL     1       0.054   3.795   0.075  0.00  0.00    +0.013 A 
ATOM      8  C   UNL     1      -1.161   3.118   0.037  0.00  0.00    +0.041 A 
ATOM      9  C   UNL     1      -2.447   3.843  -0.055  0.00  0.00    +0.139 C 
ATOM     10  N   UNL     1      -2.693   5.122  -0.113  0.00  0.00    -0.255 NA
ATOM     11  C   UNL     1      -4.150   5.296  -0.194  0.00  0.00    +0.194 C 
ATOM     12  C   UNL     1      -4.690   3.882  -0.171  0.00  0.00    +0.251 C 
ATOM     13  O   UNL     1      -5.852   3.540  -0.218  0.00  0.00    -0.272 OA
ATOM     14  N   UNL     1      -3.603   3.082  -0.087  0.00  0.00    -0.200 N 
ENDROOT
BRANCH   1  15
ATOM     15  S   UNL     1      -5.010   0.770  -0.078  0.00  0.00    -0.077 S 
BRANCH  15  16
ATOM     16  C   UNL     1      -4.328  -0.906  -0.118  0.00  0.00    +0.139 C 
BRANCH  16  17
ATOM     17  C   UNL     1      -3.679  -1.217   1.206  0.00  0.00    +0.226 C 
ATOM     18  O   UNL     1      -4.039  -0.636   2.208  0.00  0.00    -0.275 OA
ATOM     19  N   UNL     1      -2.699  -2.139   1.277  0.00  0.00    -0.314 N 
ATOM     20  H   UNL     1      -2.412  -2.604   0.475  0.00  0.00    +0.149 HD
BRANCH  19  21
ATOM     21  C   UNL     1      -2.068  -2.441   2.564  0.00  0.00    +0.106 C 
BRANCH  21  22
ATOM     22  C   UNL     1      -0.997  -3.515   2.368  0.00  0.00    +0.047 C 
BRANCH  22  23
ATOM     23  C   UNL     1      -0.338  -3.830   3.712  0.00  0.00    +0.161 C 
BRANCH  23  24
ATOM     24  O   UNL     1       0.663  -4.833   3.529  0.00  0.00    -0.383 OA
ATOM     25  C   UNL     1       1.343  -5.202   4.730  0.00  0.00    +0.193 C 
ENDBRANCH  23  24
ENDBRANCH  22  23
ENDBRANCH  21  22
ENDBRANCH  19  21
ENDBRANCH  16  17
BRANCH  16  27
ATOM     26  C   UNL     1      -6.019  -1.682  -1.785  0.00  0.00    +0.005 C 
ATOM     27  C   UNL     1      -5.454  -1.908  -0.382  0.00  0.00    +0.020 C 
ENDBRANCH  16  27
ENDBRANCH  15  16
ENDBRANCH   1  15
BRANCH  11  28
ATOM     28  C   UNL     1      -4.663   6.089   1.011  0.00  0.00    +0.045 C 
BRANCH  28  29
ATOM     29  C   UNL     1      -4.124   7.519   0.947  0.00  0.00    +0.098 C 
BRANCH  29  30
ATOM     30  C   UNL     1      -4.630   8.300   2.133  0.00  0.00    +0.213 C 
ATOM     31  O   UNL     1      -5.350   7.764   2.949  0.00  0.00    -0.276 OA
ATOM     32  N   UNL     1      -4.281   9.592   2.287  0.00  0.00    -0.312 N 
ATOM     33  H   UNL     1      -3.705  10.021   1.635  0.00  0.00    +0.149 HD
BRANCH  32  34
ATOM     34  C   UNL     1      -4.772  10.351   3.440  0.00  0.00    +0.073 C 
ATOM     35  C   UNL     1      -6.160  10.915   3.126  0.00  0.00    +0.022 C 
ATOM     36  C   UNL     1      -6.673  11.707   4.330  0.00  0.00    +0.002 C 
ATOM     37  C   UNL     1      -5.710  12.858   4.631  0.00  0.00    +0.000 C 
ATOM     38  C   UNL     1      -4.323  12.294   4.945  0.00  0.00    +0.002 C 
ATOM     39  C   UNL     1      -3.810  11.502   3.741  0.00  0.00    +0.022 C 
ENDBRANCH  32  34
ENDBRANCH  29  30
ENDBRANCH  28  29
ENDBRANCH  11  28
TORSDOF 12
