REMARK  Name = ZINC63537948
REMARK  5 active torsions:
REMARK  status: ('A' for Active; 'I' for Inactive)
REMARK    1  A    between atoms: C_6  and  C_7
REMARK    2  A    between atoms: C_10  and  C_34
REMARK    3  A    between atoms: C_15  and  C_18
REMARK    4  A    between atoms: N_20  and  C_21
REMARK    5  A    between atoms: C_21  and  C_22
REMARK                            x       y       z     vdW  Elec       q    Type
REMARK                         _______ _______ _______ _____ _____    ______ ____
ROOT
ATOM      1  C   UNL     1      -1.294  -0.774   0.010  0.00  0.00    +0.113 C 
ATOM      2  C   UNL     1      -1.841  -0.831   1.438  0.00  0.00    +0.062 C 
ATOM      3  C   UNL     1      -2.148   0.593   1.925  0.00  0.00    +0.198 C 
ATOM      4  N   UNL     1      -3.016   1.226   0.916  0.00  0.00    -0.243 N 
ATOM      5  C   UNL     1      -3.025   0.812  -0.398  0.00  0.00    +0.087 C 
ATOM      6  C   UNL     1      -4.069   1.619  -1.134  0.00  0.00    +0.100 C 
ATOM      7  C   UNL     1      -4.868   2.264   0.025  0.00  0.00    +0.165 C 
ATOM      8  N   UNL     1      -3.882   2.254   1.131  0.00  0.00    -0.226 NA
ATOM      9  N   UNL     1      -2.260  -0.109  -0.872  0.00  0.00    -0.369 N 
ATOM     10  H   UNL     1      -3.392   3.134   1.186  0.00  0.00    +0.145 HD
ATOM     11  H   UNL     1      -2.322  -0.360  -1.807  0.00  0.00    +0.161 HD
ENDROOT
BRANCH   1  17
ATOM     12  C   UNL     1      -0.017   1.378   0.010  0.00  0.00    +0.009 A 
ATOM     13  C   UNL     1       1.170   2.088   0.002  0.00  0.00    +0.050 A 
ATOM     14  C   UNL     1       2.380   1.416  -0.013  0.00  0.00    +0.166 A 
ATOM     15  C   UNL     1       2.399   0.023  -0.021  0.00  0.00    +0.167 A 
ATOM     16  C   UNL     1       1.207  -0.682  -0.014  0.00  0.00    +0.055 A 
ATOM     17  C   UNL     1       0.002  -0.004   0.002  0.00  0.00    -0.021 A 
ATOM     18  O   UNL     1       3.698  -0.395  -0.036  0.00  0.00    -0.453 OA
ATOM     19  C   UNL     1       4.466   0.750  -0.450  0.00  0.00    +0.466 C 
ATOM     20  O   UNL     1       3.668   1.870  -0.024  0.00  0.00    -0.453 OA
ENDBRANCH   1  17
BRANCH   7  21
ATOM     21  C   UNL     1      -5.276   3.672  -0.323  0.00  0.00    +0.232 C 
ATOM     22  O   UNL     1      -4.641   4.612   0.108  0.00  0.00    -0.274 OA
ATOM     23  N   UNL     1      -6.346   3.888  -1.113  0.00  0.00    -0.312 N 
ATOM     24  H   UNL     1      -6.854   3.137  -1.458  0.00  0.00    +0.149 HD
BRANCH  23  25
ATOM     25  C   UNL     1      -6.742   5.257  -1.451  0.00  0.00    +0.133 C 
BRANCH  25  26
ATOM     26  C   UNL     1      -7.978   5.223  -2.353  0.00  0.00    +0.120 C 
ATOM     27  C   UNL     1      -8.509   6.623  -2.564  0.00  0.00    +0.009 C 
ATOM     28  C   UNL     1      -9.767   6.625  -2.067  0.00  0.00    -0.003 A 
ATOM     29  C   UNL     1     -10.797   7.667  -1.973  0.00  0.00    +0.029 A 
ATOM     30  C   UNL     1     -11.989   7.362  -1.410  0.00  0.00    +0.042 A 
ATOM     31  C   UNL     1     -12.264   6.079  -0.915  0.00  0.00    +0.022 A 
ATOM     32  C   UNL     1     -11.368   5.070  -0.967  0.00  0.00    +0.027 A 
ATOM     33  C   UNL     1     -10.082   5.279  -1.538  0.00  0.00    +0.043 A 
ATOM     34  N   UNL     1      -9.059   4.474  -1.702  0.00  0.00    -0.376 N 
ATOM     35 CL   UNL     1     -13.209   8.592  -1.297  0.00  0.00    -0.084 Cl
ATOM     36  H   UNL     1      -9.022   3.542  -1.437  0.00  0.00    +0.160 HD
ENDBRANCH  25  26
ENDBRANCH  23  25
ENDBRANCH   7  21
BRANCH   3  37
ATOM     37  C   UNL     1      -2.870   0.536   3.273  0.00  0.00    +0.409 C 
ATOM     38  F   UNL     1      -2.057  -0.108   4.212  0.00  0.00    -0.169 F 
ATOM     39  F   UNL     1      -3.146   1.837   3.709  0.00  0.00    -0.169 F 
ATOM     40  F   UNL     1      -4.068  -0.172   3.131  0.00  0.00    -0.169 F 
ENDBRANCH   3  37
TORSDOF 5
