REMARK  Name = ZINC11665625
REMARK  4 active torsions:
REMARK  status: ('A' for Active; 'I' for Inactive)
REMARK    1  A    between atoms: C_1  and  C_2
REMARK    2  A    between atoms: C_5  and  C_8
REMARK    3  A    between atoms: N_13  and  C_16
REMARK    4  A    between atoms: C_16  and  C_17
REMARK                            x       y       z     vdW  Elec       q    Type
REMARK                         _______ _______ _______ _____ _____    ______ ____
ROOT
ATOM      1  C   UNL     1      -1.111  -1.032   0.007  0.00  0.00    +0.142 C 
ATOM      2  C   UNL     1       0.002  -0.004   0.002  0.00  0.00    +0.058 C 
ATOM      3  C   UNL     1       1.272  -0.456  -0.013  0.00  0.00    +0.039 C 
ATOM      4  C   UNL     1       2.160   0.769  -0.014  0.00  0.00    +0.159 C 
ATOM      5  N   UNL     1       1.231   1.909   0.001  0.00  0.00    -0.288 N 
ATOM      6  C   UNL     1      -0.017   1.406   0.010  0.00  0.00    +0.247 C 
ATOM      7  O   UNL     1      -1.031   2.080   0.018  0.00  0.00    -0.270 OA
ATOM      8  N   UNL     1       1.548  -1.793  -0.022  0.00  0.00    -0.271 N 
ATOM      9  C   UNL     1       0.605  -2.744  -0.018  0.00  0.00    +0.304 C 
ATOM     10  O   UNL     1       0.945  -3.911  -0.027  0.00  0.00    -0.252 OA
ATOM     11  N   UNL     1      -0.710  -2.449  -0.004  0.00  0.00    -0.288 N 
ATOM     12  H   UNL     1       2.478  -2.070  -0.033  0.00  0.00    +0.156 HD
ATOM     13  H   UNL     1      -1.377  -3.154  -0.001  0.00  0.00    +0.151 HD
ENDROOT
BRANCH   1  18
ATOM     14  C   UNL     1      -4.346  -0.136   4.710  0.00  0.00    +0.044 C 
ATOM     15  C   UNL     1      -3.502  -0.369   3.484  0.00  0.00    -0.050 A 
ATOM     16  C   UNL     1      -3.923   0.104   2.255  0.00  0.00    +0.004 A 
ATOM     17  C   UNL     1      -3.149  -0.110   1.130  0.00  0.00    +0.006 A 
ATOM     18  C   UNL     1      -1.955  -0.798   1.233  0.00  0.00    -0.023 A 
ATOM     19  C   UNL     1      -1.536  -1.276   2.461  0.00  0.00    +0.006 A 
ATOM     20  C   UNL     1      -2.308  -1.057   3.587  0.00  0.00    +0.004 A 
ENDBRANCH   1  18
BRANCH   5  21
ATOM     21  C   UNL     1       1.596   3.327   0.005  0.00  0.00    +0.143 C 
BRANCH  21  22
ATOM     22  C   UNL     1       1.735   3.806   1.427  0.00  0.00    -0.030 A 
ATOM     23  C   UNL     1       0.641   4.329   2.090  0.00  0.00    +0.008 A 
ATOM     24  C   UNL     1       0.766   4.764   3.396  0.00  0.00    +0.038 A 
ATOM     25  C   UNL     1       1.991   4.685   4.036  0.00  0.00    +0.123 A 
ATOM     26  C   UNL     1       3.088   4.166   3.369  0.00  0.00    +0.038 A 
ATOM     27  C   UNL     1       2.959   3.727   2.065  0.00  0.00    +0.008 A 
ATOM     28  F   UNL     1       2.116   5.114   5.311  0.00  0.00    -0.205 F 
ENDBRANCH  21  22
ENDBRANCH   5  21
TORSDOF 3
