REMARK  Name = ZINC05208955
REMARK  5 active torsions:
REMARK  status: ('A' for Active; 'I' for Inactive)
REMARK    1  A    between atoms: C_3  and  N_14
REMARK    2  A    between atoms: C_6  and  N_7
REMARK    3  A    between atoms: C_8  and  O_10
REMARK    4  A    between atoms: O_10  and  C_11
REMARK    5  A    between atoms: C_11  and  C_12
REMARK                            x       y       z     vdW  Elec       q    Type
REMARK                         _______ _______ _______ _____ _____    ______ ____
ROOT
ATOM      1  C   UNL     1       0.013  -0.008   0.187  0.00  0.00    +0.025 A 
ATOM      2  C   UNL     1      -0.009   1.373   0.200  0.00  0.00    +0.034 A 
ATOM      3  C   UNL     1       1.162   2.086   0.020  0.00  0.00    +0.126 A 
ATOM      4  C   UNL     1       2.358   1.419  -0.173  0.00  0.00    +0.034 A 
ATOM      5  C   UNL     1       2.386   0.038  -0.188  0.00  0.00    +0.025 A 
ATOM      6  C   UNL     1       1.212  -0.680  -0.007  0.00  0.00    +0.037 A 
ENDROOT
BRANCH   6   7
ATOM      7  N   UNL     1       1.237  -2.080  -0.021  0.00  0.00    -0.251 N 
ATOM      8  C   UNL     1       0.185  -2.768  -0.507  0.00  0.00    +0.405 C 
ATOM      9  O   UNL     1      -0.742  -2.176  -1.022  0.00  0.00    -0.226 OA
ATOM     10  H   UNL     1       2.011  -2.554   0.320  0.00  0.00    +0.158 HD
BRANCH   8  11
ATOM     11  O   UNL     1       0.163  -4.112  -0.422  0.00  0.00    -0.449 OA
BRANCH  11  12
ATOM     12  C   UNL     1      -1.001  -4.787  -0.967  0.00  0.00    +0.244 C 
BRANCH  12  13
ATOM     13  C   UNL     1      -0.848  -6.298  -0.781  0.00  0.00    +0.115 C 
ATOM     14  I   UNL     1      -0.850  -6.768   1.329  0.00  0.00    -0.082 I 
ENDBRANCH  12  13
ENDBRANCH  11  12
ENDBRANCH   8  11
ENDBRANCH   6   7
BRANCH   3  15
ATOM     15  N   UNL     1       1.136   3.566   0.034  0.00  0.00    +0.056 N 
ATOM     16  O   UNL     1       0.083   4.154   0.204  0.00  0.00    -0.126 OA
ATOM     17  O   UNL     1       2.167   4.195  -0.124  0.00  0.00    -0.126 OA
ENDBRANCH   3  15
TORSDOF 5
