REMARK  Name = ZINC28615929
REMARK  11 active torsions:
REMARK  status: ('A' for Active; 'I' for Inactive)
REMARK    1  A    between atoms: C_1  and  C_2
REMARK    2  A    between atoms: C_5  and  N_9
REMARK    3  A    between atoms: C_6  and  C_8
REMARK    4  A    between atoms: N_9  and  C_10
REMARK    5  A    between atoms: C_10  and  N_12
REMARK    6  A    between atoms: N_12  and  N_13
REMARK    7  A    between atoms: C_14  and  C_16
REMARK    8  A    between atoms: C_16  and  N_17
REMARK    9  A    between atoms: C_18  and  C_20
REMARK   10  A    between atoms: C_23  and  C_27
REMARK   11  A    between atoms: C_24  and  C_26
REMARK                            x       y       z     vdW  Elec       q    Type
REMARK                         _______ _______ _______ _____ _____    ______ ____
ROOT
ATOM      1  N   UNL     1      -0.106  -6.886   0.025  0.00  0.00    -0.234 N 
ATOM      2  C   UNL     1      -0.190  -8.232   0.024  0.00  0.00    +0.246 C 
ATOM      3  O   UNL     1      -0.278  -8.834  -1.025  0.00  0.00    -0.273 OA
ATOM      4  H   UNL     1      -0.035  -6.405   0.864  0.00  0.00    +0.173 HD
ENDROOT
BRANCH   1   5
ATOM      5  N   UNL     1      -0.122  -6.184  -1.187  0.00  0.00    -0.246 N 
ATOM      6  H   UNL     1      -0.193  -6.665  -2.026  0.00  0.00    +0.172 HD
BRANCH   5   7
ATOM      7  C   UNL     1      -0.039  -4.838  -1.187  0.00  0.00    +0.151 C 
ATOM      8  S   UNL     1      -0.058  -3.979  -2.668  0.00  0.00    -0.017 S 
BRANCH   7   9
ATOM      9  N   UNL     1       0.059  -4.169  -0.021  0.00  0.00    -0.296 N 
ATOM     10  H   UNL     1       0.134  -4.658   0.814  0.00  0.00    +0.154 HD
BRANCH   9  15
ATOM     11  C   UNL     1       0.038   1.503   0.005  0.00  0.00    +0.044 C 
ATOM     12  C   UNL     1       0.044  -0.004  -0.002  0.00  0.00    -0.050 A 
ATOM     13  C   UNL     1       0.855  -0.687  -0.890  0.00  0.00    +0.005 A 
ATOM     14  C   UNL     1       0.863  -2.068  -0.898  0.00  0.00    +0.024 A 
ATOM     15  C   UNL     1       0.054  -2.771  -0.015  0.00  0.00    +0.036 A 
ATOM     16  C   UNL     1      -0.759  -2.082   0.875  0.00  0.00    -0.029 A 
ATOM     17  C   UNL     1      -0.758  -0.700   0.882  0.00  0.00    +0.008 A 
ATOM     18  C   UNL     1      -1.638  -2.840   1.836  0.00  0.00    +0.045 C 
ENDBRANCH   9  15
ENDBRANCH   7   9
ENDBRANCH   5   7
ENDBRANCH   1   5
BRANCH   2  19
ATOM     19  C   UNL     1      -0.173  -8.988   1.328  0.00  0.00    +0.202 C 
BRANCH  19  20
ATOM     20  N   UNL     1      -0.275 -10.425   1.060  0.00  0.00    -0.303 N 
ATOM     21  C   UNL     1      -0.279 -11.302   2.083  0.00  0.00    +0.244 C 
ATOM     22  O   UNL     1      -0.198 -10.901   3.228  0.00  0.00    -0.270 OA
ATOM     23  H   UNL     1      -0.339 -10.745   0.147  0.00  0.00    +0.150 HD
BRANCH  21  24
ATOM     24  C   UNL     1      -0.382 -12.752   1.813  0.00  0.00    +0.037 A 
ATOM     25  C   UNL     1      -0.469 -13.216   0.499  0.00  0.00    +0.013 A 
ATOM     26  C   UNL     1      -0.564 -14.570   0.254  0.00  0.00    +0.004 A 
ATOM     27  C   UNL     1      -0.574 -15.468   1.307  0.00  0.00    -0.047 A 
ATOM     28  C   UNL     1      -0.488 -15.015   2.611  0.00  0.00    -0.047 A 
ATOM     29  C   UNL     1      -0.386 -13.663   2.870  0.00  0.00    +0.016 A 
ATOM     30  C   UNL     1      -0.500 -16.000   3.752  0.00  0.00    +0.044 C 
ATOM     31  C   UNL     1      -0.680 -16.946   1.032  0.00  0.00    +0.044 C 
ENDBRANCH  21  24
ENDBRANCH  19  20
ENDBRANCH   2  19
TORSDOF 7
