REMARK  Name = ZINC03337610
REMARK  7 active torsions:
REMARK  status: ('A' for Active; 'I' for Inactive)
REMARK    1  A    between atoms: C_4  and  N_7
REMARK    2  A    between atoms: C_12  and  C_14
REMARK    3  A    between atoms: C_14  and  O_16
REMARK    4  A    between atoms: O_16  and  C_17
REMARK    5  A    between atoms: C_17  and  C_18
REMARK    6  A    between atoms: N_20  and  C_21
REMARK    7  A    between atoms: C_22  and  C_29
REMARK                            x       y       z     vdW  Elec       q    Type
REMARK                         _______ _______ _______ _____ _____    ______ ____
ROOT
ATOM      1  C   UNL     1       9.512   0.529   1.001  0.00  0.00    +0.328 C 
ENDROOT
BRANCH   1   2
ATOM      2  C   UNL     1      10.720  -0.306   1.339  0.00  0.00    +0.255 C 
ATOM      3  O   UNL     1      10.632  -1.515   1.372  0.00  0.00    -0.272 OA
ATOM      4  N   UNL     1      11.899   0.292   1.605  0.00  0.00    -0.277 N 
ATOM      5  H   UNL     1      11.969   1.259   1.579  0.00  0.00    +0.155 HD
BRANCH   4   6
ATOM      6  C   UNL     1      13.011  -0.476   1.916  0.00  0.00    +0.084 A 
ATOM      7  C   UNL     1      14.287  -0.041   2.219  0.00  0.00    +0.068 A 
ATOM      8  C   UNL     1      15.291  -1.062   2.515  0.00  0.00    -0.023 A 
ATOM      9  C   UNL     1      14.827  -2.322   2.449  0.00  0.00    -0.004 A 
ATOM     10  S   UNL     1      13.114  -2.147   2.018  0.00  0.00    -0.077 S 
ATOM     11  C   UNL     1      15.900  -3.332   2.756  0.00  0.00    +0.043 C 
ATOM     12  C   UNL     1      17.225  -2.550   2.610  0.00  0.00    +0.010 C 
ATOM     13  C   UNL     1      16.770  -1.104   2.893  0.00  0.00    +0.037 C 
BRANCH   7  14
ATOM     14  C   UNL     1      14.620   1.387   2.244  0.00  0.00    +0.244 C 
ATOM     15  O   UNL     1      14.502   2.022   3.275  0.00  0.00    -0.270 OA
ATOM     16  N   UNL     1      15.058   1.996   1.124  0.00  0.00    -0.325 N 
ATOM     17  H   UNL     1      15.153   1.490   0.302  0.00  0.00    +0.145 HD
ATOM     18  H   UNL     1      15.279   2.940   1.140  0.00  0.00    +0.145 HD
ENDBRANCH   7  14
ENDBRANCH   4   6
ENDBRANCH   1   2
BRANCH   1  19
ATOM     19  O   UNL     1       8.393  -0.327   0.761  0.00  0.00    -0.451 OA
BRANCH  19  20
ATOM     20  C   UNL     1       7.226   0.266   0.444  0.00  0.00    +0.355 C 
ATOM     21  O   UNL     1       7.159   1.477   0.373  0.00  0.00    -0.243 OA
BRANCH  20  27
ATOM     22  N   UNL     1       3.622  -0.651  -0.036  0.00  0.00    -0.190 N 
ATOM     23  C   UNL     1       3.641  -1.991   0.052  0.00  0.00    +0.240 C 
ATOM     24  O   UNL     1       2.594  -2.590   0.174  0.00  0.00    -0.273 OA
ATOM     25  C   UNL     1       4.925  -2.766   0.004  0.00  0.00    +0.127 C 
ATOM     26  C   UNL     1       6.108  -1.881   0.264  0.00  0.00    +0.014 C 
ATOM     27  C   UNL     1       6.028  -0.555   0.184  0.00  0.00    +0.126 C 
ATOM     28  N   UNL     1       4.819   0.067  -0.150  0.00  0.00    -0.251 N 
ATOM     29  H   UNL     1       4.810   0.988  -0.455  0.00  0.00    +0.171 HD
BRANCH  22  33
ATOM     30  C   UNL     1      -0.017   1.378   0.011  0.00  0.00    +0.000 A 
ATOM     31  C   UNL     1       0.155   0.290  -0.825  0.00  0.00    +0.002 A 
ATOM     32  C   UNL     1       1.361  -0.384  -0.843  0.00  0.00    +0.025 A 
ATOM     33  C   UNL     1       2.400   0.031  -0.021  0.00  0.00    +0.056 A 
ATOM     34  C   UNL     1       2.223   1.124   0.818  0.00  0.00    +0.025 A 
ATOM     35  C   UNL     1       1.016   1.794   0.831  0.00  0.00    +0.002 A 
ENDBRANCH  22  33
ENDBRANCH  20  27
ENDBRANCH  19  20
ENDBRANCH   1  19
TORSDOF 7
