REMARK  Name = ZINC03984814
REMARK  4 active torsions:
REMARK  status: ('A' for Active; 'I' for Inactive)
REMARK    1  A    between atoms: C_1  and  C_2
REMARK    2  A    between atoms: C_7  and  N_8
REMARK    3  A    between atoms: C_11  and  C_18
REMARK    4  A    between atoms: C_12  and  O_17
REMARK                            x       y       z     vdW  Elec       q    Type
REMARK                         _______ _______ _______ _____ _____    ______ ____
ROOT
ATOM      1  N   UNL     1      -1.236   3.547   0.034  0.00  0.00    -0.229 N 
ATOM      2  C   UNL     1      -1.240   2.199   0.020  0.00  0.00    +0.267 A 
ATOM      3  O   UNL     1      -2.294   1.588   0.021  0.00  0.00    -0.267 OA
ATOM      4  C   UNL     1      -0.018   1.503   0.010  0.00  0.00    +0.067 A 
ATOM      5  C   UNL     1       1.147   2.210   0.003  0.00  0.00    +0.201 A 
ATOM      6  N   UNL     1       1.105   3.581   0.011  0.00  0.00    -0.278 N 
ATOM      7  H   UNL     1       1.957   4.104   0.005  0.00  0.00    +0.173 HD
ATOM      8  C   UNL     1      -0.075   4.227   0.026  0.00  0.00    +0.337 A 
ATOM      9  O   UNL     1      -0.093   5.442   0.034  0.00  0.00    -0.246 OA
ENDROOT
BRANCH   4  10
ATOM     10  C   UNL     1       0.002  -0.004   0.002  0.00  0.00    +0.001 C 
ATOM     11  C   UNL     1      -0.595  -0.503  -1.288  0.00  0.00    -0.054 A 
ATOM     12  C   UNL     1      -0.252   0.142  -2.467  0.00  0.00    +0.002 A 
ATOM     13  C   UNL     1      -0.773  -0.283  -3.672  0.00  0.00    +0.000 A 
ATOM     14  C   UNL     1      -1.641  -1.359  -3.706  0.00  0.00    +0.000 A 
ATOM     15  C   UNL     1      -1.975  -2.001  -2.540  0.00  0.00    +0.004 A 
ATOM     16  C   UNL     1      -1.458  -1.573  -1.327  0.00  0.00    -0.047 A 
ATOM     17  C   UNL     1      -1.869  -2.302  -0.073  0.00  0.00    +0.016 C 
ATOM     18  C   UNL     1      -0.904  -1.968   1.065  0.00  0.00    -0.077 C 
ATOM     19  N   UNL     1      -0.768  -0.502   1.150  0.00  0.00    +0.387 N 
ATOM     20  H   UNL     1      -1.701  -0.073   1.147  0.00  0.00    -0.085 HD
ATOM     21  H   UNL     1      -0.281  -0.256   2.020  0.00  0.00    -0.085 HD
ENDBRANCH   4  10
BRANCH   1  28
ATOM     22  C   UNL     1      -2.379   4.203   2.556  0.00  0.00    +0.046 C 
ATOM     23  C   UNL     1      -3.043   4.585   1.258  0.00  0.00    -0.026 A 
ATOM     24  C   UNL     1      -4.240   5.273   1.270  0.00  0.00    +0.005 A 
ATOM     25  C   UNL     1      -4.850   5.624   0.079  0.00  0.00    +0.000 A 
ATOM     26  C   UNL     1      -4.263   5.287  -1.127  0.00  0.00    +0.002 A 
ATOM     27  C   UNL     1      -3.063   4.603  -1.145  0.00  0.00    +0.026 A 
ATOM     28  C   UNL     1      -2.451   4.245   0.049  0.00  0.00    +0.057 A 
ENDBRANCH   1  28
BRANCH   5  29
ATOM     29  O   UNL     1       2.334   1.566  -0.012  0.00  0.00    -0.493 OA
ATOM     30  H   UNL     1       3.101   2.155  -0.016  0.00  0.00    +0.294 HD
ENDBRANCH   5  29
TORSDOF 3
