REMARK  Name = ZINC39479102
REMARK  5 active torsions:
REMARK  status: ('A' for Active; 'I' for Inactive)
REMARK    1  A    between atoms: C_1  and  C_2
REMARK    2  A    between atoms: C_7  and  C_12
REMARK    3  A    between atoms: N_17  and  C_18
REMARK    4  A    between atoms: C_18  and  C_19
REMARK    5  A    between atoms: C_22  and  C_25
REMARK                            x       y       z     vdW  Elec       q    Type
REMARK                         _______ _______ _______ _____ _____    ______ ____
ROOT
ATOM      1  C   UNL     1      -5.463   3.248  -4.581  0.00  0.00    -0.001 C 
ATOM      2  C   UNL     1      -5.762   4.678  -4.085  0.00  0.00    -0.010 C 
ATOM      3  C   UNL     1      -6.207   5.410  -5.378  0.00  0.00    -0.020 C 
ATOM      4  C   UNL     1      -5.295   4.750  -6.442  0.00  0.00    -0.078 C 
ATOM      5  N   UNL     1      -5.199   3.330  -6.029  0.00  0.00    +0.390 N 
ATOM      6  H   UNL     1      -5.881   2.782  -6.531  0.00  0.00    -0.081 HD
ENDROOT
BRANCH   1  13
ATOM      7  C   UNL     1      -0.252  -0.522  -0.837  0.00  0.00    +0.044 C 
ATOM      8  C   UNL     1      -0.962   0.554  -1.617  0.00  0.00    -0.048 A 
ATOM      9  C   UNL     1      -0.295   1.730  -1.931  0.00  0.00    +0.005 A 
ATOM     10  C   UNL     1      -0.921   2.718  -2.637  0.00  0.00    +0.030 A 
ATOM     11  C   UNL     1      -2.245   2.548  -3.049  0.00  0.00    +0.089 A 
ATOM     12  N   UNL     1      -3.117   3.323  -3.744  0.00  0.00    -0.234 NA
ATOM     13  C   UNL     1      -4.252   2.701  -3.869  0.00  0.00    +0.095 A 
ATOM     14  H   UNL     1      -4.900   0.828  -3.215  0.00  0.00    +0.167 HD
ATOM     15  N   UNL     1      -4.188   1.484  -3.264  0.00  0.00    -0.343 N 
ATOM     16  C   UNL     1      -2.921   1.357  -2.731  0.00  0.00    +0.066 A 
ATOM     17  C   UNL     1      -2.267   0.362  -2.017  0.00  0.00    +0.031 A 
ENDBRANCH   1  13
BRANCH   5  18
ATOM     18  C   UNL     1      -3.851   2.821  -6.316  0.00  0.00    -0.009 C 
BRANCH  18  19
ATOM     19  C   UNL     1      -3.648   2.739  -7.830  0.00  0.00    +0.275 C 
ATOM     20  N   UNL     1      -3.836   4.062  -8.445  0.00  0.00    -0.291 N 
ATOM     21  C   UNL     1      -4.897   3.946  -9.326  0.00  0.00    +0.168 C 
ATOM     22  N   UNL     1      -5.373   2.744  -9.328  0.00  0.00    -0.067 NA
ATOM     23  O   UNL     1      -4.659   1.914  -8.428  0.00  0.00    -0.371 OA
ATOM     24  H   UNL     1      -3.317   4.862  -8.268  0.00  0.00    +0.151 HD
BRANCH  21  25
ATOM     25  C   UNL     1      -5.418   5.054 -10.156  0.00  0.00    +0.022 A 
ATOM     26  C   UNL     1      -4.831   6.317 -10.086  0.00  0.00    +0.015 A 
ATOM     27  C   UNL     1      -5.318   7.349 -10.861  0.00  0.00    +0.050 A 
ATOM     28  C   UNL     1      -6.393   7.135 -11.712  0.00  0.00    +0.166 A 
ATOM     29  C   UNL     1      -6.984   5.874 -11.786  0.00  0.00    +0.167 A 
ATOM     30  C   UNL     1      -6.495   4.835 -11.016  0.00  0.00    +0.061 A 
ATOM     31  O   UNL     1      -8.010   5.927 -12.686  0.00  0.00    -0.453 OA
ATOM     32  C   UNL     1      -8.301   7.326 -12.856  0.00  0.00    +0.466 C 
ATOM     33  O   UNL     1      -7.048   7.974 -12.565  0.00  0.00    -0.453 OA
ENDBRANCH  21  25
ENDBRANCH  18  19
ENDBRANCH   5  18
TORSDOF 4
