REMARK  Name = ZINC60100722
REMARK  6 active torsions:
REMARK  status: ('A' for Active; 'I' for Inactive)
REMARK    1  A    between atoms: C_1  and  C_2
REMARK    2  A    between atoms: C_2  and  C_22
REMARK    3  A    between atoms: C_3  and  C_4
REMARK    4  A    between atoms: N_6  and  N_7
REMARK    5  A    between atoms: C_8  and  C_10
REMARK    6  A    between atoms: N_19  and  C_21
REMARK                            x       y       z     vdW  Elec       q    Type
REMARK                         _______ _______ _______ _____ _____    ______ ____
ROOT
ATOM      1  C   UNL     1      -2.433   0.831  -1.845  0.00  0.00    +0.253 C 
ATOM      2  O   UNL     1      -3.142   0.475  -2.768  0.00  0.00    -0.269 OA
ATOM      3  N   UNL     1      -2.196   2.142  -1.645  0.00  0.00    -0.231 N 
ATOM      4  H   UNL     1      -1.631   2.426  -0.909  0.00  0.00    +0.173 HD
ENDROOT
BRANCH   3   5
ATOM      5  N   UNL     1      -2.766   3.095  -2.499  0.00  0.00    -0.229 N 
ATOM      6  C   UNL     1      -2.529   4.407  -2.299  0.00  0.00    +0.281 C 
ATOM      7  O   UNL     1      -1.821   4.763  -1.377  0.00  0.00    -0.267 OA
ATOM      8  H   UNL     1      -3.331   2.812  -3.235  0.00  0.00    +0.173 HD
BRANCH   6   9
ATOM      9  C   UNL     1      -3.130   5.412  -3.199  0.00  0.00    +0.155 A 
ATOM     10  C   UNL     1      -2.872   6.846  -2.992  0.00  0.00    +0.020 A 
ATOM     11  C   UNL     1      -2.069   7.326  -1.963  0.00  0.00    +0.011 A 
ATOM     12  C   UNL     1      -1.875   8.685  -1.833  0.00  0.00    +0.001 A 
ATOM     13  C   UNL     1      -2.472   9.575  -2.716  0.00  0.00    +0.001 A 
ATOM     14  C   UNL     1      -3.271   9.120  -3.743  0.00  0.00    +0.014 A 
ATOM     15  C   UNL     1      -3.479   7.753  -3.891  0.00  0.00    +0.050 A 
ATOM     16  C   UNL     1      -4.316   7.183  -4.956  0.00  0.00    +0.275 A 
ATOM     17  O   UNL     1      -4.869   7.903  -5.767  0.00  0.00    -0.266 OA
ATOM     18  N   UNL     1      -4.456   5.842  -5.015  0.00  0.00    -0.231 N 
ATOM     19  N   UNL     1      -3.894   5.036  -4.195  0.00  0.00    -0.163 NA
ATOM     20  C   UNL     1      -5.291   5.279  -6.079  0.00  0.00    +0.176 C 
ENDBRANCH   6   9
ENDBRANCH   3   5
BRANCH   1  23
ATOM     21  C   UNL     1      -1.410  -2.578  -0.688  0.00  0.00    +0.040 C 
ATOM     22  C   UNL     1      -2.330  -1.404  -0.904  0.00  0.00    -0.061 C 
ATOM     23  C   UNL     1      -1.835  -0.170  -0.949  0.00  0.00    +0.068 C 
BRANCH  22  24
ATOM     24  C   UNL     1      -3.811  -1.627  -1.070  0.00  0.00    -0.007 C 
ATOM     25  C   UNL     1      -4.559  -0.322  -0.792  0.00  0.00    +0.014 C 
ATOM     26  C   UNL     1      -6.062  -0.549  -0.960  0.00  0.00    -0.010 C 
ATOM     27  C   UNL     1      -6.352  -1.008  -2.391  0.00  0.00    +0.007 C 
ATOM     28  C   UNL     1      -5.604  -2.313  -2.669  0.00  0.00    -0.010 C 
ATOM     29  C   UNL     1      -4.101  -2.086  -2.501  0.00  0.00    +0.014 C 
ATOM     30  C   UNL     1      -6.071  -3.388  -1.684  0.00  0.00    +0.007 C 
ATOM     31  C   UNL     1      -5.782  -2.929  -0.254  0.00  0.00    -0.010 C 
ATOM     32  C   UNL     1      -6.529  -1.623   0.024  0.00  0.00    +0.007 C 
ATOM     33  C   UNL     1      -4.278  -2.702  -0.086  0.00  0.00    +0.014 C 
ENDBRANCH  22  24
ENDBRANCH   1  23
TORSDOF 4
