REMARK  Name = ZINC64697875
REMARK  5 active torsions:
REMARK  status: ('A' for Active; 'I' for Inactive)
REMARK    1  A    between atoms: C_1  and  C_2
REMARK    2  A    between atoms: N_11  and  C_12
REMARK    3  A    between atoms: C_12  and  C_13
REMARK    4  A    between atoms: C_13  and  C_15
REMARK    5  A    between atoms: C_13  and  C_21
REMARK                            x       y       z     vdW  Elec       q    Type
REMARK                         _______ _______ _______ _____ _____    ______ ____
ROOT
ATOM      1  C   UNL     1       3.743   0.048   4.848  0.00  0.00    +0.048 C 
ENDROOT
BRANCH   1   2
ATOM      2  C   UNL     1       4.370   1.064   5.768  0.00  0.00    -0.036 C 
ATOM      3  C   UNL     1       5.686   1.208   6.045  0.00  0.00    -0.001 A 
ATOM      4  C   UNL     1       6.882   0.489   5.590  0.00  0.00    +0.010 A 
ATOM      5  C   UNL     1       8.093   0.872   6.053  0.00  0.00    +0.001 A 
ATOM      6  C   UNL     1       8.235   1.936   6.955  0.00  0.00    +0.002 A 
ATOM      7  C   UNL     1       7.184   2.644   7.418  0.00  0.00    +0.026 A 
ATOM      8  C   UNL     1       5.862   2.328   6.996  0.00  0.00    +0.043 A 
ATOM      9  N   UNL     1       4.701   2.856   7.297  0.00  0.00    -0.380 N 
ATOM     10  C   UNL     1       3.655   2.134   6.564  0.00  0.00    +0.145 C 
ATOM     11  H   UNL     1       4.557   3.602   7.899  0.00  0.00    +0.160 HD
ENDBRANCH   1   2
BRANCH   1  12
ATOM     12  C   UNL     1       2.759  -0.817   5.639  0.00  0.00    +0.063 C 
ATOM     13  C   UNL     1       3.482  -1.645   6.734  0.00  0.00    +0.042 C 
ATOM     14  C   UNL     1       2.890  -3.014   6.839  0.00  0.00    -0.019 C 
ATOM     15  C   UNL     1       2.157  -3.490   5.852  0.00  0.00    +0.036 C 
ATOM     16  S   UNL     1       2.105  -2.203   4.616  0.00  0.00    -0.129 S 
ENDBRANCH   1  12
BRANCH   1  17
ATOM     17  C   UNL     1       2.998   0.770   3.723  0.00  0.00    +0.114 C 
BRANCH  17  27
ATOM     18  C   UNL     1       0.243   1.194  -0.267  0.00  0.00    +0.028 C 
ATOM     19  C   UNL     1       0.477  -0.317  -0.316  0.00  0.00    +0.074 C 
ATOM     20  C   UNL     1      -0.870  -1.046  -0.314  0.00  0.00    +0.022 C 
ATOM     21  C   UNL     1      -0.630  -2.555  -0.223  0.00  0.00    +0.003 C 
ATOM     22  C   UNL     1       0.096  -2.879   1.085  0.00  0.00    +0.019 C 
ATOM     23  C   UNL     1       1.454  -2.171   1.099  0.00  0.00    +0.109 C 
ATOM     24  N   UNL     1       1.246  -0.736   0.865  0.00  0.00    -0.283 N 
ATOM     25  C   UNL     1       1.746   0.180   1.718  0.00  0.00    +0.302 C 
ATOM     26  O   UNL     1       1.479   1.357   1.572  0.00  0.00    -0.253 OA
ATOM     27  N   UNL     1       2.541  -0.209   2.734  0.00  0.00    -0.299 N 
ATOM     28  H   UNL     1       2.811  -1.138   2.810  0.00  0.00    +0.150 HD
ENDBRANCH  17  27
ENDBRANCH   1  17
TORSDOF 4
