REMARK  Name = ZINC20427625
REMARK  7 active torsions:
REMARK  status: ('A' for Active; 'I' for Inactive)
REMARK    1  A    between atoms: C_1  and  C_2
REMARK    2  A    between atoms: C_9  and  C_30
REMARK    3  A    between atoms: C_10  and  C_17
REMARK    4  A    between atoms: C_15  and  C_16
REMARK    5  A    between atoms: C_17  and  C_18
REMARK    6  A    between atoms: C_18  and  C_19
REMARK    7  A    between atoms: N_21  and  C_22
REMARK                            x       y       z     vdW  Elec       q    Type
REMARK                         _______ _______ _______ _____ _____    ______ ____
ROOT
ATOM      1  C   UNL     1      -6.721  -5.748   4.750  0.00  0.00    +0.047 C 
ATOM      2  C   UNL     1      -6.863  -5.815   3.251  0.00  0.00    -0.005 A 
ATOM      3  C   UNL     1      -7.853  -6.399   2.563  0.00  0.00    +0.199 A 
ATOM      4  O   UNL     1      -7.646  -6.260   1.241  0.00  0.00    -0.462 OA
ATOM      5  C   UNL     1      -6.508  -5.577   1.000  0.00  0.00    +0.141 A 
ATOM      6  C   UNL     1      -5.944  -5.255   2.251  0.00  0.00    +0.024 A 
ATOM      7  C   UNL     1      -4.754  -4.545   2.324  0.00  0.00    +0.023 A 
ATOM      8  C   UNL     1      -4.120  -4.152   1.145  0.00  0.00    +0.022 A 
ATOM      9  C   UNL     1      -2.858  -3.406   1.185  0.00  0.00    -0.030 A 
ATOM     10  C   UNL     1      -2.287  -3.047   0.007  0.00  0.00    +0.041 A 
ATOM     11  C   UNL     1      -2.907  -3.402  -1.209  0.00  0.00    +0.341 A 
ATOM     12  O   UNL     1      -2.381  -3.077  -2.259  0.00  0.00    -0.245 OA
ATOM     13  O   UNL     1      -4.059  -4.089  -1.242  0.00  0.00    -0.422 OA
ATOM     14  C   UNL     1      -4.684  -4.474  -0.106  0.00  0.00    +0.146 A 
ATOM     15  C   UNL     1      -5.871  -5.183  -0.168  0.00  0.00    +0.035 A 
ATOM     16  C   UNL     1      -6.473  -5.527  -1.506  0.00  0.00    +0.051 C 
ATOM     17  C   UNL     1      -2.214  -3.044   2.499  0.00  0.00    +0.045 C 
ENDROOT
BRANCH  10  18
ATOM     18  C   UNL     1      -0.993  -2.276  -0.001  0.00  0.00    +0.052 C 
BRANCH  18  19
ATOM     19  C   UNL     1      -1.293  -0.775   0.010  0.00  0.00    +0.100 C 
BRANCH  19  20
ATOM     20  C   UNL     1       0.002  -0.004   0.002  0.00  0.00    +0.214 C 
ATOM     21  O   UNL     1       1.060  -0.596  -0.011  0.00  0.00    -0.276 OA
ATOM     22  N   UNL     1      -0.016   1.344   0.009  0.00  0.00    -0.312 N 
ATOM     23  H   UNL     1      -0.976   1.881   0.021  0.00  0.00    +0.149 HD
BRANCH  22  24
ATOM     24  C   UNL     1       1.242   2.093   0.001  0.00  0.00    +0.073 C 
ATOM     25  C   UNL     1       1.759   2.239   1.435  0.00  0.00    +0.022 C 
ATOM     26  C   UNL     1       3.231   2.654   1.406  0.00  0.00    +0.002 C 
ATOM     27  C   UNL     1       3.976   1.824   0.360  0.00  0.00    +0.000 C 
ATOM     28  C   UNL     1       4.425   2.732  -0.787  0.00  0.00    +0.000 C 
ATOM     29  C   UNL     1       3.224   3.066  -1.673  0.00  0.00    +0.000 C 
ATOM     30  C   UNL     1       2.349   4.109  -0.975  0.00  0.00    +0.002 C 
ATOM     31  C   UNL     1       1.006   3.481  -0.599  0.00  0.00    +0.022 C 
ENDBRANCH  22  24
ENDBRANCH  19  20
ENDBRANCH  18  19
ENDBRANCH  10  18
TORSDOF 4
