REMARK  Name = ZINC59763333
REMARK  9 active torsions:
REMARK  status: ('A' for Active; 'I' for Inactive)
REMARK    1  A    between atoms: C_1  and  C_2
REMARK    2  A    between atoms: C_5  and  N_9
REMARK    3  A    between atoms: C_7  and  C_8
REMARK    4  A    between atoms: C_10  and  C_12
REMARK    5  A    between atoms: N_17  and  C_19
REMARK    6  A    between atoms: C_19  and  C_20
REMARK    7  A    between atoms: C_20  and  C_21
REMARK    8  A    between atoms: C_21  and  O_22
REMARK    9  A    between atoms: O_22  and  C_23
REMARK                            x       y       z     vdW  Elec       q    Type
REMARK                         _______ _______ _______ _____ _____    ______ ____
ROOT
ATOM      1  N   UNL     1       0.059  -4.170  -0.021  0.00  0.00    -0.285 N 
ATOM      2  C   UNL     1      -0.040  -4.839  -1.187  0.00  0.00    +0.222 C 
ATOM      3  O   UNL     1      -0.054  -4.230  -2.236  0.00  0.00    -0.275 OA
ATOM      4  H   UNL     1       0.137  -4.658   0.813  0.00  0.00    +0.155 HD
ENDROOT
BRANCH   1   9
ATOM      5  C   UNL     1       0.014   1.503   0.006  0.00  0.00    +0.044 C 
ATOM      6  C   UNL     1       0.026  -0.004  -0.001  0.00  0.00    -0.047 A 
ATOM      7  C   UNL     1       0.630  -0.684  -1.042  0.00  0.00    +0.005 A 
ATOM      8  C   UNL     1       0.643  -2.065  -1.052  0.00  0.00    +0.023 A 
ATOM      9  C   UNL     1       0.048  -2.771  -0.014  0.00  0.00    +0.034 A 
ATOM     10  C   UNL     1      -0.558  -2.085   1.030  0.00  0.00    +0.027 A 
ATOM     11  C   UNL     1      -0.563  -0.703   1.036  0.00  0.00    -0.046 A 
ATOM     12  C   UNL     1      -1.215   0.042   2.172  0.00  0.00    +0.044 C 
ENDBRANCH   1   9
BRANCH   2  13
ATOM     13  C   UNL     1      -0.134  -6.343  -1.187  0.00  0.00    +0.101 C 
ATOM     14  C   UNL     1      -1.437  -6.816  -0.502  0.00  0.00    +0.110 C 
ATOM     15  C   UNL     1      -1.868  -8.017  -1.315  0.00  0.00    +0.216 C 
ATOM     16  O   UNL     1      -2.679  -8.844  -0.956  0.00  0.00    -0.276 OA
ATOM     17  N   UNL     1      -1.222  -8.033  -2.494  0.00  0.00    -0.301 N 
ATOM     18  C   UNL     1      -0.316  -6.885  -2.622  0.00  0.00    +0.121 C 
BRANCH  17  19
ATOM     19  C   UNL     1      -1.399  -9.065  -3.519  0.00  0.00    +0.110 C 
BRANCH  19  20
ATOM     20  C   UNL     1      -2.524  -8.652  -4.470  0.00  0.00    +0.047 C 
BRANCH  20  21
ATOM     21  C   UNL     1      -2.708  -9.729  -5.540  0.00  0.00    +0.161 C 
BRANCH  21  22
ATOM     22  O   UNL     1      -3.759  -9.343  -6.429  0.00  0.00    -0.383 OA
ATOM     23  C   UNL     1      -4.013 -10.286  -7.472  0.00  0.00    +0.193 C 
ENDBRANCH  21  22
ENDBRANCH  20  21
ENDBRANCH  19  20
ENDBRANCH  17  19
ENDBRANCH   2  13
TORSDOF 6
