REMARK  Name = ZINC01617597
REMARK  7 active torsions:
REMARK  status: ('A' for Active; 'I' for Inactive)
REMARK    1  A    between atoms: C_3  and  O_20
REMARK    2  A    between atoms: C_6  and  O_7
REMARK    3  A    between atoms: C_11  and  C_14
REMARK    4  A    between atoms: C_14  and  C_16
REMARK    5  A    between atoms: C_14  and  O_19
REMARK    6  A    between atoms: C_16  and  C_17
REMARK    7  A    between atoms: C_17  and  O_18
REMARK                            x       y       z     vdW  Elec       q    Type
REMARK                         _______ _______ _______ _____ _____    ______ ____
ROOT
ATOM      1  C   UNL     1       0.002  -0.004   0.002  0.00  0.00    +0.050 A 
ATOM      2  C   UNL     1       1.196  -0.686  -0.013  0.00  0.00    +0.050 A 
ATOM      3  C   UNL     1       2.409   0.008  -0.020  0.00  0.00    +0.129 A 
ATOM      4  C   UNL     1       2.409   1.404  -0.013  0.00  0.00    +0.078 A 
ATOM      5  C   UNL     1       1.185   2.103   0.002  0.00  0.00    +0.077 A 
ATOM      6  C   UNL     1      -0.017   1.394   0.010  0.00  0.00    +0.129 A 
ATOM      7  C   UNL     1       1.195   3.576   0.009  0.00  0.00    +0.191 C 
ATOM      8  O   UNL     1       0.147   4.193   0.022  0.00  0.00    -0.287 OA
ATOM      9  C   UNL     1       2.479   4.299   0.001  0.00  0.00    +0.061 C 
ATOM     10  C   UNL     1       3.643   3.635  -0.014  0.00  0.00    +0.032 C 
ATOM     11  C   UNL     1       3.673   2.161  -0.021  0.00  0.00    +0.196 C 
ATOM     12  O   UNL     1       4.737   1.572  -0.034  0.00  0.00    -0.287 OA
ENDROOT
BRANCH   6  13
ATOM     13  O   UNL     1      -1.198   2.058   0.019  0.00  0.00    -0.506 OA
ATOM     14  H   UNL     1      -1.537   2.246   0.905  0.00  0.00    +0.292 HD
ENDBRANCH   6  13
BRANCH   3  15
ATOM     15  O   UNL     1       3.581  -0.672  -0.034  0.00  0.00    -0.506 OA
ATOM     16  H   UNL     1       3.913  -0.865  -0.922  0.00  0.00    +0.292 HD
ENDBRANCH   3  15
BRANCH  10  17
ATOM     17  C   UNL     1       4.938   4.404  -0.022  0.00  0.00    +0.150 C 
BRANCH  17  18
ATOM     18  O   UNL     1       5.732   3.989  -1.136  0.00  0.00    -0.387 OA
ATOM     19  H   UNL     1       5.959   3.049  -1.129  0.00  0.00    +0.210 HD
ENDBRANCH  17  18
BRANCH  17  20
ATOM     20  C   UNL     1       5.701   4.134   1.276  0.00  0.00    +0.064 C 
BRANCH  20  21
ATOM     21  C   UNL     1       6.954   5.010   1.324  0.00  0.00    +0.158 C 
BRANCH  21  22
ATOM     22  O   UNL     1       7.666   4.757   2.537  0.00  0.00    -0.395 OA
ATOM     23  H   UNL     1       8.474   5.279   2.635  0.00  0.00    +0.209 HD
ENDBRANCH  21  22
ENDBRANCH  20  21
ENDBRANCH  17  20
ENDBRANCH  10  17
TORSDOF 7
