REMARK  Name = ZINC00706650
REMARK  4 active torsions:
REMARK  status: ('A' for Active; 'I' for Inactive)
REMARK    1  A    between atoms: C_3  and  N_25
REMARK    2  A    between atoms: C_6  and  C_7
REMARK    3  A    between atoms: C_10  and  C_20
REMARK    4  A    between atoms: C_10  and  O_24
REMARK                            x       y       z     vdW  Elec       q    Type
REMARK                         _______ _______ _______ _____ _____    ______ ____
ROOT
ATOM      1  C   UNL     1      -2.502   1.256   0.207  0.00  0.00    +0.269 C 
ATOM      2  O   UNL     1      -2.365   0.051   0.108  0.00  0.00    -0.268 OA
ATOM      3  N   UNL     1      -3.737   1.794   0.224  0.00  0.00    -0.148 N 
ATOM      4  C   UNL     1      -5.001   1.041   0.244  0.00  0.00    +0.259 C 
ATOM      5  C   UNL     1      -6.075   2.149   0.349  0.00  0.00    +0.096 C 
ATOM      6  C   UNL     1      -6.768   2.036   1.683  0.00  0.00    +0.014 C 
ATOM      7  C   UNL     1      -8.006   2.828   1.898  0.00  0.00    +0.001 C 
ATOM      8  C   UNL     1      -8.078   4.208   1.320  0.00  0.00    +0.000 C 
ATOM      9  C   UNL     1      -6.821   5.019   1.359  0.00  0.00    +0.006 C 
ATOM     10  C   UNL     1      -5.898   4.794   0.180  0.00  0.00    +0.053 C 
ATOM     11  C   UNL     1      -5.267   3.428   0.261  0.00  0.00    +0.045 C 
ATOM     12  N   UNL     1      -4.029   3.156   0.221  0.00  0.00    -0.183 NA
ENDROOT
BRANCH   1  18
ATOM     13  C   UNL     1      -0.034   1.592   0.154  0.00  0.00    +0.015 A 
ATOM     14  C   UNL     1       1.071   2.413   0.244  0.00  0.00    +0.033 A 
ATOM     15  C   UNL     1       0.913   3.765   0.491  0.00  0.00    +0.126 A 
ATOM     16  C   UNL     1      -0.352   4.303   0.649  0.00  0.00    +0.033 A 
ATOM     17  C   UNL     1      -1.465   3.493   0.562  0.00  0.00    +0.015 A 
ATOM     18  C   UNL     1      -1.313   2.128   0.308  0.00  0.00    +0.039 A 
BRANCH  15  19
ATOM     19  N   UNL     1       2.103   4.641   0.586  0.00  0.00    +0.056 N 
ATOM     20  O   UNL     1       3.217   4.170   0.446  0.00  0.00    -0.126 OA
ATOM     21  O   UNL     1       1.967   5.832   0.803  0.00  0.00    -0.126 OA
ENDBRANCH  15  19
ENDBRANCH   1  18
BRANCH   4  22
ATOM     22  C   UNL     1      -5.060   0.118   1.462  0.00  0.00    +0.438 C 
ATOM     23  F   UNL     1      -4.922   0.877   2.630  0.00  0.00    -0.166 F 
ATOM     24  F   UNL     1      -6.290  -0.549   1.483  0.00  0.00    -0.166 F 
ATOM     25  F   UNL     1      -4.024  -0.818   1.389  0.00  0.00    -0.166 F 
ENDBRANCH   4  22
BRANCH   4  26
ATOM     26  O   UNL     1      -5.161   0.294  -0.964  0.00  0.00    -0.363 OA
ATOM     27  H   UNL     1      -4.471  -0.367  -1.112  0.00  0.00    +0.212 HD
ENDBRANCH   4  26
TORSDOF 4
