REMARK  Name = ZINC37840732
REMARK  6 active torsions:
REMARK  status: ('A' for Active; 'I' for Inactive)
REMARK    1  A    between atoms: C_2  and  S_7
REMARK    2  A    between atoms: S_7  and  N_10
REMARK    3  A    between atoms: C_14  and  C_17
REMARK    4  A    between atoms: C_17  and  N_18
REMARK    5  A    between atoms: N_18  and  S_19
REMARK    6  A    between atoms: S_19  and  N_22
REMARK                            x       y       z     vdW  Elec       q    Type
REMARK                         _______ _______ _______ _____ _____    ______ ____
ROOT
ATOM      1  N   UNL     1       1.959   3.914   1.586  0.00  0.00    -0.176 NA
ATOM      2  C   UNL     1       0.825   4.497   2.316  0.00  0.00    +0.109 C 
ATOM      3  C   UNL     1       1.263   5.834   2.922  0.00  0.00    +0.017 C 
ATOM      4  C   UNL     1       2.516   5.618   3.774  0.00  0.00    +0.007 C 
ATOM      5  C   UNL     1       3.651   5.093   2.892  0.00  0.00    +0.020 C 
ATOM      6  C   UNL     1       3.238   3.741   2.288  0.00  0.00    +0.114 C 
ENDROOT
BRANCH   1   7
ATOM      7  S   UNL     1       1.797   3.455   0.003  0.00  0.00    +0.064 S 
ATOM      8  O   UNL     1       3.102   3.471  -0.560  0.00  0.00    -0.153 OA
ATOM      9  O   UNL     1       0.727   4.220  -0.534  0.00  0.00    -0.153 OA
BRANCH   7  11
ATOM     10  C   UNL     1      -0.016   1.345   0.009  0.00  0.00    +0.133 A 
ATOM     11  C   UNL     1       1.267   1.775  -0.001  0.00  0.00    +0.142 A 
ATOM     12  C   UNL     1       2.098   0.650  -0.015  0.00  0.00    +0.162 A 
ATOM     13  N   UNL     1       1.341  -0.417  -0.013  0.00  0.00    -0.180 NA
ATOM     14  N   UNL     1       0.002  -0.004   0.002  0.00  0.00    -0.283 N 
ATOM     15  H   UNL     1      -0.774  -0.585   0.006  0.00  0.00    +0.188 HD
ENDBRANCH   7  11
ENDBRANCH   1   7
BRANCH   5  16
ATOM     16  C   UNL     1       4.912   4.909   3.738  0.00  0.00    +0.111 C 
BRANCH  16  17
ATOM     17  N   UNL     1       5.370   6.214   4.222  0.00  0.00    -0.180 NA
ATOM     18  H   UNL     1       5.024   7.027   3.822  0.00  0.00    +0.149 HD
BRANCH  17  19
ATOM     19  S   UNL     1       6.477   6.299   5.450  0.00  0.00    +0.092 S 
ATOM     20  O   UNL     1       6.735   7.680   5.669  0.00  0.00    -0.142 OA
ATOM     21  O   UNL     1       6.010   5.439   6.480  0.00  0.00    -0.142 OA
BRANCH  19  22
ATOM     22  N   UNL     1       7.887   5.639   4.885  0.00  0.00    -0.193 NA
ATOM     23  H   UNL     1       7.933   5.296   3.979  0.00  0.00    +0.145 HD
ATOM     24  H   UNL     1       8.667   5.595   5.461  0.00  0.00    +0.145 HD
ENDBRANCH  19  22
ENDBRANCH  17  19
ENDBRANCH  16  17
ENDBRANCH   5  16
TORSDOF 6
