REMARK  Name = ZINC06068005
REMARK  8 active torsions:
REMARK  status: ('A' for Active; 'I' for Inactive)
REMARK    1  A    between atoms: C_1  and  C_2
REMARK    2  A    between atoms: C_4  and  O_32
REMARK    3  A    between atoms: C_14  and  C_15
REMARK    4  A    between atoms: C_14  and  O_19
REMARK    5  A    between atoms: C_15  and  C_17
REMARK    6  A    between atoms: C_17  and  O_18
REMARK    7  A    between atoms: C_21  and  O_31
REMARK    8  A    between atoms: C_29  and  C_30
REMARK                            x       y       z     vdW  Elec       q    Type
REMARK                         _______ _______ _______ _____ _____    ______ ____
ROOT
ATOM      1  C   UNL     1       2.182   1.335  -1.086  0.00  0.00    +0.015 C 
ATOM      2  C   UNL     1       1.558   2.074   0.100  0.00  0.00    +0.009 C 
ATOM      3  C   UNL     1       2.265   1.627   1.361  0.00  0.00    +0.041 C 
ATOM      4  C   UNL     1       2.160   0.096   1.449  0.00  0.00    +0.120 C 
ATOM      5  C   UNL     1       0.708  -0.372   1.402  0.00  0.00    +0.035 C 
ATOM      6  C   UNL     1      -0.026   0.178   0.169  0.00  0.00    +0.002 C 
ATOM      7  C   UNL     1       0.058   1.692   0.228  0.00  0.00    +0.002 C 
ATOM      8  C   UNL     1      -0.556   2.442  -0.959  0.00  0.00    +0.008 C 
ATOM      9  C   UNL     1       0.174   3.812  -0.920  0.00  0.00    +0.043 C 
ATOM     10  C   UNL     1       1.515   3.572  -0.183  0.00  0.00    +0.131 C 
ATOM     11  C   UNL     1      -1.490  -0.263   0.203  0.00  0.00    +0.040 C 
ATOM     12  C   UNL     1      -1.570  -1.790   0.101  0.00  0.00    +0.142 C 
ATOM     13  C   UNL     1      -0.722  -2.382   1.211  0.00  0.00    -0.028 C 
ATOM     14  C   UNL     1      -1.263  -3.286   2.017  0.00  0.00    +0.053 C 
ATOM     15  C   UNL     1      -0.486  -3.859   3.127  0.00  0.00    +0.179 C 
ATOM     16  O   UNL     1      -0.966  -4.714   3.847  0.00  0.00    -0.288 OA
ATOM     17  C   UNL     1       0.887  -3.374   3.346  0.00  0.00    +0.047 C 
ATOM     18  C   UNL     1       1.391  -2.476   2.536  0.00  0.00    -0.012 C 
ATOM     19  C   UNL     1       0.692  -1.903   1.351  0.00  0.00    +0.015 C 
ATOM     20  C   UNL     1       1.459  -2.335   0.100  0.00  0.00    +0.020 C 
ENDROOT
BRANCH  10  21
ATOM     21  C   UNL     1       2.673   3.970  -1.062  0.00  0.00    +0.190 C 
ATOM     22  O   UNL     1       2.533   4.017  -2.260  0.00  0.00    -0.292 OA
BRANCH  21  23
ATOM     23  C   UNL     1       4.005   4.311  -0.445  0.00  0.00    +0.233 C 
BRANCH  23  24
ATOM     24  O   UNL     1       4.933   4.655  -1.475  0.00  0.00    -0.387 OA
ATOM     25  H   UNL     1       5.814   4.886  -1.150  0.00  0.00    +0.210 HD
ENDBRANCH  23  24
ENDBRANCH  21  23
ENDBRANCH  10  21
BRANCH  10  26
ATOM     26  O   UNL     1       1.548   4.308   1.041  0.00  0.00    -0.380 OA
ATOM     27  H   UNL     1       1.523   5.268   0.924  0.00  0.00    +0.211 HD
ENDBRANCH  10  26
BRANCH  12  28
ATOM     28  O   UNL     1      -1.069  -2.215  -1.168  0.00  0.00    -0.387 OA
ATOM     29  H   UNL     1      -1.072  -3.174  -1.291  0.00  0.00    +0.210 HD
ENDBRANCH  12  28
BRANCH   4  30
ATOM     30  O   UNL     1       2.872  -0.483   0.354  0.00  0.00    -0.391 OA
ATOM     31  H   UNL     1       3.805  -0.233   0.315  0.00  0.00    +0.210 HD
ENDBRANCH   4  30
TORSDOF 6
