REMARK  Name = ZINC04503706
REMARK  7 active torsions:
REMARK  status: ('A' for Active; 'I' for Inactive)
REMARK    1  A    between atoms: C_1  and  C_2
REMARK    2  A    between atoms: C_2  and  C_3
REMARK    3  A    between atoms: C_3  and  N_4
REMARK    4  A    between atoms: C_5  and  C_7
REMARK    5  A    between atoms: C_7  and  S_8
REMARK    6  A    between atoms: S_8  and  C_9
REMARK    7  A    between atoms: C_14  and  C_20
REMARK                            x       y       z     vdW  Elec       q    Type
REMARK                         _______ _______ _______ _____ _____    ______ ____
ROOT
ATOM      1  C   UNL     1       0.174   0.961   2.735  0.00  0.00    +0.195 A 
ATOM      2  N   UNL     1      -0.109   1.157   4.020  0.00  0.00    -0.204 NA
ATOM      3  C   UNL     1       0.668   0.624   4.964  0.00  0.00    +0.144 A 
ATOM      4  C   UNL     1       0.378   0.825   6.322  0.00  0.00    +0.047 A 
ATOM      5  C   UNL     1       1.189   0.268   7.267  0.00  0.00    +0.008 A 
ATOM      6  C   UNL     1       2.296  -0.493   6.867  0.00  0.00    -0.034 A 
ATOM      7  C   UNL     1       2.559  -0.675   5.553  0.00  0.00    +0.101 A 
ATOM      8  N   UNL     1       1.756  -0.124   4.602  0.00  0.00    -0.252 N 
ATOM      9  C   UNL     1       2.024  -0.310   3.293  0.00  0.00    +0.356 A 
ATOM     10  O   UNL     1       2.990  -0.973   2.954  0.00  0.00    -0.244 OA
ATOM     11  N   UNL     1       1.227   0.230   2.374  0.00  0.00    -0.167 NA
ATOM     12  C   UNL     1       3.196  -1.111   7.905  0.00  0.00    +0.045 C 
ENDROOT
BRANCH   1  13
ATOM     13  S   UNL     1      -0.860   1.669   1.497  0.00  0.00    -0.076 S 
BRANCH  13  14
ATOM     14  C   UNL     1      -0.013   1.086   0.008  0.00  0.00    +0.173 C 
BRANCH  14  16
ATOM     15  N   UNL     1      -0.288   1.272  -2.443  0.00  0.00    -0.315 N 
ATOM     16  C   UNL     1      -0.742   1.585  -1.213  0.00  0.00    +0.223 C 
ATOM     17  O   UNL     1      -1.736   2.268  -1.088  0.00  0.00    -0.275 OA
ATOM     18  H   UNL     1       0.507   0.726  -2.543  0.00  0.00    +0.149 HD
BRANCH  15  19
ATOM     19  C   UNL     1      -0.997   1.758  -3.630  0.00  0.00    +0.104 C 
BRANCH  19  21
ATOM     20  C   UNL     1      -1.021   1.771  -6.128  0.00  0.00    +0.005 C 
ATOM     21  C   UNL     1      -0.281   1.264  -4.889  0.00  0.00    +0.015 C 
ENDBRANCH  19  21
ENDBRANCH  15  19
ENDBRANCH  14  16
ENDBRANCH  13  14
ENDBRANCH   1  13
TORSDOF 5
