REMARK  Name = ZINC17162040
REMARK  9 active torsions:
REMARK  status: ('A' for Active; 'I' for Inactive)
REMARK    1  A    between atoms: C_1  and  C_2
REMARK    2  A    between atoms: C_2  and  C_3
REMARK    3  A    between atoms: C_3  and  N_4
REMARK    4  A    between atoms: C_13  and  C_15
REMARK    5  A    between atoms: N_17  and  N_18
REMARK    6  A    between atoms: C_19  and  C_21
REMARK    7  A    between atoms: N_26  and  C_28
REMARK    8  A    between atoms: C_32  and  C_35
REMARK    9  A    between atoms: C_33  and  C_34
REMARK                            x       y       z     vdW  Elec       q    Type
REMARK                         _______ _______ _______ _____ _____    ______ ____
ROOT
ATOM      1  C   UNL     1       2.342   4.398   0.003  0.00  0.00    +0.281 C 
ATOM      2  O   UNL     1       3.432   3.859  -0.009  0.00  0.00    -0.267 OA
ATOM      3  N   UNL     1       2.255   5.743   0.011  0.00  0.00    -0.229 N 
ATOM      4  H   UNL     1       1.269   6.230   0.022  0.00  0.00    +0.173 HD
ENDROOT
BRANCH   1  14
ATOM      5  N   UNL     1      -1.175   3.515   0.031  0.00  0.00    -0.228 N 
ATOM      6  C   UNL     1      -1.261   2.168   0.020  0.00  0.00    +0.275 A 
ATOM      7  O   UNL     1      -2.345   1.614   0.022  0.00  0.00    -0.266 OA
ATOM      8  C   UNL     1      -0.017   1.387   0.010  0.00  0.00    +0.050 A 
ATOM      9  C   UNL     1       0.002  -0.004   0.002  0.00  0.00    +0.014 A 
ATOM     10  C   UNL     1       1.213  -0.663  -0.013  0.00  0.00    +0.001 A 
ATOM     11  C   UNL     1       2.407   0.046  -0.021  0.00  0.00    +0.001 A 
ATOM     12  C   UNL     1       2.409   1.425  -0.014  0.00  0.00    +0.011 A 
ATOM     13  C   UNL     1       1.199   2.109   0.002  0.00  0.00    +0.020 A 
ATOM     14  C   UNL     1       1.114   3.579   0.010  0.00  0.00    +0.155 A 
ATOM     15  N   UNL     1      -0.065   4.151   0.024  0.00  0.00    -0.163 NA
BRANCH   5  16
ATOM     16  C   UNL     1      -2.418   4.289   0.047  0.00  0.00    +0.147 C 
BRANCH  16  18
ATOM     17  C   UNL     1      -4.136   5.360   1.512  0.00  0.00    +0.005 C 
ATOM     18  C   UNL     1      -2.837   4.551   1.495  0.00  0.00    +0.020 C 
ENDBRANCH  16  18
ENDBRANCH   5  16
ENDBRANCH   1  14
BRANCH   3  19
ATOM     19  N   UNL     1       3.421   6.520   0.004  0.00  0.00    -0.234 N 
ATOM     20  C   UNL     1       3.334   7.865   0.012  0.00  0.00    +0.234 C 
ATOM     21  O   UNL     1       2.247   8.402   0.024  0.00  0.00    -0.274 OA
ATOM     22  H   UNL     1       4.407   6.033  -0.007  0.00  0.00    +0.173 HD
BRANCH  20  23
ATOM     23  C   UNL     1       4.587   8.701   0.005  0.00  0.00    +0.103 C 
ATOM     24  C   UNL     1       5.341   8.558  -1.338  0.00  0.00    +0.110 C 
ATOM     25  C   UNL     1       4.825   9.706  -2.177  0.00  0.00    +0.221 C 
ATOM     26  O   UNL     1       4.947   9.796  -3.381  0.00  0.00    -0.275 OA
ATOM     27  N   UNL     1       4.213  10.612  -1.395  0.00  0.00    -0.270 N 
ATOM     28  C   UNL     1       4.247  10.208   0.015  0.00  0.00    +0.127 C 
BRANCH  27  29
ATOM     29  C   UNL     1       3.620  11.789  -1.866  0.00  0.00    +0.039 A 
ATOM     30  C   UNL     1       4.367  12.956  -1.958  0.00  0.00    +0.024 A 
ATOM     31  C   UNL     1       3.779  14.115  -2.423  0.00  0.00    +0.002 A 
ATOM     32  C   UNL     1       2.448  14.116  -2.796  0.00  0.00    +0.004 A 
ATOM     33  C   UNL     1       1.701  12.956  -2.705  0.00  0.00    -0.046 A 
ATOM     34  C   UNL     1       2.285  11.791  -2.246  0.00  0.00    -0.026 A 
ATOM     35  C   UNL     1       1.472  10.526  -2.153  0.00  0.00    +0.046 C 
ATOM     36  C   UNL     1       0.250  12.960  -3.113  0.00  0.00    +0.044 C 
ENDBRANCH  27  29
ENDBRANCH  20  23
ENDBRANCH   3  19
TORSDOF 6
