REMARK  Name = ZINC10918486
REMARK  7 active torsions:
REMARK  status: ('A' for Active; 'I' for Inactive)
REMARK    1  A    between atoms: C_1  and  C_2
REMARK    2  A    between atoms: C_2  and  C_3
REMARK    3  A    between atoms: C_3  and  C_5
REMARK    4  A    between atoms: C_3  and  N_12
REMARK    5  A    between atoms: C_13  and  C_15
REMARK    6  A    between atoms: C_18  and  N_24
REMARK    7  A    between atoms: C_19  and  N_21
REMARK                            x       y       z     vdW  Elec       q    Type
REMARK                         _______ _______ _______ _____ _____    ______ ____
ROOT
ATOM      1  N   UNL     1       2.133  -0.071  -1.055  0.00  0.00    -0.305 N 
ATOM      2  C   UNL     1       2.520   1.038  -1.715  0.00  0.00    +0.245 C 
ATOM      3  O   UNL     1       1.716   1.661  -2.381  0.00  0.00    -0.270 OA
ATOM      4  H   UNL     1       2.774  -0.568  -0.523  0.00  0.00    +0.150 HD
ENDROOT
BRANCH   2   5
ATOM      5  C   UNL     1       3.920   1.497  -1.628  0.00  0.00    +0.039 A 
ATOM      6  C   UNL     1       4.846   0.779  -0.867  0.00  0.00    +0.015 A 
ATOM      7  C   UNL     1       6.151   1.209  -0.788  0.00  0.00    +0.026 A 
ATOM      8  C   UNL     1       6.549   2.358  -1.466  0.00  0.00    +0.055 A 
ATOM      9  C   UNL     1       5.628   3.076  -2.225  0.00  0.00    +0.147 A 
ATOM     10  C   UNL     1       4.323   2.647  -2.312  0.00  0.00    +0.047 A 
BRANCH   9  11
ATOM     11  N   UNL     1       6.055   4.298  -2.943  0.00  0.00    +0.058 N 
ATOM     12  O   UNL     1       5.308   5.245  -3.021  0.00  0.00    -0.126 OA
ATOM     13  O   UNL     1       7.150   4.348  -3.452  0.00  0.00    -0.126 OA
ENDBRANCH   9  11
BRANCH   8  14
ATOM     14  N   UNL     1       7.868   2.790  -1.384  0.00  0.00    -0.356 N 
ATOM     15  H   UNL     1       8.535   2.234  -0.952  0.00  0.00    +0.142 HD
ATOM     16  H   UNL     1       8.121   3.648  -1.760  0.00  0.00    +0.142 HD
ENDBRANCH   8  14
ENDBRANCH   2   5
BRANCH   1  17
ATOM     17  C   UNL     1       0.743  -0.526  -1.141  0.00  0.00    +0.103 C 
BRANCH  17  18
ATOM     18  C   UNL     1       0.683  -2.009  -0.878  0.00  0.00    -0.027 A 
ATOM     19  C   UNL     1       1.470  -2.568   0.112  0.00  0.00    +0.007 A 
ATOM     20  C   UNL     1       1.415  -3.928   0.353  0.00  0.00    +0.020 A 
ATOM     21  C   UNL     1       0.573  -4.730  -0.396  0.00  0.00    +0.041 A 
ATOM     22  C   UNL     1      -0.214  -4.170  -1.386  0.00  0.00    +0.020 A 
ATOM     23  C   UNL     1      -0.163  -2.809  -1.623  0.00  0.00    +0.007 A 
ATOM     24 CL   UNL     1       0.505  -6.438  -0.093  0.00  0.00    -0.084 Cl
ENDBRANCH  17  18
BRANCH  17  26
ATOM     25  C   UNL     1      -0.142   1.702  -0.438  0.00  0.00    +0.006 C 
ATOM     26  C   UNL     1      -0.101   0.211  -0.099  0.00  0.00    +0.024 C 
ENDBRANCH  17  26
ENDBRANCH   1  17
TORSDOF 6
