REMARK  Name = ZINC15218692
REMARK  12 active torsions:
REMARK  status: ('A' for Active; 'I' for Inactive)
REMARK    1  A    between atoms: C_1  and  C_2
REMARK    2  A    between atoms: C_2  and  C_3
REMARK    3  A    between atoms: C_3  and  C_4
REMARK    4  A    between atoms: C_4  and  C_5
REMARK    5  A    between atoms: C_8  and  N_11
REMARK    6  A    between atoms: N_11  and  S_12
REMARK    7  A    between atoms: S_12  and  C_15
REMARK    8  A    between atoms: C_19  and  C_21
REMARK    9  A    between atoms: C_21  and  O_23
REMARK   10  A    between atoms: O_23  and  C_24
REMARK   11  A    between atoms: C_24  and  C_26
REMARK   12  A    between atoms: C_24  and  C_27
REMARK                            x       y       z     vdW  Elec       q    Type
REMARK                         _______ _______ _______ _____ _____    ______ ____
ROOT
ATOM      1  C   UNL     1      -3.393   6.864   0.001  0.00  0.00    +0.109 A 
ATOM      2  C   UNL     1      -2.305   7.412   0.656  0.00  0.00    +0.029 A 
ATOM      3  C   UNL     1      -1.378   6.593   1.276  0.00  0.00    +0.003 A 
ATOM      4  C   UNL     1      -1.534   5.223   1.245  0.00  0.00    +0.015 A 
ATOM      5  C   UNL     1      -2.631   4.663   0.586  0.00  0.00    +0.061 A 
ATOM      6  C   UNL     1      -3.559   5.496  -0.042  0.00  0.00    +0.043 A 
ENDROOT
BRANCH   1   7
ATOM      7  S   UNL     1      -4.567   7.917  -0.787  0.00  0.00    +0.072 S 
ATOM      8  O   UNL     1      -5.744   7.143  -0.975  0.00  0.00    -0.150 OA
ATOM      9  O   UNL     1      -4.566   9.139  -0.063  0.00  0.00    -0.150 OA
BRANCH   7  10
ATOM     10  N   UNL     1      -3.980   8.260  -2.297  0.00  0.00    -0.216 N 
ATOM     11  H   UNL     1      -3.756   9.174  -2.534  0.00  0.00    +0.174 HD
BRANCH  10  15
ATOM     12  C   UNL     1      -3.466   5.204  -5.077  0.00  0.00    -0.047 A 
ATOM     13  C   UNL     1      -4.738   5.658  -4.778  0.00  0.00    +0.005 A 
ATOM     14  C   UNL     1      -4.912   6.671  -3.857  0.00  0.00    +0.025 A 
ATOM     15  C   UNL     1      -3.808   7.235  -3.229  0.00  0.00    +0.048 A 
ATOM     16  C   UNL     1      -2.532   6.780  -3.536  0.00  0.00    +0.025 A 
ATOM     17  C   UNL     1      -2.365   5.763  -4.455  0.00  0.00    +0.005 A 
BRANCH  12  18
ATOM     18  C   UNL     1      -3.281   4.097  -6.083  0.00  0.00    +0.035 C 
BRANCH  18  19
ATOM     19  C   UNL     1      -3.117   4.700  -7.480  0.00  0.00    +0.004 C 
BRANCH  19  21
ATOM     20  C   UNL     1      -2.765   4.180  -9.898  0.00  0.00    +0.004 C 
ATOM     21  C   UNL     1      -2.928   3.577  -8.502  0.00  0.00    -0.003 C 
ENDBRANCH  19  21
ENDBRANCH  18  19
ENDBRANCH  12  18
ENDBRANCH  10  15
ENDBRANCH   7  10
ENDBRANCH   1   7
BRANCH   5  22
ATOM     22  C   UNL     1      -2.804   3.197   0.549  0.00  0.00    +0.340 C 
ATOM     23  O   UNL     1      -3.759   2.712  -0.025  0.00  0.00    -0.245 OA
BRANCH  22  24
ATOM     24  O   UNL     1      -1.903   2.396   1.151  0.00  0.00    -0.449 OA
BRANCH  24  25
ATOM     25  C   UNL     1      -2.137   0.965   1.073  0.00  0.00    +0.259 C 
ATOM     26  C   UNL     1      -1.455   0.404  -0.176  0.00  0.00    +0.062 C 
BRANCH  25  27
ATOM     27  C   UNL     1      -1.570   0.296   2.299  0.00  0.00    +0.261 C 
ATOM     28  O   UNL     1      -0.944   0.946   3.109  0.00  0.00    -0.271 OA
ATOM     29  N   UNL     1      -1.759  -1.024   2.495  0.00  0.00    -0.237 N 
ATOM     30  C   UNL     1      -1.252  -1.622   3.591  0.00  0.00    +0.303 C 
ATOM     31  O   UNL     1      -0.624  -0.971   4.403  0.00  0.00    -0.253 OA
ATOM     32  N   UNL     1      -1.441  -2.942   3.787  0.00  0.00    -0.313 N 
ATOM     33  H   UNL     1      -2.260  -1.543   1.847  0.00  0.00    +0.159 HD
ATOM     34  H   UNL     1      -1.942  -3.461   3.139  0.00  0.00    +0.146 HD
ATOM     35  H   UNL     1      -1.076  -3.372   4.576  0.00  0.00    +0.146 HD
ENDBRANCH  25  27
ENDBRANCH  24  25
ENDBRANCH  22  24
ENDBRANCH   5  22
TORSDOF 10
