REMARK  Name = ZINC03568975
REMARK  7 active torsions:
REMARK  status: ('A' for Active; 'I' for Inactive)
REMARK    1  A    between atoms: C_1  and  O_2
REMARK    2  A    between atoms: O_2  and  C_3
REMARK    3  A    between atoms: C_6  and  N_10
REMARK    4  A    between atoms: C_11  and  C_13
REMARK    5  A    between atoms: C_13  and  O_14
REMARK    6  A    between atoms: O_14  and  C_15
REMARK    7  A    between atoms: C_15  and  C_17
REMARK                            x       y       z     vdW  Elec       q    Type
REMARK                         _______ _______ _______ _____ _____    ______ ____
ROOT
ATOM      1  O   UNL     1       3.808   4.756  -2.566  0.00  0.00    -0.453 OA
ENDROOT
BRANCH   1   2
ATOM      2  C   UNL     1       3.820   3.605  -1.875  0.00  0.00    +0.343 C 
ATOM      3  O   UNL     1       4.185   2.584  -2.409  0.00  0.00    -0.247 OA
BRANCH   2   4
ATOM      4  C   UNL     1       3.379   3.586  -0.435  0.00  0.00    +0.190 C 
ATOM      5  C   UNL     1       4.149   4.574   0.458  0.00  0.00    +0.059 C 
ATOM      6  C   UNL     1       5.308   3.674   0.950  0.00  0.00    +0.100 C 
ATOM      7  C   UNL     1       4.755   2.269   0.866  0.00  0.00    +0.221 C 
ATOM      8  O   UNL     1       5.307   1.281   1.301  0.00  0.00    -0.275 OA
ATOM      9  N   UNL     1       3.555   2.270   0.237  0.00  0.00    -0.245 N 
ATOM     10  C   UNL     1       2.433   1.430   0.076  0.00  0.00    +0.052 A 
ATOM     11  C   UNL     1       2.435   0.030   0.040  0.00  0.00    +0.025 A 
ATOM     12  C   UNL     1       1.253  -0.676  -0.003  0.00  0.00    +0.002 A 
ATOM     13  C   UNL     1       0.032  -0.026   0.002  0.00  0.00    +0.001 A 
ATOM     14  C   UNL     1       0.004   1.359   0.007  0.00  0.00    +0.016 A 
ATOM     15  C   UNL     1       1.184   2.062   0.001  0.00  0.00    +0.032 A 
ATOM     16  S   UNL     1       1.568   3.792  -0.189  0.00  0.00    -0.086 S 
ENDBRANCH   2   4
ENDBRANCH   1   2
BRANCH   1  17
ATOM     17  C   UNL     1       4.247   4.700  -3.949  0.00  0.00    +0.328 C 
BRANCH  17  19
ATOM     18  N   UNL     1       4.525   6.266  -5.843  0.00  0.00    -0.283 N 
ATOM     19  C   UNL     1       4.165   6.076  -4.558  0.00  0.00    +0.255 C 
ATOM     20  O   UNL     1       3.776   7.012  -3.892  0.00  0.00    -0.272 OA
ATOM     21  H   UNL     1       4.900   5.533  -6.356  0.00  0.00    +0.155 HD
BRANCH  18  25
ATOM     22  C   UNL     1       4.029  10.008  -7.616  0.00  0.00    +0.138 A 
ATOM     23  C   UNL     1       3.848   8.856  -8.366  0.00  0.00    +0.049 A 
ATOM     24  C   UNL     1       4.018   7.617  -7.781  0.00  0.00    +0.027 A 
ATOM     25  C   UNL     1       4.359   7.524  -6.438  0.00  0.00    +0.035 A 
ATOM     26  C   UNL     1       4.540   8.677  -5.687  0.00  0.00    +0.047 A 
ATOM     27  C   UNL     1       4.375   9.917  -6.275  0.00  0.00    +0.084 A 
ATOM     28 CL   UNL     1       4.602  11.359  -5.336  0.00  0.00    -0.080 Cl
BRANCH  22  30
ATOM     29  C   UNL     1       3.511  11.248  -9.578  0.00  0.00    +0.277 C 
ATOM     30  O   UNL     1       3.868  11.229  -8.194  0.00  0.00    -0.494 OA
ENDBRANCH  22  30
ENDBRANCH  18  25
ENDBRANCH  17  19
ENDBRANCH   1  17
TORSDOF 6
