REMARK  Name = ZINC12035060
REMARK  12 active torsions:
REMARK  status: ('A' for Active; 'I' for Inactive)
REMARK    1  A    between atoms: C_1  and  C_2
REMARK    2  A    between atoms: C_2  and  C_3
REMARK    3  A    between atoms: C_2  and  C_4
REMARK    4  A    between atoms: C_4  and  C_5
REMARK    5  A    between atoms: C_5  and  C_6
REMARK    6  A    between atoms: C_6  and  C_17
REMARK    7  A    between atoms: N_9  and  C_13
REMARK    8  A    between atoms: C_13  and  C_14
REMARK    9  A    between atoms: C_14  and  N_72
REMARK   10  A    between atoms: C_15  and  N_72
REMARK   11  A    between atoms: C_16  and  N_72
REMARK   12  A    between atoms: C_23  and  C_25
REMARK                            x       y       z     vdW  Elec       q    Type
REMARK                         _______ _______ _______ _____ _____    ______ ____
ROOT
ATOM      1  C   UNL     1      -0.759   2.033  -1.229  0.00  0.00    +0.115 C 
ATOM      2  C   UNL     1      -2.164   1.466  -1.279  0.00  0.00    +0.247 C 
ATOM      3  O   UNL     1      -3.050   1.631  -0.468  0.00  0.00    -0.273 OA
ATOM      4  N   UNL     1      -2.224   0.742  -2.414  0.00  0.00    -0.226 N 
ATOM      5  C   UNL     1      -1.065   0.771  -3.080  0.00  0.00    +0.309 C 
ATOM      6  O   UNL     1      -0.875   0.193  -4.132  0.00  0.00    -0.252 OA
ATOM      7  N   UNL     1      -0.130   1.516  -2.456  0.00  0.00    -0.285 N 
ATOM      8  H   UNL     1       0.779   1.680  -2.755  0.00  0.00    +0.151 HD
ENDROOT
BRANCH   1   9
ATOM      9  C   UNL     1      -0.019   1.526   0.010  0.00  0.00    +0.024 C 
ATOM     10  C   UNL     1       1.417   2.058  -0.000  0.00  0.00    +0.025 C 
ATOM     11  C   UNL     1       2.144   1.577   1.259  0.00  0.00    +0.108 C 
ATOM     12  N   UNL     1       2.043   0.113   1.334  0.00  0.00    -0.301 N 
ATOM     13  C   UNL     1       0.714  -0.508   1.262  0.00  0.00    +0.108 C 
ATOM     14  C   UNL     1       0.002  -0.004   0.002  0.00  0.00    +0.025 C 
ATOM     15  C   UNL     1       3.149  -0.646   1.466  0.00  0.00    +0.219 C 
ATOM     16  O   UNL     1       3.053  -1.853   1.526  0.00  0.00    -0.275 OA
BRANCH  15  17
ATOM     17  C   UNL     1       4.506   0.006   1.539  0.00  0.00    +0.083 C 
ATOM     18  C   UNL     1       4.597   0.937   2.773  0.00  0.00    +0.021 C 
ATOM     19  C   UNL     1       5.750   0.312   3.622  0.00  0.00    +0.013 C 
ATOM     20  C   UNL     1       5.500  -1.218   3.359  0.00  0.00    +0.016 C 
ATOM     21  C   UNL     1       5.616  -1.062   1.799  0.00  0.00    +0.024 C 
ATOM     22  C   UNL     1       6.925  -0.268   1.712  0.00  0.00    -0.027 C 
ATOM     23  C   UNL     1       7.003   0.523   2.763  0.00  0.00    -0.027 C 
ENDBRANCH  15  17
ENDBRANCH   1   9
BRANCH   1  24
ATOM     24  C   UNL     1      -0.794   3.562  -1.245  0.00  0.00    +0.036 C 
BRANCH  24  25
ATOM     25  C   UNL     1      -1.539   4.042  -2.493  0.00  0.00    +0.005 C 
BRANCH  25  27
ATOM     26  C   UNL     1      -2.208   6.053  -3.816  0.00  0.00    +0.007 C 
ATOM     27  C   UNL     1      -1.575   5.571  -2.509  0.00  0.00    -0.017 C 
ATOM     28  C   UNL     1      -2.402   6.075  -1.325  0.00  0.00    +0.007 C 
ENDBRANCH  25  27
ENDBRANCH  24  25
ENDBRANCH   1  24
BRANCH   4  29
ATOM     29  C   UNL     1      -3.413   0.011  -2.862  0.00  0.00    +0.099 C 
BRANCH  29  30
ATOM     30  C   UNL     1      -4.272   0.923  -3.739  0.00  0.00    -0.060 C 
BRANCH  30  33
ATOM     31  C   UNL     1      -6.341  -0.132  -3.055  0.00  0.00    -0.097 C 
ATOM     32  C   UNL     1      -6.189   0.946  -5.218  0.00  0.00    -0.097 C 
ATOM     33  N   UNL     1      -5.455   0.166  -4.200  0.00  0.00    +0.377 N 
ATOM     34  H   UNL     1      -5.142  -0.718  -4.619  0.00  0.00    -0.083 HD
ENDBRANCH  30  33
ENDBRANCH  29  30
ENDBRANCH   4  29
TORSDOF 8
