REMARK  Name = ZINC33034166
REMARK  10 active torsions:
REMARK  status: ('A' for Active; 'I' for Inactive)
REMARK    1  A    between atoms: C_1  and  C_2
REMARK    2  A    between atoms: C_2  and  N_3
REMARK    3  A    between atoms: C_4  and  C_6
REMARK    4  A    between atoms: C_9  and  N_27
REMARK    5  A    between atoms: C_10  and  N_12
REMARK    6  A    between atoms: N_12  and  S_13
REMARK    7  A    between atoms: S_13  and  C_16
REMARK    8  A    between atoms: C_18  and  C_26
REMARK    9  A    between atoms: C_21  and  N_22
REMARK   10  A    between atoms: C_23  and  C_25
REMARK                            x       y       z     vdW  Elec       q    Type
REMARK                         _______ _______ _______ _____ _____    ______ ____
ROOT
ATOM      1  C   UNL     1       0.826   3.308   0.790  0.00  0.00    +0.039 A 
ATOM      2  C   UNL     1       1.255   2.953   2.072  0.00  0.00    +0.015 A 
ATOM      3  C   UNL     1       0.332   2.718   3.067  0.00  0.00    +0.026 A 
ATOM      4  C   UNL     1      -1.027   2.835   2.800  0.00  0.00    +0.052 A 
ATOM      5  C   UNL     1      -1.463   3.190   1.521  0.00  0.00    +0.070 A 
ATOM      6  C   UNL     1      -0.540   3.420   0.518  0.00  0.00    +0.039 A 
ENDROOT
BRANCH   4   7
ATOM      7  N   UNL     1      -1.957   2.597   3.811  0.00  0.00    -0.332 N 
ATOM      8  C   UNL     1      -1.311   2.015   4.995  0.00  0.00    +0.086 C 
ATOM      9  C   UNL     1      -2.375   1.696   6.048  0.00  0.00    -0.063 C 
ATOM     10  N   UNL     1      -3.099   2.926   6.398  0.00  0.00    +0.381 N 
ATOM     11  C   UNL     1      -3.745   3.508   5.213  0.00  0.00    -0.063 C 
ATOM     12  C   UNL     1      -2.681   3.827   4.160  0.00  0.00    +0.086 C 
ATOM     13  H   UNL     1      -3.872   2.697   7.146  0.00  0.00    -0.086 HD
ATOM     14  H   UNL     1      -2.393   3.661   6.813  0.00  0.00    -0.086 HD
ENDBRANCH   4   7
BRANCH   1  16
ATOM     15  N   UNL     1       3.125   3.341  -0.046  0.00  0.00    -0.312 N 
ATOM     16  C   UNL     1       1.815   3.559  -0.276  0.00  0.00    +0.244 C 
ATOM     17  O   UNL     1       1.448   3.962  -1.363  0.00  0.00    -0.270 OA
ATOM     18  H   UNL     1       3.457   2.976   0.938  0.00  0.00    +0.149 HD
BRANCH  15  20
ATOM     19  C   UNL     1       5.509   3.266  -0.586  0.00  0.00    +0.024 C 
ATOM     20  C   UNL     1       4.106   3.590  -1.104  0.00  0.00    +0.101 C 
ENDBRANCH  15  20
ENDBRANCH   1  16
BRANCH   5  21
ATOM     21  N   UNL     1      -2.832   3.307   1.254  0.00  0.00    -0.214 N 
ATOM     22  H   UNL     1      -3.548   2.631   1.746  0.00  0.00    +0.174 HD
BRANCH  21  23
ATOM     23  S   UNL     1      -3.374   4.461   0.197  0.00  0.00    +0.074 S 
ATOM     24  O   UNL     1      -2.698   5.665   0.529  0.00  0.00    -0.150 OA
ATOM     25  O   UNL     1      -4.792   4.363   0.181  0.00  0.00    -0.150 OA
BRANCH  23  26
ATOM     26  C   UNL     1      -2.819   3.998  -1.410  0.00  0.00    +0.130 A 
ATOM     27  C   UNL     1      -1.960   4.824  -2.109  0.00  0.00    +0.034 A 
ATOM     28  C   UNL     1      -1.528   4.464  -3.372  0.00  0.00    -0.048 A 
ATOM     29  C   UNL     1      -1.951   3.275  -3.938  0.00  0.00    +0.005 A 
ATOM     30  C   UNL     1      -2.806   2.443  -3.242  0.00  0.00    +0.025 A 
ATOM     31  C   UNL     1      -3.241   2.801  -1.973  0.00  0.00    +0.060 A 
ATOM     32  C   UNL     1      -0.596   5.370  -4.134  0.00  0.00    +0.044 C 
BRANCH  31  33
ATOM     33  N   UNL     1      -4.107   1.960  -1.265  0.00  0.00    -0.284 N 
ATOM     34  C   UNL     1      -4.226   0.665  -1.618  0.00  0.00    +0.214 C 
ATOM     35  O   UNL     1      -3.519   0.206  -2.490  0.00  0.00    -0.276 OA
ATOM     36  C   UNL     1      -5.233  -0.216  -0.923  0.00  0.00    +0.109 C 
ATOM     37  H   UNL     1      -4.691   2.357  -0.422  0.00  0.00    +0.155 HD
ENDBRANCH  31  33
ENDBRANCH  23  26
ENDBRANCH  21  23
ENDBRANCH   5  21
TORSDOF 7
