REMARK  Name = ZINC40464259
REMARK  10 active torsions:
REMARK  status: ('A' for Active; 'I' for Inactive)
REMARK    1  A    between atoms: C_1  and  C_2
REMARK    2  A    between atoms: C_6  and  O_18
REMARK    3  A    between atoms: C_7  and  N_8
REMARK    4  A    between atoms: C_9  and  C_11
REMARK    5  A    between atoms: C_11  and  C_13
REMARK    6  A    between atoms: C_11  and  N_17
REMARK    7  A    between atoms: C_13  and  C_14
REMARK    8  A    between atoms: C_13  and  C_15
REMARK    9  A    between atoms: C_13  and  C_16
REMARK   10  A    between atoms: O_18  and  C_19
REMARK                            x       y       z     vdW  Elec       q    Type
REMARK                         _______ _______ _______ _____ _____    ______ ____
ROOT
ATOM      1  N   UNL     1       0.025  -0.011   2.418  0.00  0.00    -0.284 N 
ATOM      2  C   UNL     1      -0.355  -0.637   3.549  0.00  0.00    +0.203 C 
ATOM      3  O   UNL     1      -0.612  -1.823   3.530  0.00  0.00    -0.277 OA
ATOM      4  H   UNL     1       0.304   0.917   2.447  0.00  0.00    +0.155 HD
ENDROOT
BRANCH   1  11
ATOM      5  C   UNL     1       2.278  -1.621   1.768  0.00  0.00    +0.046 C 
ATOM      6  C   UNL     1       1.095  -1.498   0.842  0.00  0.00    -0.025 A 
ATOM      7  C   UNL     1       1.083  -2.182  -0.358  0.00  0.00    +0.020 A 
ATOM      8  C   UNL     1      -0.002  -2.072  -1.210  0.00  0.00    +0.022 A 
ATOM      9  C   UNL     1      -1.079  -1.276  -0.864  0.00  0.00    +0.062 A 
ATOM     10  C   UNL     1      -1.073  -0.587   0.338  0.00  0.00    +0.142 A 
ATOM     11  C   UNL     1       0.017  -0.702   1.198  0.00  0.00    +0.079 A 
ATOM     12 BR   UNL     1      -0.011  -3.010  -2.852  0.00  0.00    -0.050 Br
BRANCH  10  13
ATOM     13  O   UNL     1      -2.131   0.197   0.679  0.00  0.00    -0.493 OA
ATOM     14  C   UNL     1      -3.215   0.264  -0.250  0.00  0.00    +0.277 C 
ENDBRANCH  10  13
ENDBRANCH   1  11
BRANCH   2  15
ATOM     15  C   UNL     1      -0.461   0.135   4.838  0.00  0.00    +0.019 C 
BRANCH  15  16
ATOM     16  C   UNL     1       0.932   0.306   5.447  0.00  0.00    -0.042 C 
ATOM     17  C   UNL     1       1.826   1.069   4.467  0.00  0.00    +0.009 C 
ATOM     18  C   UNL     1       0.825   1.091   6.756  0.00  0.00    +0.009 C 
ATOM     19  C   UNL     1       1.540  -1.070   5.725  0.00  0.00    +0.009 C 
ENDBRANCH  15  16
BRANCH  15  20
ATOM     20  N   UNL     1      -1.319  -0.597   5.779  0.00  0.00    +0.386 N 
ATOM     21  H   UNL     1      -1.390  -0.080   6.643  0.00  0.00    -0.089 HD
ATOM     22  H   UNL     1      -2.238  -0.710   5.378  0.00  0.00    -0.089 HD
ATOM     23  H   UNL     1      -0.919  -1.505   5.963  0.00  0.00    -0.089 HD
ENDBRANCH  15  20
ENDBRANCH   2  15
TORSDOF 5
