REMARK  Name = ZINC04618417
REMARK  6 active torsions:
REMARK  status: ('A' for Active; 'I' for Inactive)
REMARK    1  A    between atoms: C_3  and  C_15
REMARK    2  A    between atoms: C_6  and  C_7
REMARK    3  A    between atoms: C_7  and  N_8
REMARK    4  A    between atoms: N_11  and  N_14
REMARK    5  A    between atoms: C_15  and  N_16
REMARK    6  A    between atoms: N_19  and  N_22
REMARK                            x       y       z     vdW  Elec       q    Type
REMARK                         _______ _______ _______ _____ _____    ______ ____
ROOT
ATOM      1  C   UNL     1      -1.990   5.059  -4.462  0.00  0.00    +0.006 A 
ATOM      2  C   UNL     1      -1.724   6.415  -4.506  0.00  0.00    +0.006 A 
ATOM      3  C   UNL     1      -0.416   6.861  -4.553  0.00  0.00    -0.026 A 
ATOM      4  C   UNL     1       0.625   5.952  -4.552  0.00  0.00    +0.006 A 
ATOM      5  C   UNL     1       0.359   4.596  -4.504  0.00  0.00    +0.006 A 
ATOM      6  C   UNL     1      -0.948   4.150  -4.456  0.00  0.00    -0.026 A 
ENDROOT
BRANCH   6   7
ATOM      7  C   UNL     1      -1.238   2.672  -4.403  0.00  0.00    +0.181 C 
BRANCH   7   8
ATOM      8  N   UNL     1      -1.296   2.235  -3.006  0.00  0.00    -0.235 N 
ATOM      9  C   UNL     1      -0.260   1.791  -2.264  0.00  0.00    +0.195 A 
ATOM     10  S   UNL     1       1.365   1.635  -2.781  0.00  0.00    -0.010 S 
ATOM     11  N   UNL     1      -0.741   1.490  -1.041  0.00  0.00    -0.232 N 
ATOM     12  C   UNL     1      -2.087   1.760  -1.027  0.00  0.00    +0.242 A 
ATOM     13  N   UNL     1      -2.436   2.206  -2.191  0.00  0.00    -0.157 NA
BRANCH  11  14
ATOM     14  N   UNL     1      -0.012   1.005   0.008  0.00  0.00    -0.295 N 
ATOM     15  H   UNL     1       0.002  -0.004   0.002  0.00  0.00    +0.163 HD
ATOM     16  H   UNL     1       0.925   1.379   0.001  0.00  0.00    +0.163 HD
ENDBRANCH  11  14
ENDBRANCH   7   8
ENDBRANCH   6   7
BRANCH   3  17
ATOM     17  C   UNL     1      -0.126   8.339  -4.604  0.00  0.00    +0.181 C 
BRANCH  17  18
ATOM     18  N   UNL     1      -0.068   8.777  -6.001  0.00  0.00    -0.235 N 
ATOM     19  C   UNL     1       1.031   8.811  -6.784  0.00  0.00    +0.195 A 
ATOM     20  S   UNL     1       2.615   8.350  -6.327  0.00  0.00    -0.010 S 
ATOM     21  N   UNL     1       0.651   9.271  -7.993  0.00  0.00    -0.232 N 
ATOM     22  C   UNL     1      -0.697   9.532  -7.952  0.00  0.00    +0.242 A 
ATOM     23  N   UNL     1      -1.143   9.243  -6.771  0.00  0.00    -0.157 NA
BRANCH  21  24
ATOM     24  N   UNL     1       1.468   9.451  -9.072  0.00  0.00    -0.295 N 
ATOM     25  H   UNL     1       1.863  10.380  -9.075  0.00  0.00    +0.163 HD
ATOM     26  H   UNL     1       2.192   8.750  -9.099  0.00  0.00    +0.163 HD
ENDBRANCH  21  24
ENDBRANCH  17  18
ENDBRANCH   3  17
TORSDOF 6
