REMARK  Name = ZINC18199169
REMARK  3 active torsions:
REMARK  status: ('A' for Active; 'I' for Inactive)
REMARK    1  A    between atoms: C_5  and  C_7
REMARK    2  A    between atoms: C_9  and  C_18
REMARK    3  A    between atoms: C_10  and  N_17
REMARK                            x       y       z     vdW  Elec       q    Type
REMARK                         _______ _______ _______ _____ _____    ______ ____
ROOT
ATOM      1  C   UNL     1      -1.341   2.144   0.020  0.00  0.00    +0.150 C 
ATOM      2  C   UNL     1      -0.017   1.428   0.010  0.00  0.00    +0.093 C 
ATOM      3  C   UNL     1       1.165   2.110   0.002  0.00  0.00    +0.137 C 
ATOM      4  N   UNL     1       1.116   3.491  -0.041  0.00  0.00    -0.185 N 
ATOM      5  C   UNL     1      -0.040   4.166  -0.339  0.00  0.00    +0.220 A 
ATOM      6  N   UNL     1       0.226   5.439  -0.315  0.00  0.00    -0.201 NA
ATOM      7  C   UNL     1       1.516   5.622  -0.006  0.00  0.00    +0.247 A 
ATOM      8  N   UNL     1       2.092   4.457   0.170  0.00  0.00    -0.151 NA
ATOM      9  N   UNL     1      -1.215   3.476  -0.589  0.00  0.00    -0.302 N 
ATOM     10  H   UNL     1      -1.918   3.851  -1.142  0.00  0.00    +0.150 HD
ENDROOT
BRANCH   1  15
ATOM     11  C   UNL     1      -2.072   3.640   3.409  0.00  0.00    +0.001 A 
ATOM     12  C   UNL     1      -2.679   2.579   4.055  0.00  0.00    +0.003 A 
ATOM     13  C   UNL     1      -2.853   1.376   3.397  0.00  0.00    +0.039 A 
ATOM     14  C   UNL     1      -2.425   1.236   2.088  0.00  0.00    +0.129 A 
ATOM     15  C   UNL     1      -1.812   2.297   1.443  0.00  0.00    +0.013 A 
ATOM     16  C   UNL     1      -1.639   3.499   2.104  0.00  0.00    +0.008 A 
ATOM     17  F   UNL     1      -2.599   0.062   1.442  0.00  0.00    -0.205 F 
ENDBRANCH   1  15
BRANCH   3  18
ATOM     18  N   UNL     1       2.367   1.445   0.037  0.00  0.00    -0.342 N 
ATOM     19  H   UNL     1       2.384   0.475   0.068  0.00  0.00    +0.144 HD
ATOM     20  H   UNL     1       3.198   1.944   0.031  0.00  0.00    +0.144 HD
ENDBRANCH   3  18
BRANCH   2  21
ATOM     21  C   UNL     1       0.002  -0.004   0.002  0.00  0.00    +0.100 C 
ATOM     22  N   UNL     1       0.018  -1.140  -0.004  0.00  0.00    -0.191 NA
ENDBRANCH   2  21
TORSDOF 3
