REMARK  Name = ZINC09594496
REMARK  9 active torsions:
REMARK  status: ('A' for Active; 'I' for Inactive)
REMARK    1  A    between atoms: C_1  and  C_2
REMARK    2  A    between atoms: C_2  and  C_3
REMARK    3  A    between atoms: C_3  and  N_4
REMARK    4  A    between atoms: C_5  and  N_33
REMARK    5  A    between atoms: C_6  and  C_13
REMARK    6  A    between atoms: C_13  and  C_15
REMARK    7  A    between atoms: C_15  and  S_16
REMARK    8  A    between atoms: S_16  and  C_17
REMARK    9  A    between atoms: C_23  and  C_28
REMARK                            x       y       z     vdW  Elec       q    Type
REMARK                         _______ _______ _______ _____ _____    ______ ____
ROOT
ATOM      1  C   UNL     1       5.053   0.553   0.025  0.00  0.00    +0.157 C 
ENDROOT
BRANCH   1   2
ATOM      2  C   UNL     1       6.462   0.023  -0.030  0.00  0.00    +0.182 C 
ATOM      3  O   UNL     1       6.659  -1.176  -0.056  0.00  0.00    -0.291 OA
BRANCH   2   6
ATOM      4  N   UNL     1       9.899   1.356  -0.009  0.00  0.00    -0.281 N 
ATOM      5  C   UNL     1       8.876   0.451   0.022  0.00  0.00    +0.116 A 
ATOM      6  C   UNL     1       7.553   0.918  -0.052  0.00  0.00    +0.120 A 
ATOM      7  C   UNL     1       7.341   2.368  -0.147  0.00  0.00    +0.266 A 
ATOM      8  O   UNL     1       6.216   2.829  -0.208  0.00  0.00    -0.267 OA
ATOM      9  N   UNL     1       8.419   3.179  -0.164  0.00  0.00    -0.274 N 
ATOM     10  H   UNL     1       8.291   4.168  -0.228  0.00  0.00    +0.173 HD
ATOM     11  C   UNL     1       9.662   2.674  -0.096  0.00  0.00    +0.331 A 
ATOM     12  O   UNL     1      10.606   3.439  -0.115  0.00  0.00    -0.246 OA
BRANCH   5  13
ATOM     13  N   UNL     1       9.135  -0.882   0.116  0.00  0.00    -0.344 N 
ATOM     14  H   UNL     1       8.410  -1.522   0.050  0.00  0.00    +0.144 HD
ATOM     15  H   UNL     1      10.044  -1.191   0.250  0.00  0.00    +0.144 HD
ENDBRANCH   5  13
BRANCH   4  16
ATOM     16  C   UNL     1      11.282   0.878   0.061  0.00  0.00    +0.128 C 
BRANCH  16  18
ATOM     17  C   UNL     1      13.166   0.302   1.598  0.00  0.00    +0.005 C 
ATOM     18  C   UNL     1      11.721   0.800   1.525  0.00  0.00    +0.018 C 
ENDBRANCH  16  18
ENDBRANCH   4  16
ENDBRANCH   2   6
ENDBRANCH   1   2
BRANCH   1  19
ATOM     19  S   UNL     1       3.887  -0.832   0.042  0.00  0.00    -0.080 S 
BRANCH  19  20
ATOM     20  C   UNL     1       2.364   0.051   0.106  0.00  0.00    +0.170 A 
ATOM     21  N   UNL     1       1.186  -0.638   0.134  0.00  0.00    -0.301 N 
ATOM     22  H   UNL     1       1.201  -1.607   0.118  0.00  0.00    +0.171 HD
ATOM     23  C   UNL     1       0.004   0.003   0.183  0.00  0.00    +0.261 A 
ATOM     24  O   UNL     1      -1.039  -0.627   0.206  0.00  0.00    -0.267 OA
ATOM     25  C   UNL     1      -0.013   1.431   0.206  0.00  0.00    +0.080 A 
ATOM     26  C   UNL     1      -1.157   2.339   0.252  0.00  0.00    +0.010 A 
ATOM     27  C   UNL     1      -0.928   3.674   0.271  0.00  0.00    +0.057 A 
ATOM     28  S   UNL     1       0.850   3.790   0.215  0.00  0.00    -0.076 S 
ATOM     29  C   UNL     1       1.243   2.061   0.174  0.00  0.00    +0.117 A 
ATOM     30  N   UNL     1       2.376   1.369   0.127  0.00  0.00    -0.216 NA
BRANCH  26  31
ATOM     31  C   UNL     1      -2.537   1.811   0.281  0.00  0.00    +0.021 A 
ATOM     32  C   UNL     1      -3.562   2.123   1.133  0.00  0.00    +0.016 A 
ATOM     33  C   UNL     1      -4.779   1.496   0.964  0.00  0.00    +0.008 A 
ATOM     34  C   UNL     1      -4.919   0.584  -0.031  0.00  0.00    +0.046 A 
ATOM     35  S   UNL     1      -3.298   0.593  -0.779  0.00  0.00    -0.097 S 
ENDBRANCH  26  31
ENDBRANCH  19  20
ENDBRANCH   1  19
TORSDOF 8
