REMARK  Name = ZINC16525299
REMARK  4 active torsions:
REMARK  status: ('A' for Active; 'I' for Inactive)
REMARK    1  A    between atoms: C_8  and  C_10
REMARK    2  A    between atoms: C_10  and  O_12
REMARK    3  A    between atoms: O_12  and  N_13
REMARK    4  A    between atoms: C_14  and  C_15
REMARK                            x       y       z     vdW  Elec       q    Type
REMARK                         _______ _______ _______ _____ _____    ______ ____
ROOT
ATOM      1  O   UNL     1       2.690   7.917   0.460  0.00  0.00    -0.310 OA
ENDROOT
BRANCH   1   2
ATOM      2  N   UNL     1       3.519   8.808   0.508  0.00  0.00    -0.057 NA
ATOM      3  C   UNL     1       3.177  10.030   0.219  0.00  0.00    +0.188 C 
ATOM      4  N   UNL     1       4.118  11.043   0.274  0.00  0.00    -0.339 N 
ATOM      5  H   UNL     1       5.054  10.829   0.411  0.00  0.00    +0.144 HD
ATOM      6  H   UNL     1       3.841  11.967   0.174  0.00  0.00    +0.144 HD
BRANCH   3   7
ATOM      7  C   UNL     1       1.780  10.337  -0.167  0.00  0.00    +0.191 A 
ATOM      8  C   UNL     1       1.213  11.614  -0.657  0.00  0.00    +0.191 A 
ATOM      9  N   UNL     1      -0.051  11.313  -0.843  0.00  0.00    -0.033 NA
ATOM     10  O   UNL     1      -0.237  10.157  -0.542  0.00  0.00    -0.240 OA
ATOM     11  N   UNL     1       0.730   9.544  -0.157  0.00  0.00    -0.044 NA
ATOM     12  N   UNL     1       1.857  12.826  -0.869  0.00  0.00    -0.339 N 
ATOM     13  H   UNL     1       2.825  12.875  -0.829  0.00  0.00    +0.144 HD
ATOM     14  H   UNL     1       1.339  13.624  -1.057  0.00  0.00    +0.144 HD
ENDBRANCH   3   7
ENDBRANCH   1   2
BRANCH   1  15
ATOM     15  C   UNL     1       3.110   6.674   0.770  0.00  0.00    +0.374 C 
ATOM     16  O   UNL     1       4.271   6.484   1.081  0.00  0.00    -0.242 OA
BRANCH  15  24
ATOM     17  C   UNL     1       0.279   1.145   1.023  0.00  0.00    +0.001 A 
ATOM     18  C   UNL     1      -0.937   1.694   0.634  0.00  0.00    +0.001 A 
ATOM     19  C   UNL     1      -1.024   3.050   0.392  0.00  0.00    +0.016 A 
ATOM     20  C   UNL     1       0.099   3.838   0.528  0.00  0.00    +0.022 A 
ATOM     21  C   UNL     1       1.351   3.306   0.917  0.00  0.00    +0.008 A 
ATOM     22  C   UNL     1       1.393   1.909   1.162  0.00  0.00    +0.010 A 
ATOM     23  C   UNL     1       2.401   4.239   1.011  0.00  0.00    +0.070 A 
ATOM     24  C   UNL     1       2.167   5.551   0.734  0.00  0.00    +0.118 A 
ATOM     25  S   UNL     1       0.433   5.569   0.317  0.00  0.00    -0.080 S 
ATOM     26 CL   UNL     1       3.989   3.717   1.478  0.00  0.00    -0.082 Cl
ENDBRANCH  15  24
ENDBRANCH   1  15
TORSDOF 4
