REMARK  Name = ZINC40621328
REMARK  7 active torsions:
REMARK  status: ('A' for Active; 'I' for Inactive)
REMARK    1  A    between atoms: C_1  and  C_2
REMARK    2  A    between atoms: C_2  and  C_3
REMARK    3  A    between atoms: C_2  and  N_4
REMARK    4  A    between atoms: C_7  and  C_10
REMARK    5  A    between atoms: C_10  and  N_11
REMARK    6  A    between atoms: N_11  and  S_12
REMARK    7  A    between atoms: S_12  and  C_15
REMARK                            x       y       z     vdW  Elec       q    Type
REMARK                         _______ _______ _______ _____ _____    ______ ____
ROOT
ATOM      1  N   UNL     1       3.113  -3.581  -3.706  0.00  0.00    -0.190 NA
ATOM      2  H   UNL     1       3.937  -3.184  -3.382  0.00  0.00    +0.148 HD
ENDROOT
BRANCH   1   3
ATOM      3  S   UNL     1       3.162  -4.743  -4.885  0.00  0.00    +0.063 S 
ATOM      4  O   UNL     1       4.530  -4.919  -5.225  0.00  0.00    -0.153 OA
ATOM      5  O   UNL     1       2.346  -5.815  -4.432  0.00  0.00    -0.153 OA
BRANCH   3   6
ATOM      6  C   UNL     1       2.370  -4.074  -6.309  0.00  0.00    +0.164 A 
ATOM      7  C   UNL     1       2.958  -3.815  -7.499  0.00  0.00    +0.135 A 
ATOM      8  N   UNL     1       2.017  -3.312  -8.325  0.00  0.00    -0.281 N 
ATOM      9  H   UNL     1       2.155  -3.036  -9.245  0.00  0.00    +0.188 HD
ATOM     10  N   UNL     1       0.806  -3.258  -7.623  0.00  0.00    -0.157 NA
ATOM     11  C   UNL     1       1.015  -3.721  -6.413  0.00  0.00    +0.164 A 
ATOM     12  N   UNL     1       0.054  -3.840  -5.401  0.00  0.00    -0.340 N 
ATOM     13  H   UNL     1       0.305  -4.194  -4.534  0.00  0.00    +0.144 HD
ATOM     14  H   UNL     1      -0.862  -3.569  -5.568  0.00  0.00    +0.144 HD
ENDBRANCH   3   6
ENDBRANCH   1   3
BRANCH   1  15
ATOM     15  C   UNL     1       1.826  -3.150  -3.155  0.00  0.00    +0.107 C 
BRANCH  15  19
ATOM     16  N   UNL     1       0.690  -0.478  -1.207  0.00  0.00    +0.381 N 
ATOM     17  C   UNL     1       2.111  -0.045  -1.190  0.00  0.00    -0.078 C 
ATOM     18  C   UNL     1       2.796  -1.044  -2.156  0.00  0.00    -0.016 C 
ATOM     19  C   UNL     1       2.062  -2.372  -1.859  0.00  0.00    -0.014 C 
ATOM     20  C   UNL     1       0.719  -1.956  -1.230  0.00  0.00    -0.074 C 
ATOM     21  H   UNL     1       0.227  -0.126  -2.031  0.00  0.00    -0.081 HD
BRANCH  16  23
ATOM     22  C   UNL     1      -0.019   1.526   0.010  0.00  0.00    -0.014 C 
ATOM     23  C   UNL     1       0.002  -0.004   0.002  0.00  0.00    -0.075 C 
ATOM     24  C   UNL     1      -1.433  -0.534   0.013  0.00  0.00    -0.014 C 
ENDBRANCH  16  23
ENDBRANCH  15  19
ENDBRANCH   1  15
TORSDOF 5
