REMARK  Name = ZINC65260032
REMARK  5 active torsions:
REMARK  status: ('A' for Active; 'I' for Inactive)
REMARK    1  A    between atoms: C_1  and  C_2
REMARK    2  A    between atoms: C_4  and  S_8
REMARK    3  A    between atoms: N_6  and  C_7
REMARK    4  A    between atoms: S_8  and  N_11
REMARK    5  A    between atoms: N_26  and  C_27
REMARK                            x       y       z     vdW  Elec       q    Type
REMARK                         _______ _______ _______ _____ _____    ______ ____
ROOT
ATOM      1  N   UNL     1      -0.672  -2.993  -3.285  0.00  0.00    -0.173 NA
ATOM      2  C   UNL     1      -2.139  -3.045  -3.347  0.00  0.00    +0.110 C 
ATOM      3  C   UNL     1      -2.662  -1.687  -3.825  0.00  0.00    +0.020 C 
ATOM      4  C   UNL     1      -1.993  -1.326  -5.154  0.00  0.00    +0.036 C 
ATOM      5  C   UNL     1      -0.482  -1.230  -4.959  0.00  0.00    +0.100 C 
ATOM      6  C   UNL     1       0.070  -2.567  -4.481  0.00  0.00    +0.142 C 
ATOM      7  C   UNL     1       0.177  -0.846  -6.267  0.00  0.00    +0.098 C 
ATOM      8  N   UNL     1      -0.039   0.447  -6.711  0.00  0.00    -0.301 N 
ATOM      9  C   UNL     1      -0.070   1.469  -5.748  0.00  0.00    +0.053 A 
ATOM     10  C   UNL     1      -0.026   2.796  -6.147  0.00  0.00    +0.025 A 
ATOM     11  C   UNL     1      -0.064   3.803  -5.200  0.00  0.00    +0.002 A 
ATOM     12  C   UNL     1      -0.147   3.491  -3.856  0.00  0.00    +0.002 A 
ATOM     13  C   UNL     1      -0.189   2.170  -3.449  0.00  0.00    +0.025 A 
ATOM     14  C   UNL     1      -0.147   1.153  -4.392  0.00  0.00    +0.049 A 
ATOM     15  N   UNL     1      -0.169  -0.185  -3.975  0.00  0.00    -0.329 N 
ATOM     16  N   UNL     1       0.905  -1.682  -6.934  0.00  0.00    -0.372 N 
ATOM     17  H   UNL     1       0.018  -0.418  -3.052  0.00  0.00    +0.147 HD
ATOM     18  H   UNL     1       1.040  -2.582  -6.599  0.00  0.00    +0.161 HD
ATOM     19  H   UNL     1      -0.164   0.640  -7.653  0.00  0.00    +0.153 HD
ENDROOT
BRANCH  16  20
ATOM     20  C   UNL     1       1.525  -1.269  -8.196  0.00  0.00    +0.080 C 
ATOM     21  C   UNL     1       0.553  -1.516  -9.368  0.00  0.00    +0.024 C 
ATOM     22  C   UNL     1       1.467  -1.981 -10.528  0.00  0.00    +0.002 C 
ATOM     23  C   UNL     1       2.517  -2.860  -9.805  0.00  0.00    +0.002 C 
ATOM     24  C   UNL     1       2.774  -2.124  -8.474  0.00  0.00    +0.024 C 
ENDBRANCH  16  20
BRANCH   1  25
ATOM     25  S   UNL     1       0.130  -3.399  -1.894  0.00  0.00    +0.080 S 
ATOM     26  O   UNL     1      -0.822  -3.326  -0.841  0.00  0.00    -0.151 OA
ATOM     27  O   UNL     1       1.335  -2.646  -1.885  0.00  0.00    -0.151 OA
BRANCH  25  31
ATOM     28  C   UNL     1       0.228  -8.445  -3.348  0.00  0.00    +0.086 C 
ATOM     29  C   UNL     1       0.602  -7.159  -2.658  0.00  0.00    +0.109 A 
ATOM     30  N   UNL     1      -0.010  -6.014  -2.800  0.00  0.00    -0.213 NA
ATOM     31  C   UNL     1       0.595  -5.092  -2.036  0.00  0.00    +0.212 A 
ATOM     32  C   UNL     1       1.620  -5.688  -1.397  0.00  0.00    +0.135 A 
ATOM     33  N   UNL     1       1.621  -7.000  -1.787  0.00  0.00    -0.336 N 
ATOM     34  C   UNL     1       2.556  -8.037  -1.345  0.00  0.00    +0.150 C 
ENDBRANCH  25  31
ENDBRANCH   1  25
TORSDOF 3
