REMARK  Name = ZINC00381265
REMARK  4 active torsions:
REMARK  status: ('A' for Active; 'I' for Inactive)
REMARK    1  A    between atoms: C_3  and  C_6
REMARK    2  A    between atoms: N_8  and  N_9
REMARK    3  A    between atoms: C_10  and  C_11
REMARK    4  A    between atoms: C_16  and  O_17
REMARK                            x       y       z     vdW  Elec       q    Type
REMARK                         _______ _______ _______ _____ _____    ______ ____
ROOT
ATOM      1  N   UNL     1       2.386  -2.785  -0.036  0.00  0.00    -0.187 NA
ATOM      2  C   UNL     1       1.250  -2.157  -0.022  0.00  0.00    +0.142 C 
ENDROOT
BRANCH   2   3
ATOM      3  C   UNL     1       1.222  -0.683  -0.013  0.00  0.00    +0.037 A 
ATOM      4  C   UNL     1       0.002  -0.004   0.002  0.00  0.00    +0.028 A 
ATOM      5  C   UNL     1      -0.017   1.376   0.010  0.00  0.00    +0.019 A 
ATOM      6  C   UNL     1       1.170   2.090   0.002  0.00  0.00    +0.019 A 
ATOM      7  C   UNL     1       2.384   1.429  -0.013  0.00  0.00    +0.047 A 
ATOM      8  C   UNL     1       2.420   0.044  -0.021  0.00  0.00    +0.126 A 
ATOM      9 BR   UNL     1      -1.669   2.295   0.022  0.00  0.00    -0.050 Br
BRANCH   8  10
ATOM     10  O   UNL     1       3.613  -0.607  -0.036  0.00  0.00    -0.506 OA
ATOM     11  H   UNL     1       3.949  -0.790  -0.924  0.00  0.00    +0.292 HD
ENDBRANCH   8  10
ENDBRANCH   2   3
BRANCH   1  14
ATOM     12  C   UNL     1       3.592  -4.837  -0.059  0.00  0.00    +0.299 C 
ATOM     13  O   UNL     1       4.635  -4.209  -0.066  0.00  0.00    -0.265 OA
ATOM     14  N   UNL     1       2.413  -4.185  -0.044  0.00  0.00    -0.200 N 
ATOM     15  H   UNL     1       1.582  -4.686  -0.040  0.00  0.00    +0.178 HD
BRANCH  12  18
ATOM     16  C   UNL     1       4.301  -8.418  -0.086  0.00  0.00    +0.042 A 
ATOM     17  C   UNL     1       4.740  -7.085  -0.083  0.00  0.00    +0.054 A 
ATOM     18  C   UNL     1       3.620  -6.303  -0.068  0.00  0.00    +0.191 A 
ATOM     19  O   UNL     1       2.543  -7.116  -0.057  0.00  0.00    -0.458 OA
ATOM     20  C   UNL     1       2.950  -8.392  -0.074  0.00  0.00    +0.196 A 
ENDBRANCH  12  18
ENDBRANCH   1  14
TORSDOF 4
