REMARK  Name = ZINC33764918
REMARK  10 active torsions:
REMARK  status: ('A' for Active; 'I' for Inactive)
REMARK    1  A    between atoms: C_1  and  N_2
REMARK    2  A    between atoms: N_2  and  C_3
REMARK    3  A    between atoms: N_2  and  C_4
REMARK    4  A    between atoms: C_7  and  C_10
REMARK    5  A    between atoms: N_11  and  N_12
REMARK    6  A    between atoms: N_17  and  C1*_18
REMARK    7  A    between atoms: C2*_20  and  O2*_30
REMARK    8  A    between atoms: C3*_22  and  O3*_29
REMARK    9  A    between atoms: C4*_24  and  C5*_27
REMARK   10  A    between atoms: C5*_27  and  O5*_28
REMARK                            x       y       z     vdW  Elec       q    Type
REMARK                         _______ _______ _______ _____ _____    ______ ____
ROOT
ATOM      1  N   UNL     1      -2.296   5.626   0.474  0.00  0.00    -0.206 N 
ATOM      2  C   UNL     1      -3.495   6.314   0.482  0.00  0.00    +0.220 A 
ATOM      3  N   UNL     1      -3.620   7.618   0.507  0.00  0.00    -0.206 NA
ATOM      4  C   UNL     1      -4.939   7.937   0.503  0.00  0.00    +0.174 A 
ATOM      5  C   UNL     1      -5.656   6.748   0.473  0.00  0.00    +0.173 A 
ATOM      6  N   UNL     1      -4.737   5.739   0.464  0.00  0.00    -0.266 N 
ATOM      7  N   UNL     1      -7.027   6.802   0.460  0.00  0.00    -0.196 NA
ATOM      8  H   UNL     1      -7.591  10.091   0.503  0.00  0.00    +0.172 HD
ATOM      9  C   UNL     1      -7.670   7.998   0.471  0.00  0.00    +0.195 A 
ATOM     10  N   UNL     1      -7.029   9.146   0.494  0.00  0.00    -0.293 N 
ATOM     11  C   UNL     1      -5.687   9.196   0.508  0.00  0.00    +0.280 A 
ATOM     12  O   UNL     1      -5.103  10.269   0.530  0.00  0.00    -0.265 OA
ATOM     13  N   UNL     1      -9.040   8.009   0.458  0.00  0.00    -0.329 N 
ATOM     14  H   UNL     1      -1.495   5.909   1.173  0.00  0.00    +0.177 HD
ATOM     15  H   UNL     1      -9.598   7.061   0.439  0.00  0.00    +0.145 HD
ATOM     16  H   UNL     1      -9.583   8.966   0.467  0.00  0.00    +0.145 HD
ENDROOT
BRANCH   6  17
ATOM     17  C1* UNL     1      -5.028   4.304   0.438  0.00  0.00    +0.255 C 
ATOM     18  C2* UNL     1      -4.709   3.666   1.809  0.00  0.00    +0.195 C 
ATOM     19  C3* UNL     1      -4.128   2.279   1.452  0.00  0.00    +0.178 C 
ATOM     20  C4* UNL     1      -4.165   2.243  -0.092  0.00  0.00    +0.177 C 
ATOM     21  O4* UNL     1      -4.154   3.631  -0.494  0.00  0.00    -0.346 OA
BRANCH  19  22
ATOM     22  O3* UNL     1      -2.785   2.160   1.924  0.00  0.00    -0.386 OA
ATOM     23  H3* UNL     1      -2.222   1.230   1.752  0.00  0.00    +0.210 HD
ENDBRANCH  19  22
BRANCH  18  24
ATOM     24  O2* UNL     1      -3.742   4.448   2.512  0.00  0.00    -0.385 OA
ATOM     25  H2* UNL     1      -3.401   4.134   3.510  0.00  0.00    +0.210 HD
ENDBRANCH  18  24
BRANCH  20  26
ATOM     26  C5* UNL     1      -2.932   1.520  -0.640  0.00  0.00    +0.190 C 
BRANCH  26  27
ATOM     27  O5* UNL     1      -2.979   1.514  -2.068  0.00  0.00    -0.392 OA
ATOM     28  H5* UNL     1      -2.172   1.036  -2.642  0.00  0.00    +0.210 HD
ENDBRANCH  26  27
ENDBRANCH  20  26
ENDBRANCH   6  17
BRANCH   1  30
ATOM     29  C   UNL     1      -0.996   3.886  -0.392  0.00  0.00    +0.138 C 
ATOM     30  N   UNL     1      -2.101   4.567  -0.423  0.00  0.00    -0.188 NA
BRANCH  29  34
ATOM     31  C   UNL     1       1.474   3.999   3.059  0.00  0.00    +0.029 A 
ATOM     32  C   UNL     1       2.009   3.610   1.836  0.00  0.00    +0.024 A 
ATOM     33  C   UNL     1       1.209   3.567   0.715  0.00  0.00    +0.011 A 
ATOM     34  C   UNL     1      -0.139   3.925   0.806  0.00  0.00    -0.005 A 
ATOM     35  C   UNL     1      -0.671   4.320   2.036  0.00  0.00    +0.011 A 
ATOM     36  C   UNL     1       0.133   4.356   3.154  0.00  0.00    +0.024 A 
BRANCH  31  38
ATOM     37  C   UNL     1       1.758   4.564   5.455  0.00  0.00    +0.129 C 
ATOM     38  N   UNL     1       2.286   4.037   4.194  0.00  0.00    -0.336 N 
ATOM     39  C   UNL     1       3.665   3.549   4.124  0.00  0.00    +0.129 C 
ENDBRANCH  31  38
ENDBRANCH  29  34
ENDBRANCH   1  30
TORSDOF 8
