REMARK  Name = ZINC32812694
REMARK  8 active torsions:
REMARK  status: ('A' for Active; 'I' for Inactive)
REMARK    1  A    between atoms: C_1  and  C_2
REMARK    2  A    between atoms: C_5  and  C_8
REMARK    3  A    between atoms: C_10  and  C_20
REMARK    4  A    between atoms: C_11  and  C_19
REMARK    5  A    between atoms: N_12  and  C_16
REMARK    6  A    between atoms: C_16  and  C_17
REMARK    7  A    between atoms: C_20  and  O_22
REMARK    8  A    between atoms: O_22  and  C_23
REMARK                            x       y       z     vdW  Elec       q    Type
REMARK                         _______ _______ _______ _____ _____    ______ ____
ROOT
ATOM      1  C   UNL     1       0.042  -4.143  -0.133  0.00  0.00    +0.143 C 
ATOM      2  C   UNL     1      -1.388  -4.466  -0.516  0.00  0.00    +0.078 C 
ATOM      3  C   UNL     1      -1.588  -5.407  -1.464  0.00  0.00    +0.024 C 
ATOM      4  N   UNL     1      -0.535  -6.045  -2.056  0.00  0.00    -0.255 N 
ATOM      5  C   UNL     1       0.746  -5.799  -1.757  0.00  0.00    +0.307 C 
ATOM      6  O   UNL     1       1.615  -6.418  -2.339  0.00  0.00    -0.252 OA
ATOM      7  N   UNL     1       1.104  -4.887  -0.831  0.00  0.00    -0.288 N 
ATOM      8  C   UNL     1      -2.994  -5.759  -1.874  0.00  0.00    +0.061 C 
ATOM      9  H   UNL     1       2.160  -4.692  -0.593  0.00  0.00    +0.151 HD
ENDROOT
BRANCH   1  14
ATOM     10  C   UNL     1       0.904   1.494  -1.069  0.00  0.00    +0.044 C 
ATOM     11  C   UNL     1       0.680   0.024  -0.825  0.00  0.00    -0.050 A 
ATOM     12  C   UNL     1       0.723  -0.867  -1.881  0.00  0.00    +0.004 A 
ATOM     13  C   UNL     1       0.522  -2.216  -1.657  0.00  0.00    +0.006 A 
ATOM     14  C   UNL     1       0.267  -2.673  -0.377  0.00  0.00    -0.022 A 
ATOM     15  C   UNL     1       0.219  -1.782   0.678  0.00  0.00    +0.006 A 
ATOM     16  C   UNL     1       0.425  -0.433   0.455  0.00  0.00    +0.004 A 
ENDBRANCH   1  14
BRANCH   2  17
ATOM     17  C   UNL     1      -2.477  -3.804   0.099  0.00  0.00    +0.339 C 
ATOM     18  O   UNL     1      -3.610  -4.001  -0.297  0.00  0.00    -0.245 OA
BRANCH  17  19
ATOM     19  O   UNL     1      -2.258  -2.955   1.124  0.00  0.00    -0.465 OA
ATOM     20  C   UNL     1      -3.404  -2.321   1.697  0.00  0.00    +0.280 C 
ENDBRANCH  17  19
ENDBRANCH   2  17
BRANCH   4  21
ATOM     21  C   UNL     1      -0.825  -7.055  -3.077  0.00  0.00    +0.141 C 
BRANCH  21  22
ATOM     22  C   UNL     1      -1.019  -6.380  -4.411  0.00  0.00    -0.015 C 
ATOM     23  C   UNL     1      -0.301  -6.750  -5.442  0.00  0.00    +0.005 C 
ENDBRANCH  21  22
ENDBRANCH   4  21
TORSDOF 5
