REMARK  Name = ZINC49306461
REMARK  10 active torsions:
REMARK  status: ('A' for Active; 'I' for Inactive)
REMARK    1  A    between atoms: C_1  and  C_2
REMARK    2  A    between atoms: C_4  and  N_21
REMARK    3  A    between atoms: C_6  and  C_7
REMARK    4  A    between atoms: N_9  and  C_10
REMARK    5  A    between atoms: C_17  and  C_19
REMARK    6  A    between atoms: C_17  and  C_20
REMARK    7  A    between atoms: C_22  and  C_24
REMARK    8  A    between atoms: C_24  and  C_25
REMARK    9  A    between atoms: C_24  and  C_26
REMARK   10  A    between atoms: C_24  and  C_27
REMARK                            x       y       z     vdW  Elec       q    Type
REMARK                         _______ _______ _______ _____ _____    ______ ____
ROOT
ATOM      1  C   UNL     1      -0.139  -0.281   2.574  0.00  0.00    +0.255 C 
ATOM      2  O   UNL     1      -0.309   0.898   2.831  0.00  0.00    -0.269 OA
ATOM      3  N   UNL     1       0.052  -1.167   3.571  0.00  0.00    -0.281 N 
ATOM      4  H   UNL     1       0.112  -2.115   3.373  0.00  0.00    +0.155 HD
ENDROOT
BRANCH   3   5
ATOM      5  C   UNL     1       0.165  -0.720   4.894  0.00  0.00    +0.037 A 
ATOM      6  C   UNL     1      -0.311  -1.505   5.935  0.00  0.00    +0.027 A 
ATOM      7  C   UNL     1      -0.201  -1.065   7.240  0.00  0.00    +0.051 A 
ATOM      8  C   UNL     1       0.384   0.161   7.513  0.00  0.00    +0.167 A 
ATOM      9  C   UNL     1       0.863   0.951   6.471  0.00  0.00    +0.169 A 
ATOM     10  C   UNL     1       0.757   0.506   5.163  0.00  0.00    +0.073 A 
ATOM     11  O   UNL     1       1.388   2.096   6.997  0.00  0.00    -0.448 OA
ATOM     12  C   UNL     1       0.858   2.184   8.333  0.00  0.00    +0.248 C 
ATOM     13  O   UNL     1       0.610   0.812   8.693  0.00  0.00    -0.448 OA
ATOM     14  C   UNL     1       1.886   2.810   9.278  0.00  0.00    +0.104 C 
ATOM     15  C   UNL     1      -0.444   2.987   8.343  0.00  0.00    +0.104 C 
ENDBRANCH   3   5
BRANCH   1  21
ATOM     16  C   UNL     1      -0.550   1.498   0.057  0.00  0.00    +0.045 C 
ATOM     17  C   UNL     1      -0.318   0.009   0.025  0.00  0.00    -0.029 A 
ATOM     18  C   UNL     1      -0.264  -0.693  -1.151  0.00  0.00    +0.035 A 
ATOM     19  C   UNL     1      -0.049  -2.050  -1.099  0.00  0.00    +0.073 A 
ATOM     20  S   UNL     1       0.081  -2.381   0.543  0.00  0.00    -0.069 S 
ATOM     21  C   UNL     1      -0.141  -0.733   1.185  0.00  0.00    +0.079 A 
BRANCH  19  22
ATOM     22  N   UNL     1       0.040  -2.943  -2.160  0.00  0.00    -0.280 N 
ATOM     23  C   UNL     1       0.256  -4.252  -1.923  0.00  0.00    +0.223 C 
ATOM     24  O   UNL     1       0.373  -4.651  -0.784  0.00  0.00    -0.275 OA
ATOM     25  H   UNL     1      -0.053  -2.624  -3.071  0.00  0.00    +0.155 HD
BRANCH  23  26
ATOM     26  C   UNL     1       0.353  -5.220  -3.074  0.00  0.00    +0.039 C 
ATOM     27  C   UNL     1       0.599  -6.630  -2.535  0.00  0.00    +0.020 C 
ATOM     28  C   UNL     1      -0.955  -5.199  -3.869  0.00  0.00    +0.020 C 
ATOM     29  C   UNL     1       1.511  -4.813  -3.987  0.00  0.00    +0.020 C 
ENDBRANCH  23  26
ENDBRANCH  19  22
ENDBRANCH   1  21
TORSDOF 4
