REMARK  Name = ZINC12711550
REMARK  14 active torsions:
REMARK  status: ('A' for Active; 'I' for Inactive)
REMARK    1  A    between atoms: C_1  and  C_2
REMARK    2  A    between atoms: C_5  and  O_29
REMARK    3  A    between atoms: C_6  and  N_8
REMARK    4  A    between atoms: N_8  and  C_9
REMARK    5  A    between atoms: C_9  and  C_10
REMARK    6  A    between atoms: N_12  and  C_13
REMARK    7  A    between atoms: C_13  and  C_14
REMARK    8  A    between atoms: C_14  and  C_15
REMARK    9  A    between atoms: C_15  and  C_16
REMARK   10  A    between atoms: C_15  and  C_17
REMARK   11  A    between atoms: C_18  and  C_20
REMARK   12  A    between atoms: C_21  and  N_28
REMARK   13  A    between atoms: C_22  and  C_25
REMARK   14  A    between atoms: O_29  and  C_30
REMARK                            x       y       z     vdW  Elec       q    Type
REMARK                         _______ _______ _______ _____ _____    ______ ____
ROOT
ATOM      1  N   UNL     1       2.404   1.390  -0.013  0.00  0.00    -0.255 N 
ATOM      2  C   UNL     1       2.982   1.069  -1.187  0.00  0.00    +0.261 C 
ATOM      3  O   UNL     1       4.046   0.478  -1.200  0.00  0.00    -0.269 OA
ENDROOT
BRANCH   1   9
ATOM      4  C   UNL     1      -0.081   5.633   0.033  0.00  0.00    +0.044 C 
ATOM      5  C   UNL     1      -0.055   4.126   0.025  0.00  0.00    -0.048 A 
ATOM      6  C   UNL     1      -1.242   3.416   0.032  0.00  0.00    +0.007 A 
ATOM      7  C   UNL     1      -1.224   2.034   0.019  0.00  0.00    +0.048 A 
ATOM      8  C   UNL     1      -0.016   1.356   0.009  0.00  0.00    +0.141 A 
ATOM      9  C   UNL     1       1.179   2.070   0.002  0.00  0.00    +0.079 A 
ATOM     10  C   UNL     1       1.154   3.457   0.010  0.00  0.00    +0.030 A 
BRANCH   8  11
ATOM     11  O   UNL     1       0.002  -0.004   0.002  0.00  0.00    -0.493 OA
ATOM     12  C   UNL     1      -1.262  -0.670   0.011  0.00  0.00    +0.277 C 
ENDBRANCH   8  11
ENDBRANCH   1   9
BRANCH   2  13
ATOM     13  C   UNL     1       2.330   1.431  -2.447  0.00  0.00    +0.116 A 
ATOM     14  C   UNL     1       2.749   1.198  -3.759  0.00  0.00    +0.076 A 
ATOM     15  C   UNL     1       1.850   1.697  -4.702  0.00  0.00    +0.155 A 
ATOM     16  N   UNL     1       0.758   2.304  -4.293  0.00  0.00    -0.203 NA
ATOM     17  S   UNL     1       0.788   2.279  -2.717  0.00  0.00    +0.019 S 
BRANCH  15  18
ATOM     18  C   UNL     1       2.123   1.546  -6.143  0.00  0.00    +0.262 C 
ATOM     19  O   UNL     1       3.136   0.984  -6.515  0.00  0.00    -0.269 OA
ATOM     20  N   UNL     1       1.250   2.030  -7.049  0.00  0.00    -0.324 N 
ATOM     21  H   UNL     1       0.443   2.479  -6.753  0.00  0.00    +0.145 HD
ATOM     22  H   UNL     1       1.430   1.931  -7.997  0.00  0.00    +0.145 HD
ENDBRANCH  15  18
BRANCH  14  23
ATOM     23  N   UNL     1       3.928   0.543  -4.088  0.00  0.00    -0.355 N 
ATOM     24  H   UNL     1       4.514   0.218  -3.386  0.00  0.00    +0.142 HD
ATOM     25  H   UNL     1       4.166   0.411  -5.019  0.00  0.00    +0.142 HD
ENDBRANCH  14  23
ENDBRANCH   2  13
BRANCH   1  26
ATOM     26  C   UNL     1       3.056   1.028   1.248  0.00  0.00    +0.209 C 
BRANCH  26  27
ATOM     27  C   UNL     1       2.590  -0.338   1.680  0.00  0.00    +0.231 C 
ATOM     28  O   UNL     1       1.791  -0.949   1.002  0.00  0.00    -0.274 OA
ATOM     29  N   UNL     1       3.060  -0.881   2.821  0.00  0.00    -0.314 N 
ATOM     30  H   UNL     1       3.699  -0.392   3.363  0.00  0.00    +0.149 HD
BRANCH  29  31
ATOM     31  C   UNL     1       2.607  -2.209   3.241  0.00  0.00    +0.104 C 
BRANCH  31  32
ATOM     32  C   UNL     1       3.288  -2.587   4.558  0.00  0.00    +0.022 C 
BRANCH  32  33
ATOM     33  C   UNL     1       2.815  -3.974   4.997  0.00  0.00    -0.016 C 
ATOM     34  C   UNL     1       3.587  -4.405   6.245  0.00  0.00    +0.007 C 
ATOM     35  C   UNL     1       1.319  -3.926   5.314  0.00  0.00    +0.007 C 
ENDBRANCH  32  33
ENDBRANCH  31  32
ENDBRANCH  29  31
ENDBRANCH  26  27
ENDBRANCH   1  26
TORSDOF 10
