REMARK  Name = ZINC20199056
REMARK  6 active torsions:
REMARK  status: ('A' for Active; 'I' for Inactive)
REMARK    1  A    between atoms: C_4  and  N_10
REMARK    2  A    between atoms: C_6  and  N_7
REMARK    3  A    between atoms: C_11  and  C_13
REMARK    4  A    between atoms: C_13  and  C_14
REMARK    5  A    between atoms: C_14  and  C_15
REMARK    6  A    between atoms: C_15  and  C_16
REMARK                            x       y       z     vdW  Elec       q    Type
REMARK                         _______ _______ _______ _____ _____    ______ ____
ROOT
ATOM      1  C   UNL     1       0.919  -4.817  -0.892  0.00  0.00    +0.034 A 
ATOM      2  C   UNL     1       1.922  -4.062  -1.472  0.00  0.00    +0.024 A 
ATOM      3  C   UNL     1       1.815  -2.685  -1.516  0.00  0.00    +0.062 A 
ATOM      4  C   UNL     1       0.697  -2.059  -0.976  0.00  0.00    +0.054 A 
ATOM      5  C   UNL     1      -0.305  -2.820  -0.389  0.00  0.00    +0.057 A 
ATOM      6  C   UNL     1      -0.194  -4.197  -0.354  0.00  0.00    +0.128 A 
ATOM      7 CL   UNL     1       3.074  -1.738  -2.244  0.00  0.00    -0.082 Cl
ENDROOT
BRANCH   4   8
ATOM      8  N   UNL     1       0.585  -0.664  -1.018  0.00  0.00    -0.284 N 
ATOM      9  C   UNL     1      -0.004  -0.005  -0.001  0.00  0.00    +0.217 C 
ATOM     10  O   UNL     1      -0.508  -0.623   0.912  0.00  0.00    -0.275 OA
ATOM     11  H   UNL     1       0.978  -0.107  -1.881  0.00  0.00    +0.155 HD
BRANCH   9  12
ATOM     12  C   UNL     1      -0.035   1.502   0.002  0.00  0.00    +0.096 C 
BRANCH  12  13
ATOM     13  C   UNL     1      -0.756   1.995   1.258  0.00  0.00    +0.010 C 
BRANCH  13  14
ATOM     14  C   UNL     1      -0.787   3.525   1.261  0.00  0.00    +0.016 C 
BRANCH  14  15
ATOM     15  C   UNL     1      -1.508   4.017   2.518  0.00  0.00    +0.109 C 
ATOM     16 CL   UNL     1      -1.545   5.820   2.521  0.00  0.00    -0.125 Cl
ENDBRANCH  14  15
ENDBRANCH  13  14
ENDBRANCH  12  13
ENDBRANCH   9  12
ENDBRANCH   4   8
BRANCH   6  17
ATOM     17  N   UNL     1      -1.265  -5.009   0.267  0.00  0.00    +0.056 N 
ATOM     18  O   UNL     1      -1.165  -6.222   0.303  0.00  0.00    -0.126 OA
ATOM     19  O   UNL     1      -2.245  -4.463   0.741  0.00  0.00    -0.126 OA
ENDBRANCH   6  17
TORSDOF 6
