REMARK  Name = ZINC66392574
REMARK  11 active torsions:
REMARK  status: ('A' for Active; 'I' for Inactive)
REMARK    1  A    between atoms: C_1  and  C_2
REMARK    2  A    between atoms: C_5  and  O_28
REMARK    3  A    between atoms: C_6  and  C_8
REMARK    4  A    between atoms: C_8  and  C_14
REMARK    5  A    between atoms: C_14  and  N_15
REMARK    6  A    between atoms: N_15  and  C_16
REMARK    7  A    between atoms: C_16  and  C_18
REMARK    8  A    between atoms: C_16  and  C_19
REMARK    9  A    between atoms: N_24  and  C_25
REMARK   10  A    between atoms: C_25  and  C_26
REMARK   11  A    between atoms: O_28  and  C_29
REMARK                            x       y       z     vdW  Elec       q    Type
REMARK                         _______ _______ _______ _____ _____    ______ ____
ROOT
ATOM      1  C   UNL     1       0.166  -1.855   3.658  0.00  0.00    -0.070 C 
ENDROOT
BRANCH   1   2
ATOM      2  C   UNL     1      -0.050  -2.998   2.664  0.00  0.00    -0.012 C 
ATOM      3  C   UNL     1      -1.321  -3.769   3.035  0.00  0.00    +0.038 C 
ATOM      4  C   UNL     1      -1.140  -4.401   4.417  0.00  0.00    +0.160 C 
ATOM      5  O   UNL     1       0.006  -5.254   4.404  0.00  0.00    -0.380 OA
ATOM      6  C   UNL     1       1.232  -4.579   4.110  0.00  0.00    +0.160 C 
ATOM      7  C   UNL     1       1.147  -3.954   2.715  0.00  0.00    +0.038 C 
BRANCH   2  13
ATOM      8  C   UNL     1       0.071   0.904  -0.465  0.00  0.00    +0.044 C 
ATOM      9  C   UNL     1      -0.130  -0.570  -0.226  0.00  0.00    -0.050 A 
ATOM     10  C   UNL     1      -0.441  -1.405  -1.283  0.00  0.00    +0.007 A 
ATOM     11  C   UNL     1      -0.626  -2.756  -1.067  0.00  0.00    +0.046 A 
ATOM     12  C   UNL     1      -0.500  -3.276   0.213  0.00  0.00    +0.124 A 
ATOM     13  C   UNL     1      -0.188  -2.437   1.273  0.00  0.00    -0.001 A 
ATOM     14  C   UNL     1       0.002  -1.087   1.050  0.00  0.00    +0.011 A 
BRANCH  12  15
ATOM     15  O   UNL     1      -0.682  -4.606   0.429  0.00  0.00    -0.495 OA
ATOM     16  C   UNL     1      -1.002  -5.410  -0.708  0.00  0.00    +0.277 C 
ENDBRANCH  12  15
ENDBRANCH   2  13
ENDBRANCH   1   2
BRANCH   1  17
ATOM     17  N   UNL     1      -1.040  -1.019   3.712  0.00  0.00    +0.387 N 
ATOM     18  H   UNL     1      -1.179  -0.571   2.818  0.00  0.00    -0.085 HD
ATOM     19  H   UNL     1      -1.840  -1.596   3.927  0.00  0.00    -0.085 HD
BRANCH  17  20
ATOM     20  C   UNL     1      -0.880   0.005   4.753  0.00  0.00    +0.013 C 
ATOM     21  C   UNL     1       0.254   0.955   4.364  0.00  0.00    -0.004 C 
BRANCH  20  22
ATOM     22  C   UNL     1      -2.163   0.784   4.893  0.00  0.00    +0.206 C 
ATOM     23  O   UNL     1      -3.116   0.513   4.194  0.00  0.00    -0.277 OA
ATOM     24  N   UNL     1      -2.250   1.782   5.794  0.00  0.00    -0.242 N 
ATOM     25  C   UNL     1      -3.397   2.479   5.919  0.00  0.00    +0.306 C 
ATOM     26  O   UNL     1      -4.352   2.207   5.218  0.00  0.00    -0.252 OA
ATOM     27  N   UNL     1      -3.485   3.477   6.821  0.00  0.00    -0.296 N 
ATOM     28  H   UNL     1      -1.488   1.998   6.354  0.00  0.00    +0.159 HD
ATOM     29  H   UNL     1      -2.722   3.693   7.380  0.00  0.00    +0.151 HD
BRANCH  27  30
ATOM     30  C   UNL     1      -4.731   4.234   6.956  0.00  0.00    +0.132 C 
BRANCH  30  31
ATOM     31  C   UNL     1      -4.567   5.284   8.025  0.00  0.00    -0.016 C 
ATOM     32  C   UNL     1      -4.811   6.542   7.750  0.00  0.00    +0.005 C 
ENDBRANCH  30  31
ENDBRANCH  27  30
ENDBRANCH  20  22
ENDBRANCH  17  20
ENDBRANCH   1  17
TORSDOF 8
