REMARK  Name = ZINC09012148
REMARK  9 active torsions:
REMARK  status: ('A' for Active; 'I' for Inactive)
REMARK    1  A    between atoms: C_1  and  C_2
REMARK    2  A    between atoms: C_2  and  N_3
REMARK    3  A    between atoms: C_7  and  C_8
REMARK    4  A    between atoms: C_10  and  O_17
REMARK    5  A    between atoms: C_11  and  O_15
REMARK    6  A    between atoms: O_15  and  C_16
REMARK    7  A    between atoms: O_17  and  C_18
REMARK    8  A    between atoms: N_21  and  C_22
REMARK    9  A    between atoms: C_26  and  C_28
REMARK                            x       y       z     vdW  Elec       q    Type
REMARK                         _______ _______ _______ _____ _____    ______ ____
ROOT
ATOM      1  N   UNL     1       1.664  -0.641   0.851  0.00  0.00    -0.246 N 
ATOM      2  C   UNL     1       2.118  -1.770   1.369  0.00  0.00    +0.259 C 
ATOM      3  O   UNL     1       1.363  -2.650   1.736  0.00  0.00    -0.269 OA
ATOM      4  C   UNL     1       3.582  -1.910   1.488  0.00  0.00    +0.078 C 
ATOM      5  C   UNL     1       4.311  -2.944   1.982  0.00  0.00    +0.028 C 
ATOM      6  S   UNL     1       4.138  -0.353   0.810  0.00  0.00    -0.049 S 
ATOM      7  C   UNL     1       2.536   0.342   0.436  0.00  0.00    +0.168 C 
ATOM      8  N   UNL     1       2.257   1.509  -0.099  0.00  0.00    -0.225 NA
ENDROOT
BRANCH   5   9
ATOM      9  C   UNL     1       5.772  -2.949   1.833  0.00  0.00    -0.019 A 
ATOM     10  C   UNL     1       6.558  -3.771   2.651  0.00  0.00    +0.057 A 
ATOM     11  C   UNL     1       7.931  -3.771   2.506  0.00  0.00    +0.163 A 
ATOM     12  C   UNL     1       8.533  -2.955   1.550  0.00  0.00    +0.175 A 
ATOM     13  C   UNL     1       7.755  -2.139   0.738  0.00  0.00    +0.064 A 
ATOM     14  C   UNL     1       6.383  -2.136   0.871  0.00  0.00    +0.027 A 
ATOM     15 BR   UNL     1       8.579  -1.036  -0.557  0.00  0.00    -0.046 Br
BRANCH  12  16
ATOM     16  O   UNL     1       9.884  -2.958   1.411  0.00  0.00    -0.490 OA
ATOM     17  C   UNL     1      10.440  -3.897   0.488  0.00  0.00    +0.277 C 
ENDBRANCH  12  16
BRANCH  11  18
ATOM     18  O   UNL     1       8.697  -4.568   3.299  0.00  0.00    -0.491 OA
ATOM     19  C   UNL     1       8.014  -5.378   4.258  0.00  0.00    +0.277 C 
ENDBRANCH  11  18
ENDBRANCH   5   9
BRANCH   8  20
ATOM     20  C   UNL     1       0.991   2.021  -0.003  0.00  0.00    +0.067 A 
ATOM     21  C   UNL     1       0.160   2.051  -1.126  0.00  0.00    +0.028 A 
ATOM     22  C   UNL     1      -1.115   2.572  -1.032  0.00  0.00    +0.003 A 
ATOM     23  C   UNL     1      -1.582   3.057   0.173  0.00  0.00    +0.015 A 
ATOM     24  C   UNL     1      -0.763   3.034   1.304  0.00  0.00    +0.065 A 
ATOM     25  C   UNL     1       0.527   2.514   1.216  0.00  0.00    +0.043 A 
BRANCH  24  26
ATOM     26  C   UNL     1      -1.263   3.559   2.592  0.00  0.00    +0.387 C 
ATOM     27  O   UNL     1      -0.549   3.539   3.575  0.00  0.00    -0.241 OA
ATOM     28  O   UNL     1      -2.510   4.061   2.675  0.00  0.00    -0.241 OA
ENDBRANCH  24  26
ENDBRANCH   8  20
BRANCH   1  30
ATOM     29  C   UNL     1      -0.262  -1.070  -0.593  0.00  0.00    +0.025 C 
ATOM     30  C   UNL     1       0.220  -0.435   0.713  0.00  0.00    +0.112 C 
ENDBRANCH   1  30
TORSDOF 6
