REMARK  Name = ZINC39769750
REMARK  7 active torsions:
REMARK  status: ('A' for Active; 'I' for Inactive)
REMARK    1  A    between atoms: C_4  and  C_7
REMARK    2  A    between atoms: C_11  and  S_20
REMARK    3  A    between atoms: N_13  and  C_14
REMARK    4  A    between atoms: S_20  and  C_21
REMARK    5  A    between atoms: C_21  and  C_22
REMARK    6  A    between atoms: N_24  and  N_25
REMARK    7  A    between atoms: C_26  and  C_27
REMARK                            x       y       z     vdW  Elec       q    Type
REMARK                         _______ _______ _______ _____ _____    ______ ____
ROOT
ATOM      1  C   UNL     1       3.543  -0.638  -0.186  0.00  0.00    +0.188 C 
ATOM      2  N   UNL     1       4.591   0.057  -0.968  0.00  0.00    -0.230 NA
ATOM      3  N   UNL     1       5.504  -1.017  -1.392  0.00  0.00    -0.226 NA
ATOM      4  C   UNL     1       4.580  -2.144  -1.685  0.00  0.00    +0.218 C 
ATOM      5  N   UNL     1       3.537  -2.039  -0.643  0.00  0.00    -0.284 N 
ATOM      6  H   UNL     1       5.074   0.738  -0.400  0.00  0.00    +0.143 HD
ATOM      7  H   UNL     1       6.146  -1.259  -0.653  0.00  0.00    +0.143 HD
ENDROOT
BRANCH   1  11
ATOM      8  C   UNL     1      -0.261   1.161  -0.919  0.00  0.00    +0.000 A 
ATOM      9  C   UNL     1       0.281   1.185   0.352  0.00  0.00    +0.000 A 
ATOM     10  C   UNL     1       1.512   0.602   0.589  0.00  0.00    +0.007 A 
ATOM     11  C   UNL     1       2.201  -0.004  -0.445  0.00  0.00    -0.012 A 
ATOM     12  C   UNL     1       1.658  -0.029  -1.716  0.00  0.00    +0.007 A 
ATOM     13  C   UNL     1       0.427   0.554  -1.953  0.00  0.00    +0.000 A 
ENDBRANCH   1  11
BRANCH   5  14
ATOM     14  C   UNL     1       2.708  -3.065  -0.182  0.00  0.00    +0.033 A 
ATOM     15  C   UNL     1       1.858  -2.843   0.894  0.00  0.00    +0.023 A 
ATOM     16  C   UNL     1       1.040  -3.859   1.347  0.00  0.00    +0.002 A 
ATOM     17  C   UNL     1       1.065  -5.096   0.731  0.00  0.00    +0.000 A 
ATOM     18  C   UNL     1       1.910  -5.321  -0.341  0.00  0.00    +0.002 A 
ATOM     19  C   UNL     1       2.727  -4.307  -0.803  0.00  0.00    +0.023 A 
ENDBRANCH   5  14
BRANCH   4  20
ATOM     20  S   UNL     1       5.452  -3.729  -1.556  0.00  0.00    -0.112 S 
BRANCH  20  21
ATOM     21  C   UNL     1       6.075  -3.751   0.147  0.00  0.00    +0.169 C 
BRANCH  21  22
ATOM     22  C   UNL     1       6.830  -5.032   0.390  0.00  0.00    +0.242 C 
ATOM     23  O   UNL     1       6.937  -5.850  -0.499  0.00  0.00    -0.273 OA
ATOM     24  N   UNL     1       7.387  -5.269   1.594  0.00  0.00    -0.206 N 
ATOM     25  H   UNL     1       7.301  -4.614   2.305  0.00  0.00    +0.177 HD
BRANCH  24  26
ATOM     26  N   UNL     1       8.088  -6.460   1.819  0.00  0.00    -0.188 NA
ATOM     27  C   UNL     1       8.629  -6.690   2.990  0.00  0.00    +0.136 C 
BRANCH  27  28
ATOM     28  C   UNL     1       9.331  -7.882   3.215  0.00  0.00    +0.000 C 
ATOM     29  C   UNL     1       9.956  -8.281   4.394  0.00  0.00    +0.004 A 
ATOM     30  C   UNL     1      10.085  -7.669   5.661  0.00  0.00    +0.010 A 
ATOM     31  C   UNL     1      10.766  -8.303   6.649  0.00  0.00    +0.001 A 
ATOM     32  C   UNL     1      11.350  -9.557   6.448  0.00  0.00    +0.002 A 
ATOM     33  C   UNL     1      11.267 -10.203   5.260  0.00  0.00    +0.026 A 
ATOM     34  C   UNL     1      10.570  -9.603   4.177  0.00  0.00    +0.043 A 
ATOM     35  N   UNL     1      10.350 -10.016   2.947  0.00  0.00    -0.380 N 
ATOM     36  C   UNL     1       9.563  -9.008   2.231  0.00  0.00    +0.150 C 
ATOM     37  H   UNL     1      10.658 -10.857   2.574  0.00  0.00    +0.160 HD
ENDBRANCH  27  28
ENDBRANCH  24  26
ENDBRANCH  21  22
ENDBRANCH  20  21
ENDBRANCH   4  20
TORSDOF 7
