REMARK  Name = ZINC64312122
REMARK  10 active torsions:
REMARK  status: ('A' for Active; 'I' for Inactive)
REMARK    1  A    between atoms: C_1  and  C_2
REMARK    2  A    between atoms: N_6  and  C_8
REMARK    3  A    between atoms: C_8  and  C_9
REMARK    4  A    between atoms: C_9  and  C_10
REMARK    5  A    between atoms: C_9  and  N_11
REMARK    6  A    between atoms: C_12  and  C_14
REMARK    7  A    between atoms: C_14  and  C_15
REMARK    8  A    between atoms: C_14  and  C_16
REMARK    9  A    between atoms: C_14  and  N_17
REMARK   10  A    between atoms: N_20  and  C_21
REMARK                            x       y       z     vdW  Elec       q    Type
REMARK                         _______ _______ _______ _____ _____    ______ ____
ROOT
ATOM      1  N   UNL     1       0.204  -4.504   2.224  0.00  0.00    -0.313 N 
ATOM      2  C   UNL     1       0.004  -5.764   1.791  0.00  0.00    +0.236 C 
ATOM      3  O   UNL     1       0.952  -6.473   1.529  0.00  0.00    -0.273 OA
ATOM      4  H   UNL     1      -0.554  -3.937   2.434  0.00  0.00    +0.149 HD
ENDROOT
BRANCH   2   5
ATOM      5  C   UNL     1      -1.399  -6.292   1.632  0.00  0.00    +0.106 C 
ATOM      6  C   UNL     1      -1.943  -5.890   0.260  0.00  0.00    +0.041 C 
ATOM      7  C   UNL     1      -1.386  -7.818   1.749  0.00  0.00    +0.041 C 
BRANCH   5   8
ATOM      8  N   UNL     1      -2.254  -5.730   2.681  0.00  0.00    -0.286 N 
ATOM      9  C   UNL     1      -3.558  -6.063   2.737  0.00  0.00    +0.300 C 
ATOM     10  O   UNL     1      -4.026  -6.831   1.918  0.00  0.00    -0.253 OA
ATOM     11  N   UNL     1      -4.345  -5.546   3.702  0.00  0.00    -0.302 N 
ATOM     12  C   UNL     1      -5.763  -5.908   3.763  0.00  0.00    +0.129 C 
ATOM     13  H   UNL     1      -1.881  -5.117   3.334  0.00  0.00    +0.151 HD
ATOM     14  H   UNL     1      -3.972  -4.934   4.355  0.00  0.00    +0.150 HD
ENDBRANCH   5   8
ENDBRANCH   2   5
BRANCH   1  15
ATOM     15  C   UNL     1       1.568  -3.991   2.378  0.00  0.00    +0.053 C 
ATOM     16  C   UNL     1       2.098  -4.359   3.766  0.00  0.00    +0.026 C 
BRANCH  15  17
ATOM     17  C   UNL     1       1.560  -2.469   2.222  0.00  0.00    -0.057 C 
BRANCH  17  23
ATOM     18  C   UNL     1       2.043  -2.806  -2.638  0.00  0.00    +0.005 C 
ATOM     19  C   UNL     1       1.148  -2.300  -1.504  0.00  0.00    -0.031 C 
ATOM     20  C   UNL     1       0.949  -0.789  -1.646  0.00  0.00    -0.001 C 
ATOM     21  C   UNL     1       0.118  -0.281  -0.464  0.00  0.00    -0.018 C 
ATOM     22  C   UNL     1       0.820  -0.653   0.844  0.00  0.00    -0.079 C 
ATOM     23  N   UNL     1       0.957  -2.112   0.931  0.00  0.00    +0.381 N 
ATOM     24  C   UNL     1       1.812  -2.598  -0.158  0.00  0.00    -0.076 C 
ATOM     25  H   UNL     1       0.046  -2.539   0.859  0.00  0.00    -0.082 HD
ENDBRANCH  17  23
ENDBRANCH  15  17
ENDBRANCH   1  15
TORSDOF 5
