REMARK  Name = ZINC59815737
REMARK  9 active torsions:
REMARK  status: ('A' for Active; 'I' for Inactive)
REMARK    1  A    between atoms: C_1  and  C_2
REMARK    2  A    between atoms: C_2  and  C_4
REMARK    3  A    between atoms: C_2  and  S_10
REMARK    4  A    between atoms: N_6  and  C_7
REMARK    5  A    between atoms: C_7  and  C_8
REMARK    6  A    between atoms: S_10  and  C_11
REMARK    7  A    between atoms: N_16  and  N_17
REMARK    8  A    between atoms: C_18  and  C_19
REMARK    9  A    between atoms: C_24  and  O_25
REMARK                            x       y       z     vdW  Elec       q    Type
REMARK                         _______ _______ _______ _____ _____    ______ ____
ROOT
ATOM      1  C   UNL     1      -2.365  -0.093  -1.525  0.00  0.00    +0.211 A 
ATOM      2  N   UNL     1      -3.609  -0.323  -1.957  0.00  0.00    -0.186 NA
ATOM      3  C   UNL     1      -3.773   0.220  -3.146  0.00  0.00    +0.232 A 
ATOM      4  N   UNL     1      -2.612   0.814  -3.496  0.00  0.00    -0.245 N 
ATOM      5  N   UNL     1      -1.720   0.602  -2.432  0.00  0.00    -0.144 NA
ATOM      6  N   UNL     1      -4.929   0.186  -3.903  0.00  0.00    -0.205 N 
ATOM      7  H   UNL     1      -4.953   0.616  -4.772  0.00  0.00    +0.177 HD
ATOM      8  H   UNL     1      -2.431   1.295  -4.319  0.00  0.00    +0.192 HD
ENDROOT
BRANCH   6   9
ATOM      9  N   UNL     1      -6.067  -0.470  -3.415  0.00  0.00    -0.187 NA
ATOM     10  C   UNL     1      -7.153  -0.502  -4.125  0.00  0.00    +0.142 C 
BRANCH  10  11
ATOM     11  C   UNL     1      -8.350  -1.192  -3.612  0.00  0.00    +0.039 A 
ATOM     12  C   UNL     1      -9.518  -1.233  -4.376  0.00  0.00    +0.033 A 
ATOM     13  C   UNL     1     -10.636  -1.881  -3.890  0.00  0.00    +0.043 A 
ATOM     14  C   UNL     1     -10.603  -2.491  -2.646  0.00  0.00    +0.043 A 
ATOM     15  C   UNL     1      -9.452  -2.456  -1.880  0.00  0.00    +0.084 A 
ATOM     16  C   UNL     1      -8.319  -1.815  -2.357  0.00  0.00    +0.144 A 
ATOM     17 CL   UNL     1      -9.423  -3.222  -0.323  0.00  0.00    -0.080 Cl
ATOM     18 CL   UNL     1     -12.088  -1.931  -4.840  0.00  0.00    -0.083 Cl
BRANCH  16  19
ATOM     19  O   UNL     1      -7.186  -1.786  -1.609  0.00  0.00    -0.505 OA
ATOM     20  H   UNL     1      -7.128  -1.026  -1.012  0.00  0.00    +0.292 HD
ENDBRANCH  16  19
ENDBRANCH  10  11
ENDBRANCH   6   9
BRANCH   1  21
ATOM     21  S   UNL     1      -1.700  -0.632   0.015  0.00  0.00    -0.072 S 
BRANCH  21  23
ATOM     22  C   UNL     1      -0.019   1.526   0.010  0.00  0.00    +0.029 C 
ATOM     23  C   UNL     1       0.002  -0.004   0.002  0.00  0.00    +0.137 C 
BRANCH  23  24
ATOM     24  C   UNL     1       0.731  -0.503   1.223  0.00  0.00    +0.226 C 
ATOM     25  O   UNL     1       0.105  -0.891   2.187  0.00  0.00    -0.275 OA
ATOM     26  N   UNL     1       2.079  -0.519   1.244  0.00  0.00    -0.311 N 
ATOM     27  H   UNL     1       2.579  -0.208   0.473  0.00  0.00    +0.149 HD
BRANCH  26  28
ATOM     28  C   UNL     1       2.787  -1.004   2.431  0.00  0.00    +0.131 C 
BRANCH  28  29
ATOM     29  C   UNL     1       4.274  -0.917   2.199  0.00  0.00    -0.016 C 
ATOM     30  C   UNL     1       5.031  -0.261   3.042  0.00  0.00    +0.005 C 
ENDBRANCH  28  29
ENDBRANCH  26  28
ENDBRANCH  23  24
ENDBRANCH  21  23
ENDBRANCH   1  21
TORSDOF 8
