REMARK  Name = ZINC64629529
REMARK  9 active torsions:
REMARK  status: ('A' for Active; 'I' for Inactive)
REMARK    1  A    between atoms: C_1  and  C_2
REMARK    2  A    between atoms: C_2  and  C_3
REMARK    3  A    between atoms: C_2  and  C_4
REMARK    4  A    between atoms: C_4  and  N_5
REMARK    5  A    between atoms: C_6  and  C_8
REMARK    6  A    between atoms: C_8  and  N_9
REMARK    7  A    between atoms: N_12  and  C_13
REMARK    8  A    between atoms: C_13  and  C_14
REMARK    9  A    between atoms: C_17  and  N_20
REMARK                            x       y       z     vdW  Elec       q    Type
REMARK                         _______ _______ _______ _____ _____    ______ ____
ROOT
ATOM      1  N   UNL     1       0.413  -0.554   6.087  0.00  0.00    -0.291 N 
ATOM      2  C   UNL     1      -0.103  -0.342   7.314  0.00  0.00    +0.300 C 
ATOM      3  O   UNL     1      -1.156   0.255   7.436  0.00  0.00    -0.253 OA
ATOM      4  N   UNL     1       0.547  -0.791   8.405  0.00  0.00    -0.295 N 
ATOM      5  H   UNL     1       1.253  -1.030   5.990  0.00  0.00    +0.151 HD
ATOM      6  H   UNL     1       1.386  -1.268   8.308  0.00  0.00    +0.151 HD
ENDROOT
BRANCH   1   7
ATOM      7  C   UNL     1      -0.294  -0.066   4.900  0.00  0.00    +0.201 C 
BRANCH   7   9
ATOM      8  N   UNL     1       0.026  -0.080   2.448  0.00  0.00    -0.314 N 
ATOM      9  C   UNL     1       0.488  -0.430   3.665  0.00  0.00    +0.230 C 
ATOM     10  O   UNL     1       1.533  -1.037   3.765  0.00  0.00    -0.274 OA
ATOM     11  H   UNL     1      -0.809   0.406   2.367  0.00  0.00    +0.149 HD
BRANCH   8  12
ATOM     12  C   UNL     1       0.787  -0.434   1.246  0.00  0.00    +0.107 C 
BRANCH  12  14
ATOM     13  C   UNL     1       0.013   1.605   0.028  0.00  0.00    +0.009 C 
ATOM     14  C   UNL     1       0.049   0.076   0.007  0.00  0.00    -0.000 C 
ATOM     15  C   UNL     1       0.776  -0.400  -1.252  0.00  0.00    +0.009 C 
ENDBRANCH  12  14
ENDBRANCH   8  12
ENDBRANCH   7   9
ENDBRANCH   1   7
BRANCH   4  16
ATOM     16  C   UNL     1      -0.015  -0.561   9.739  0.00  0.00    +0.141 C 
BRANCH  16  17
ATOM     17  C   UNL     1       0.899  -1.158  10.778  0.00  0.00    -0.030 A 
ATOM     18  C   UNL     1       0.724  -2.470  11.178  0.00  0.00    +0.007 A 
ATOM     19  C   UNL     1       1.559  -3.020  12.131  0.00  0.00    +0.023 A 
ATOM     20  C   UNL     1       2.576  -2.254  12.687  0.00  0.00    +0.030 A 
ATOM     21  C   UNL     1       2.748  -0.936  12.283  0.00  0.00    +0.023 A 
ATOM     22  C   UNL     1       1.913  -0.394  11.326  0.00  0.00    +0.007 A 
BRANCH  20  23
ATOM     23  N   UNL     1       3.422  -2.807  13.651  0.00  0.00    -0.320 N 
ATOM     24  C   UNL     1       4.580  -2.062  14.172  0.00  0.00    +0.124 C 
ATOM     25  C   UNL     1       4.384  -1.865  15.676  0.00  0.00    +0.123 C 
ATOM     26  N   UNL     1       3.977  -3.110  16.312  0.00  0.00    -0.313 N 
ATOM     27  C   UNL     1       3.404  -4.133  15.676  0.00  0.00    +0.230 C 
ATOM     28  O   UNL     1       3.036  -5.087  16.328  0.00  0.00    -0.274 OA
ATOM     29  C   UNL     1       3.189  -4.155  14.191  0.00  0.00    +0.200 C 
ATOM     30  H   UNL     1       4.133  -3.202  17.265  0.00  0.00    +0.149 HD
ENDBRANCH  20  23
ENDBRANCH  16  17
ENDBRANCH   4  16
TORSDOF 7
