REMARK  Name = ZINC11522208
REMARK  8 active torsions:
REMARK  status: ('A' for Active; 'I' for Inactive)
REMARK    1  A    between atoms: C_4  and  N_21
REMARK    2  A    between atoms: C_5  and  C_7
REMARK    3  A    between atoms: N_9  and  N_10
REMARK    4  A    between atoms: N_10  and  C_11
REMARK    5  A    between atoms: C_11  and  N_13
REMARK    6  A    between atoms: N_13  and  C_14
REMARK    7  A    between atoms: C_14  and  C_15
REMARK    8  A    between atoms: C_15  and  C_16
REMARK                            x       y       z     vdW  Elec       q    Type
REMARK                         _______ _______ _______ _____ _____    ______ ____
ROOT
ATOM      1  C   UNL     1       8.545  -0.236  -1.465  0.00  0.00    +0.262 C 
ATOM      2  O   UNL     1       8.993  -0.619  -2.528  0.00  0.00    -0.269 OA
ATOM      3  N   UNL     1       7.544   0.667  -1.441  0.00  0.00    -0.231 N 
ATOM      4  H   UNL     1       7.187   0.972  -0.593  0.00  0.00    +0.173 HD
ENDROOT
BRANCH   1   9
ATOM      5  C   UNL     1       9.013  -0.929   2.197  0.00  0.00    +0.001 A 
ATOM      6  C   UNL     1      10.132  -1.743   2.176  0.00  0.00    +0.002 A 
ATOM      7  C   UNL     1      10.736  -2.068   0.974  0.00  0.00    +0.033 A 
ATOM      8  C   UNL     1      10.225  -1.582  -0.212  0.00  0.00    +0.138 A 
ATOM      9  C   UNL     1       9.097  -0.761  -0.198  0.00  0.00    +0.068 A 
ATOM     10  C   UNL     1       8.496  -0.432   1.018  0.00  0.00    +0.015 A 
BRANCH   8  11
ATOM     11  N   UNL     1      10.873  -1.930  -1.496  0.00  0.00    +0.057 N 
ATOM     12  O   UNL     1      11.109  -3.095  -1.763  0.00  0.00    -0.126 OA
ATOM     13  O   UNL     1      11.170  -1.052  -2.287  0.00  0.00    -0.126 OA
ENDBRANCH   8  11
ENDBRANCH   1   9
BRANCH   3  14
ATOM     14  N   UNL     1       7.021   1.164  -2.642  0.00  0.00    -0.246 N 
ATOM     15  H   UNL     1       7.378   0.859  -3.490  0.00  0.00    +0.172 HD
BRANCH  14  16
ATOM     16  C   UNL     1       6.020   2.067  -2.618  0.00  0.00    +0.147 C 
ATOM     17  S   UNL     1       5.381   2.675  -4.085  0.00  0.00    -0.017 S 
BRANCH  16  18
ATOM     18  N   UNL     1       5.524   2.491  -1.439  0.00  0.00    -0.325 N 
ATOM     19  H   UNL     1       5.886   2.147  -0.608  0.00  0.00    +0.148 HD
BRANCH  18  20
ATOM     20  C   UNL     1       4.436   3.473  -1.414  0.00  0.00    +0.108 C 
BRANCH  20  21
ATOM     21  C   UNL     1       4.062   3.781   0.037  0.00  0.00    +0.061 C 
BRANCH  21  22
ATOM     22  C   UNL     1       2.943   4.791   0.064  0.00  0.00    -0.009 A 
ATOM     23  C   UNL     1       1.604   4.581   0.063  0.00  0.00    +0.011 A 
ATOM     24  C   UNL     1       0.755   5.672   0.085  0.00  0.00    +0.008 A 
ATOM     25  C   UNL     1       1.286   6.918   0.118  0.00  0.00    +0.045 A 
ATOM     26  S   UNL     1       3.038   6.573   0.105  0.00  0.00    -0.102 S 
ENDBRANCH  21  22
ENDBRANCH  20  21
ENDBRANCH  18  20
ENDBRANCH  16  18
ENDBRANCH  14  16
ENDBRANCH   3  14
TORSDOF 8
