REMARK  Name = ZINC42139963
REMARK  4 active torsions:
REMARK  status: ('A' for Active; 'I' for Inactive)
REMARK    1  A    between atoms: C_2  and  O_9
REMARK    2  A    between atoms: O_9  and  C_10
REMARK    3  A    between atoms: C_11  and  C_17
REMARK    4  A    between atoms: C_13  and  N_16
REMARK                            x       y       z     vdW  Elec       q    Type
REMARK                         _______ _______ _______ _____ _____    ______ ____
ROOT
ATOM      1  C   UNL     1       2.345   4.096   0.105  0.00  0.00    +0.233 A 
ATOM      2  C   UNL     1       2.364   5.494   0.228  0.00  0.00    +0.100 A 
ATOM      3  C   UNL     1       3.597   6.147   0.326  0.00  0.00    +0.042 A 
ATOM      4  C   UNL     1       4.754   5.377   0.298  0.00  0.00    +0.044 A 
ATOM      5  C   UNL     1       4.650   3.997   0.174  0.00  0.00    +0.137 A 
ATOM      6  N   UNL     1       3.473   3.408   0.089  0.00  0.00    -0.219 NA
ENDROOT
BRANCH   2   7
ATOM      7  C   UNL     1       1.104   6.262   0.252  0.00  0.00    +0.247 C 
ATOM      8  O   UNL     1       0.038   5.684   0.165  0.00  0.00    -0.270 OA
ATOM      9  N   UNL     1       1.136   7.604   0.370  0.00  0.00    -0.325 N 
ATOM     10  H   UNL     1       1.986   8.065   0.439  0.00  0.00    +0.145 HD
ATOM     11  H   UNL     1       0.307   8.109   0.385  0.00  0.00    +0.145 HD
ENDBRANCH   2   7
BRANCH   4  12
ATOM     12  N   UNL     1       6.011   5.986   0.393  0.00  0.00    -0.357 N 
ATOM     13  H   UNL     1       6.078   6.949   0.479  0.00  0.00    +0.142 HD
ATOM     14  H   UNL     1       6.815   5.444   0.373  0.00  0.00    +0.142 HD
ENDBRANCH   4  12
BRANCH   1  15
ATOM     15  O   UNL     1       1.159   3.446   0.009  0.00  0.00    -0.437 OA
BRANCH  15  17
ATOM     16  C   UNL     1       0.998   1.398  -1.191  0.00  0.00    +0.066 A 
ATOM     17  C   UNL     1       1.176   2.087   0.000  0.00  0.00    +0.133 A 
ATOM     18  C   UNL     1       1.371   1.387   1.182  0.00  0.00    +0.066 A 
ATOM     19  C   UNL     1       1.388   0.005   1.171  0.00  0.00    +0.046 A 
ATOM     20  C   UNL     1       1.211  -0.680  -0.018  0.00  0.00    +0.040 A 
ATOM     21  C   UNL     1       1.016   0.016  -1.198  0.00  0.00    +0.046 A 
ATOM     22 CL   UNL     1       0.792  -0.847  -2.687  0.00  0.00    -0.083 Cl
ATOM     23 CL   UNL     1       1.633  -0.872   2.649  0.00  0.00    -0.083 Cl
ENDBRANCH  15  17
ENDBRANCH   1  15
TORSDOF 4
