REMARK  Name = ZINC38509024
REMARK  8 active torsions:
REMARK  status: ('A' for Active; 'I' for Inactive)
REMARK    1  A    between atoms: C_1  and  C_2
REMARK    2  A    between atoms: N_4  and  C_25
REMARK    3  A    between atoms: C_6  and  C_7
REMARK    4  A    between atoms: N_9  and  C_10
REMARK    5  A    between atoms: C_11  and  C_22
REMARK    6  A    between atoms: N_16  and  C_19
REMARK    7  A    between atoms: C_19  and  C_20
REMARK    8  A    between atoms: C_19  and  C_21
REMARK                            x       y       z     vdW  Elec       q    Type
REMARK                         _______ _______ _______ _____ _____    ______ ____
ROOT
ATOM      1  C   UNL     1      -0.038  -0.977   4.827  0.00  0.00    +0.085 A 
ATOM      2  C   UNL     1      -0.001  -1.804   5.941  0.00  0.00    +0.068 A 
ATOM      3  C   UNL     1       0.025  -1.161   7.240  0.00  0.00    -0.027 A 
ATOM      4  C   UNL     1       0.007   0.191   7.192  0.00  0.00    -0.021 A 
ATOM      5  S   UNL     1      -0.033   0.576   5.468  0.00  0.00    -0.079 S 
ATOM      6  C   UNL     1       0.021   1.116   8.367  0.00  0.00    -0.035 C 
ATOM      7  N   UNL     1      -0.326   0.339   9.572  0.00  0.00    +0.384 N 
ATOM      8  C   UNL     1       0.513  -0.864   9.642  0.00  0.00    -0.073 C 
ATOM      9  C   UNL     1       0.071  -1.879   8.581  0.00  0.00    +0.018 C 
ATOM     10  H   UNL     1      -1.298   0.070   9.530  0.00  0.00    -0.081 HD
ENDROOT
BRANCH   2  11
ATOM     11  C   UNL     1       0.012  -3.264   5.810  0.00  0.00    +0.244 C 
ATOM     12  O   UNL     1       1.071  -3.858   5.729  0.00  0.00    -0.270 OA
ATOM     13  N   UNL     1      -1.149  -3.948   5.778  0.00  0.00    -0.325 N 
ATOM     14  H   UNL     1      -1.993  -3.474   5.843  0.00  0.00    +0.145 HD
ATOM     15  H   UNL     1      -1.140  -4.914   5.691  0.00  0.00    +0.145 HD
ENDBRANCH   2  11
BRANCH   1  18
ATOM     16  C   UNL     1      -0.096  -0.403   2.531  0.00  0.00    +0.269 C 
ATOM     17  O   UNL     1      -0.097   0.774   2.836  0.00  0.00    -0.268 OA
ATOM     18  N   UNL     1      -0.067  -1.348   3.492  0.00  0.00    -0.274 N 
ATOM     19  H   UNL     1      -0.067  -2.287   3.249  0.00  0.00    +0.156 HD
BRANCH  16  25
ATOM     20  C   UNL     1      -0.169   1.580   0.013  0.00  0.00    +0.048 C 
ATOM     21  C   UNL     1      -0.159   0.073  -0.006  0.00  0.00    -0.001 A 
ATOM     22  C   UNL     1      -0.173  -0.733  -1.094  0.00  0.00    +0.112 A 
ATOM     23  N   UNL     1      -0.157  -2.007  -0.648  0.00  0.00    -0.274 N 
ATOM     24  N   UNL     1      -0.133  -2.028   0.636  0.00  0.00    -0.167 NA
ATOM     25  C   UNL     1      -0.127  -0.798   1.109  0.00  0.00    +0.150 A 
ATOM     26  C   UNL     1      -0.165  -3.195  -1.506  0.00  0.00    +0.172 C 
ENDBRANCH  16  25
ENDBRANCH   1  18
BRANCH   7  27
ATOM     27  C   UNL     1      -0.100   1.163  10.767  0.00  0.00    -0.074 C 
ATOM     28  C   UNL     1      -0.870   2.478  10.633  0.00  0.00    -0.014 C 
ATOM     29  C   UNL     1      -0.588   0.410  12.006  0.00  0.00    -0.014 C 
ENDBRANCH   7  27
TORSDOF 4
