REMARK  Name = ZINC05040695
REMARK  7 active torsions:
REMARK  status: ('A' for Active; 'I' for Inactive)
REMARK    1  A    between atoms: C_1  and  C_2
REMARK    2  A    between atoms: N_11  and  C_15
REMARK    3  A    between atoms: C_15  and  C_16
REMARK    4  A    between atoms: C_16  and  O_18
REMARK    5  A    between atoms: O_18  and  C_19
REMARK    6  A    between atoms: C_19  and  C_20
REMARK    7  A    between atoms: N_22  and  C_23
REMARK                            x       y       z     vdW  Elec       q    Type
REMARK                         _______ _______ _______ _____ _____    ______ ____
ROOT
ATOM      1  C   UNL     1      -3.667   1.480  -0.010  0.00  0.00    +0.326 C 
ATOM      2  O   UNL     1      -3.842   2.675  -0.007  0.00  0.00    -0.249 OA
ENDROOT
BRANCH   1   3
ATOM      3  C   UNL     1      -4.849   0.545  -0.016  0.00  0.00    +0.238 C 
BRANCH   3  13
ATOM      4  C   UNL     1      -9.234   0.355   0.613  0.00  0.00    +0.010 C 
ATOM      5  C   UNL     1      -9.227   1.812   1.081  0.00  0.00    +0.018 C 
ATOM      6  C   UNL     1      -9.300   1.857   2.610  0.00  0.00    +0.006 C 
ATOM      7  C   UNL     1      -9.271   3.313   3.078  0.00  0.00    +0.000 C 
ATOM      8  C   UNL     1      -7.969   3.972   2.620  0.00  0.00    +0.003 C 
ATOM      9  C   UNL     1      -7.891   3.936   1.091  0.00  0.00    +0.035 C 
ATOM     10  C   UNL     1      -7.945   2.490   0.611  0.00  0.00    +0.115 C 
ATOM     11  C   UNL     1      -6.737   1.722   1.097  0.00  0.00    +0.247 C 
ATOM     12  O   UNL     1      -6.417   1.510   2.247  0.00  0.00    -0.273 OA
ATOM     13  N   UNL     1      -6.089   1.326  -0.018  0.00  0.00    -0.213 N 
ATOM     14  C   UNL     1      -6.723   1.729  -1.126  0.00  0.00    +0.310 C 
ATOM     15  O   UNL     1      -6.333   1.490  -2.252  0.00  0.00    -0.252 OA
ATOM     16  N   UNL     1      -7.840   2.431  -0.853  0.00  0.00    -0.285 N 
ATOM     17  H   UNL     1      -8.453   2.820  -1.496  0.00  0.00    +0.151 HD
ENDBRANCH   3  13
ENDBRANCH   1   3
BRANCH   1  18
ATOM     18  O   UNL     1      -2.420   0.984  -0.007  0.00  0.00    -0.454 OA
BRANCH  18  19
ATOM     19  C   UNL     1      -1.330   1.943  -0.001  0.00  0.00    +0.328 C 
BRANCH  19  20
ATOM     20  C   UNL     1      -0.014   1.208   0.001  0.00  0.00    +0.255 C 
ATOM     21  O   UNL     1       0.003  -0.005  -0.002  0.00  0.00    -0.272 OA
ATOM     22  N   UNL     1       1.143   1.898   0.001  0.00  0.00    -0.280 N 
ATOM     23  H   UNL     1       1.131   2.866  -0.061  0.00  0.00    +0.155 HD
BRANCH  22  24
ATOM     24  C   UNL     1       2.364   1.218   0.092  0.00  0.00    +0.072 A 
ATOM     25  C   UNL     1       2.514  -0.025  -0.507  0.00  0.00    +0.064 A 
ATOM     26  C   UNL     1       3.722  -0.692  -0.420  0.00  0.00    +0.125 A 
ATOM     27  C   UNL     1       4.779  -0.126   0.273  0.00  0.00    +0.041 A 
ATOM     28  C   UNL     1       4.632   1.110   0.875  0.00  0.00    +0.043 A 
ATOM     29  C   UNL     1       3.427   1.784   0.787  0.00  0.00    +0.145 A 
ATOM     30  F   UNL     1       3.284   2.992   1.375  0.00  0.00    -0.204 F 
ATOM     31  F   UNL     1       3.870  -1.900  -1.008  0.00  0.00    -0.205 F 
ENDBRANCH  22  24
ENDBRANCH  19  20
ENDBRANCH  18  19
ENDBRANCH   1  18
TORSDOF 6
