REMARK  Name = ZINC39685419
REMARK  6 active torsions:
REMARK  status: ('A' for Active; 'I' for Inactive)
REMARK    1  A    between atoms: C_3  and  O_8
REMARK    2  A    between atoms: O_8  and  C_9
REMARK    3  A    between atoms: C_9  and  C_10
REMARK    4  A    between atoms: C_10  and  N_11
REMARK    5  A    between atoms: C_12  and  C_14
REMARK    6  A    between atoms: C_25  and  C_27
REMARK                            x       y       z     vdW  Elec       q    Type
REMARK                         _______ _______ _______ _____ _____    ______ ____
ROOT
ATOM      1  C   UNL     1       7.253   4.600   3.256  0.00  0.00    +0.100 C 
ATOM      2  C   UNL     1       6.000   5.496   3.128  0.00  0.00    +0.121 C 
ATOM      3  N   UNL     1       6.441   6.827   3.609  0.00  0.00    -0.296 N 
ATOM      4  C   UNL     1       7.815   6.976   3.072  0.00  0.00    +0.115 C 
ATOM      5  C   UNL     1       8.441   5.575   3.219  0.00  0.00    -0.004 C 
ATOM      6  C   UNL     1       9.239   5.487   4.517  0.00  0.00    -0.010 C 
ATOM      7  C   UNL     1      10.447   6.424   4.433  0.00  0.00    -0.082 C 
ATOM      8  N   UNL     1      11.287   6.041   3.292  0.00  0.00    +0.379 N 
ATOM      9  C   UNL     1      10.542   6.217   2.039  0.00  0.00    -0.082 C 
ATOM     10  C   UNL     1       9.338   5.272   2.022  0.00  0.00    -0.010 C 
ATOM     11  C   UNL     1       5.748   7.703   4.363  0.00  0.00    +0.249 C 
ATOM     12  O   UNL     1       6.213   8.801   4.600  0.00  0.00    -0.270 OA
ATOM     13  H   UNL     1      12.113   6.620   3.274  0.00  0.00    -0.086 HD
ATOM     14  H   UNL     1      11.559   5.074   3.386  0.00  0.00    -0.086 HD
ENDROOT
BRANCH  11  15
ATOM     15  C   UNL     1       4.425   7.329   4.902  0.00  0.00    +0.073 A 
ATOM     16  C   UNL     1       3.569   6.515   4.158  0.00  0.00    +0.036 A 
ATOM     17  C   UNL     1       2.334   6.169   4.668  0.00  0.00    +0.042 A 
ATOM     18  C   UNL     1       1.942   6.627   5.915  0.00  0.00    +0.023 A 
ATOM     19  C   UNL     1       2.784   7.432   6.659  0.00  0.00    +0.040 A 
ATOM     20  C   UNL     1       4.027   7.783   6.163  0.00  0.00    +0.136 A 
ATOM     21  F   UNL     1       4.851   8.566   6.893  0.00  0.00    -0.205 F 
ATOM     22 CL   UNL     1       1.268   5.158   3.743  0.00  0.00    -0.084 Cl
ENDBRANCH  11  15
BRANCH   1  24
ATOM     23  N   UNL     1       7.929   2.439   2.260  0.00  0.00    -0.312 N 
ATOM     24  C   UNL     1       7.329   3.636   2.101  0.00  0.00    +0.218 C 
ATOM     25  O   UNL     1       6.851   3.936   1.027  0.00  0.00    -0.275 OA
ATOM     26  H   UNL     1       8.312   2.199   3.118  0.00  0.00    +0.149 HD
BRANCH  23  27
ATOM     27  C   UNL     1       8.003   1.502   1.137  0.00  0.00    +0.145 C 
BRANCH  27  28
ATOM     28  C   UNL     1       8.728   0.230   1.581  0.00  0.00    +0.247 C 
BRANCH  28  29
ATOM     29  O   UNL     1       7.952  -0.436   2.579  0.00  0.00    -0.490 OA
BRANCH  29  32
ATOM     30  C   UNL     1       8.273  -3.466   4.568  0.00  0.00    +0.006 A 
ATOM     31  C   UNL     1       7.758  -2.291   4.056  0.00  0.00    +0.046 A 
ATOM     32  C   UNL     1       8.458  -1.592   3.084  0.00  0.00    +0.123 A 
ATOM     33  C   UNL     1       9.676  -2.075   2.627  0.00  0.00    +0.084 A 
ATOM     34  C   UNL     1      10.189  -3.252   3.143  0.00  0.00    +0.127 A 
ATOM     35  C   UNL     1       9.486  -3.947   4.113  0.00  0.00    +0.038 A 
ATOM     36  F   UNL     1      11.375  -3.724   2.699  0.00  0.00    -0.205 F 
ENDBRANCH  29  32
ENDBRANCH  28  29
ENDBRANCH  27  28
ENDBRANCH  23  27
ENDBRANCH   1  24
TORSDOF 6
