REMARK  Name = ZINC36861861
REMARK  9 active torsions:
REMARK  status: ('A' for Active; 'I' for Inactive)
REMARK    1  A    between atoms: C_1  and  C_2
REMARK    2  A    between atoms: C_2  and  C_3
REMARK    3  A    between atoms: C_3  and  N_4
REMARK    4  A    between atoms: C_6  and  N_20
REMARK    5  A    between atoms: C_8  and  C_9
REMARK    6  A    between atoms: N_11  and  C_12
REMARK    7  A    between atoms: N_16  and  C_17
REMARK    8  A    between atoms: C_17  and  C_18
REMARK    9  A    between atoms: C_17  and  C_19
REMARK                            x       y       z     vdW  Elec       q    Type
REMARK                         _______ _______ _______ _____ _____    ______ ____
ROOT
ATOM      1  C   UNL     1      -1.445  -2.336  -2.502  0.00  0.00    +0.266 C 
ATOM      2  O   UNL     1      -2.291  -3.151  -2.824  0.00  0.00    -0.268 OA
ATOM      3  N   UNL     1      -1.628  -1.030  -2.778  0.00  0.00    -0.265 N 
ATOM      4  H   UNL     1      -0.923  -0.391  -2.590  0.00  0.00    +0.157 HD
ENDROOT
BRANCH   1   9
ATOM      5  N   UNL     1       0.133  -4.079  -1.557  0.00  0.00    -0.341 N 
ATOM      6  C   UNL     1       1.329  -4.079  -0.909  0.00  0.00    +0.109 A 
ATOM      7  C   UNL     1       1.738  -2.794  -0.744  0.00  0.00    +0.043 A 
ATOM      8  C   UNL     1       0.763  -1.960  -1.309  0.00  0.00    +0.055 A 
ATOM      9  C   UNL     1      -0.227  -2.777  -1.815  0.00  0.00    +0.107 A 
BRANCH   7  10
ATOM     10  N   UNL     1       2.926  -2.375  -0.119  0.00  0.00    -0.357 N 
ATOM     11  H   UNL     1       3.542  -3.032   0.243  0.00  0.00    +0.142 HD
ATOM     12  H   UNL     1       3.131  -1.429  -0.049  0.00  0.00    +0.142 HD
ENDBRANCH   7  10
BRANCH   5  13
ATOM     13  C   UNL     1      -0.639  -5.268  -1.924  0.00  0.00    +0.122 C 
BRANCH  13  15
ATOM     14  C   UNL     1      -1.208  -6.838  -3.782  0.00  0.00    +0.005 C 
ATOM     15  C   UNL     1      -0.401  -5.596  -3.399  0.00  0.00    +0.018 C 
ENDBRANCH  13  15
ENDBRANCH   5  13
ENDBRANCH   1   9
BRANCH   3  16
ATOM     16  C   UNL     1      -2.832  -0.597  -3.332  0.00  0.00    +0.124 A 
ATOM     17  C   UNL     1      -3.904  -1.377  -3.640  0.00  0.00    +0.065 A 
ATOM     18  C   UNL     1      -4.897  -0.551  -4.172  0.00  0.00    +0.136 A 
ATOM     19  N   UNL     1      -4.449   0.678  -4.187  0.00  0.00    -0.178 NA
ATOM     20  N   UNL     1      -3.151   0.682  -3.659  0.00  0.00    -0.248 N 
BRANCH  20  21
ATOM     21  C   UNL     1      -2.291   1.856  -3.492  0.00  0.00    +0.103 C 
ATOM     22  C   UNL     1      -2.047   2.507  -4.855  0.00  0.00    +0.032 C 
ATOM     23  C   UNL     1      -2.974   2.861  -2.562  0.00  0.00    +0.032 C 
ENDBRANCH  20  21
ENDBRANCH   3  16
TORSDOF 6
