REMARK  Name = ZINC08586267
REMARK  12 active torsions:
REMARK  status: ('A' for Active; 'I' for Inactive)
REMARK    1  A    between atoms: C_1  and  O_2
REMARK    2  A    between atoms: O_2  and  C_3
REMARK    3  A    between atoms: C_8  and  C_14
REMARK    4  A    between atoms: C_9  and  O_13
REMARK    5  A    between atoms: C_14  and  N_61
REMARK    6  A    between atoms: C_15  and  C_16
REMARK    7  A    between atoms: C_15  and  N_61
REMARK    8  A    between atoms: C_16  and  C_17
REMARK    9  A    between atoms: C_23  and  C_24
REMARK   10  A    between atoms: C_23  and  N_61
REMARK   11  A    between atoms: N_28  and  C_29
REMARK   12  A    between atoms: C_29  and  C_30
REMARK                            x       y       z     vdW  Elec       q    Type
REMARK                         _______ _______ _______ _____ _____    ______ ____
ROOT
ATOM      1  N   UNL     1      -0.949   1.634  -0.998  0.00  0.00    +0.387 N 
ATOM      2  H   UNL     1      -1.839   1.297  -0.613  0.00  0.00    -0.081 HD
ENDROOT
BRANCH   1   3
ATOM      3  C   UNL     1       0.158   1.144  -0.149  0.00  0.00    -0.037 C 
BRANCH   3   9
ATOM      4  C   UNL     1      -0.878   2.206   6.127  0.00  0.00    +0.122 A 
ATOM      5  C   UNL     1       0.219   2.969   5.716  0.00  0.00    +0.046 A 
ATOM      6  C   UNL     1       0.652   2.929   4.428  0.00  0.00    +0.013 A 
ATOM      7  C   UNL     1      -0.006   2.113   3.494  0.00  0.00    +0.001 A 
ATOM      8  C   UNL     1       0.419   2.051   2.152  0.00  0.00    +0.017 A 
ATOM      9  C   UNL     1      -0.263   1.240   1.294  0.00  0.00    -0.002 A 
ATOM     10  C   UNL     1      -1.359   0.501   1.755  0.00  0.00    +0.214 A 
ATOM     11  N   UNL     1      -1.750   0.559   3.010  0.00  0.00    -0.213 NA
ATOM     12  C   UNL     1      -1.119   1.337   3.899  0.00  0.00    +0.078 A 
ATOM     13  C   UNL     1      -1.546   1.397   5.235  0.00  0.00    +0.074 A 
BRANCH   4  15
ATOM     14  C   UNL     1      -0.558   3.121   8.296  0.00  0.00    +0.277 C 
ATOM     15  O   UNL     1      -1.291   2.263   7.420  0.00  0.00    -0.495 OA
ENDBRANCH   4  15
BRANCH  10  16
ATOM     16  O   UNL     1      -2.030  -0.297   0.889  0.00  0.00    -0.492 OA
ATOM     17  H   UNL     1      -1.738  -1.218   0.896  0.00  0.00    +0.294 HD
ENDBRANCH  10  16
ENDBRANCH   3   9
ENDBRANCH   1   3
BRANCH   1  18
ATOM     18  C   UNL     1      -0.960   3.112  -1.011  0.00  0.00    -0.073 C 
BRANCH  18  19
ATOM     19  C   UNL     1      -1.601   3.607   0.287  0.00  0.00    +0.016 C 
BRANCH  19  20
ATOM     20  C   UNL     1      -1.750   5.106   0.233  0.00  0.00    -0.049 A 
ATOM     21  C   UNL     1      -0.697   5.919   0.609  0.00  0.00    +0.003 A 
ATOM     22  C   UNL     1      -0.833   7.294   0.554  0.00  0.00    +0.000 A 
ATOM     23  C   UNL     1      -2.024   7.856   0.134  0.00  0.00    +0.000 A 
ATOM     24  C   UNL     1      -3.079   7.042  -0.236  0.00  0.00    +0.000 A 
ATOM     25  C   UNL     1      -2.942   5.668  -0.187  0.00  0.00    +0.003 A 
ENDBRANCH  19  20
ENDBRANCH  18  19
ENDBRANCH   1  18
BRANCH   1  26
ATOM     26  C   UNL     1      -0.795   1.118  -2.375  0.00  0.00    +0.001 C 
BRANCH  26  27
ATOM     27  C   UNL     1      -2.091   1.324  -3.116  0.00  0.00    +0.136 A 
ATOM     28  N   UNL     1      -3.156   0.563  -3.055  0.00  0.00    -0.115 NA
ATOM     29  N   UNL     1      -4.053   1.071  -3.829  0.00  0.00    -0.023 NA
ATOM     30  N   UNL     1      -3.584   2.132  -4.388  0.00  0.00    -0.044 NA
ATOM     31  N   UNL     1      -2.377   2.321  -3.974  0.00  0.00    -0.224 N 
BRANCH  31  32
ATOM     32  C   UNL     1      -1.485   3.416  -4.364  0.00  0.00    +0.221 C 
BRANCH  32  33
ATOM     33  C   UNL     1      -0.794   3.066  -5.656  0.00  0.00    +0.126 A 
ATOM     34  C   UNL     1      -1.250   3.341  -6.892  0.00  0.00    +0.046 A 
ATOM     35  C   UNL     1      -0.293   2.840  -7.803  0.00  0.00    +0.041 A 
ATOM     36  C   UNL     1       0.687   2.280  -7.070  0.00  0.00    +0.195 A 
ATOM     37  O   UNL     1       0.378   2.420  -5.771  0.00  0.00    -0.466 OA
ENDBRANCH  32  33
ENDBRANCH  31  32
ENDBRANCH  26  27
ENDBRANCH   1  26
TORSDOF 11
