REMARK  Name = ZINC41068057
REMARK  5 active torsions:
REMARK  status: ('A' for Active; 'I' for Inactive)
REMARK    1  A    between atoms: C_1  and  N_2
REMARK    2  A    between atoms: N_2  and  C_3
REMARK    3  A    between atoms: N_2  and  S_14
REMARK    4  A    between atoms: S_14  and  C_17
REMARK    5  A    between atoms: C_19  and  N_22
REMARK                            x       y       z     vdW  Elec       q    Type
REMARK                         _______ _______ _______ _____ _____    ______ ____
ROOT
ATOM      1  C   UNL     1      -0.018   1.461   0.010  0.00  0.00    +0.132 C 
ATOM      2  N   UNL     1       0.002  -0.004   0.002  0.00  0.00    -0.172 NA
ENDROOT
BRANCH   2   3
ATOM      3  C   UNL     1       0.024  -0.743   1.267  0.00  0.00    +0.110 C 
ATOM      4  C   UNL     1      -1.228  -0.402   2.071  0.00  0.00    +0.026 C 
ATOM      5  C   UNL     1      -1.083  -1.009   3.472  0.00  0.00    +0.007 C 
ATOM      6  C   UNL     1      -0.001  -0.235   4.222  0.00  0.00    +0.035 C 
ATOM      7  C   UNL     1       1.254  -0.144   3.394  0.00  0.00    -0.043 A 
ATOM      8  C   UNL     1       1.265  -0.373   2.037  0.00  0.00    -0.025 A 
ATOM      9  C   UNL     1       2.456  -0.266   1.331  0.00  0.00    +0.005 A 
ATOM     10  C   UNL     1       3.628   0.065   1.980  0.00  0.00    +0.000 A 
ATOM     11  C   UNL     1       3.617   0.292   3.343  0.00  0.00    +0.000 A 
ATOM     12  C   UNL     1       2.436   0.186   4.045  0.00  0.00    +0.004 A 
ENDBRANCH   2   3
BRANCH   2  13
ATOM     13  S   UNL     1      -0.000  -0.824  -1.437  0.00  0.00    +0.067 S 
ATOM     14  O   UNL     1      -0.531  -2.115  -1.167  0.00  0.00    -0.152 OA
ATOM     15  O   UNL     1      -0.572   0.049  -2.401  0.00  0.00    -0.152 OA
BRANCH  13  16
ATOM     16  C   UNL     1       1.682  -1.059  -1.905  0.00  0.00    +0.144 A 
ATOM     17  C   UNL     1       2.512  -2.091  -1.615  0.00  0.00    +0.059 A 
ATOM     18  C   UNL     1       3.811  -2.063  -2.096  0.00  0.00    +0.034 A 
ATOM     19  C   UNL     1       4.211  -1.002  -2.844  0.00  0.00    +0.069 A 
ATOM     20  S   UNL     1       2.731  -0.004  -2.891  0.00  0.00    -0.075 S 
BRANCH  18  21
ATOM     21  N   UNL     1       4.702  -3.117  -1.814  0.00  0.00    -0.358 N 
ATOM     22  H   UNL     1       4.408  -3.870  -1.279  0.00  0.00    +0.142 HD
ATOM     23  H   UNL     1       5.609  -3.089  -2.155  0.00  0.00    +0.142 HD
ENDBRANCH  18  21
ENDBRANCH  13  16
ENDBRANCH   2  13
TORSDOF 4
