REMARK  Name = ZINC59503388
REMARK  8 active torsions:
REMARK  status: ('A' for Active; 'I' for Inactive)
REMARK    1  A    between atoms: C_2  and  C_8
REMARK    2  A    between atoms: C_5  and  O_7
REMARK    3  A    between atoms: N_9  and  N_10
REMARK    4  A    between atoms: C_11  and  C_13
REMARK    5  A    between atoms: C_17  and  C_18
REMARK    6  A    between atoms: N_20  and  N_21
REMARK    7  A    between atoms: C_22  and  C_23
REMARK    8  A    between atoms: C_26  and  O_29
REMARK                            x       y       z     vdW  Elec       q    Type
REMARK                         _______ _______ _______ _____ _____    ______ ____
ROOT
ATOM      1  C   UNL     1       3.420   7.789   0.010  0.00  0.00    +0.202 A 
ATOM      2  N   UNL     1       2.353   8.544   0.029  0.00  0.00    -0.043 NA
ATOM      3  O   UNL     1       2.777   9.896   0.030  0.00  0.00    -0.241 OA
ATOM      4  N   UNL     1       4.193   9.903   0.010  0.00  0.00    -0.043 NA
ATOM      5  C   UNL     1       4.601   8.662   0.003  0.00  0.00    +0.202 A 
ENDROOT
BRANCH   1   7
ATOM      6  N   UNL     1       2.274   5.622   0.010  0.00  0.00    -0.202 N 
ATOM      7  C   UNL     1       3.435   6.308   0.002  0.00  0.00    +0.287 C 
ATOM      8  O   UNL     1       4.493   5.710  -0.011  0.00  0.00    -0.267 OA
ATOM      9  H   UNL     1       1.430   6.098   0.020  0.00  0.00    +0.178 HD
BRANCH   6  11
ATOM     10  C   UNL     1       1.171   3.561   0.009  0.00  0.00    +0.138 C 
ATOM     11  N   UNL     1       2.288   4.221   0.002  0.00  0.00    -0.187 NA
BRANCH  10  13
ATOM     12  C   UNL     1      -0.017   1.374   0.010  0.00  0.00    +0.013 A 
ATOM     13  C   UNL     1       1.185   2.087   0.002  0.00  0.00    -0.005 A 
ATOM     14  C   UNL     1       2.401   1.398  -0.013  0.00  0.00    +0.013 A 
ATOM     15  C   UNL     1       2.410   0.020  -0.021  0.00  0.00    +0.046 A 
ATOM     16  C   UNL     1       1.213  -0.684  -0.014  0.00  0.00    +0.117 A 
ATOM     17  C   UNL     1       0.002  -0.004   0.002  0.00  0.00    +0.046 A 
BRANCH  16  18
ATOM     18  O   UNL     1       1.227  -2.043  -0.022  0.00  0.00    -0.507 OA
ATOM     19  H   UNL     1       1.239  -2.441   0.859  0.00  0.00    +0.292 HD
ENDBRANCH  16  18
ENDBRANCH  10  13
ENDBRANCH   6  11
ENDBRANCH   1   7
BRANCH   5  20
ATOM     20  C   UNL     1       6.013   8.211  -0.013  0.00  0.00    +0.287 C 
ATOM     21  O   UNL     1       6.272   7.024  -0.022  0.00  0.00    -0.267 OA
ATOM     22  N   UNL     1       7.009   9.119  -0.018  0.00  0.00    -0.202 N 
ATOM     23  H   UNL     1       6.803  10.066  -0.010  0.00  0.00    +0.178 HD
BRANCH  22  24
ATOM     24  N   UNL     1       8.344   8.693  -0.033  0.00  0.00    -0.187 NA
ATOM     25  C   UNL     1       9.304   9.567  -0.037  0.00  0.00    +0.138 C 
BRANCH  25  26
ATOM     26  C   UNL     1      10.708   9.120  -0.053  0.00  0.00    -0.005 A 
ATOM     27  C   UNL     1      11.009   7.755  -0.069  0.00  0.00    +0.013 A 
ATOM     28  C   UNL     1      12.323   7.341  -0.084  0.00  0.00    +0.046 A 
ATOM     29  C   UNL     1      13.348   8.278  -0.084  0.00  0.00    +0.117 A 
ATOM     30  C   UNL     1      13.055   9.635  -0.068  0.00  0.00    +0.046 A 
ATOM     31  C   UNL     1      11.743  10.059  -0.058  0.00  0.00    +0.013 A 
BRANCH  29  32
ATOM     32  O   UNL     1      14.643   7.865  -0.099  0.00  0.00    -0.507 OA
ATOM     33  H   UNL     1      15.010   7.754  -0.986  0.00  0.00    +0.292 HD
ENDBRANCH  29  32
ENDBRANCH  25  26
ENDBRANCH  22  24
ENDBRANCH   5  20
TORSDOF 8
