REMARK  Name = ZINC03060464
REMARK  9 active torsions:
REMARK  status: ('A' for Active; 'I' for Inactive)
REMARK    1  A    between atoms: C_1  and  C_2
REMARK    2  A    between atoms: C_5  and  C_8
REMARK    3  A    between atoms: C_8  and  N_9
REMARK    4  A    between atoms: C_10  and  C_12
REMARK    5  A    between atoms: C_12  and  N_13
REMARK    6  A    between atoms: C_16  and  C_24
REMARK    7  A    between atoms: C_24  and  C_25
REMARK    8  A    between atoms: C_24  and  C_26
REMARK    9  A    between atoms: C_24  and  C_27
REMARK                            x       y       z     vdW  Elec       q    Type
REMARK                         _______ _______ _______ _____ _____    ______ ____
ROOT
ATOM      1  N   UNL     1      -3.932  -2.162   1.279  0.00  0.00    -0.257 N 
ATOM      2  C   UNL     1      -3.675  -0.783   1.283  0.00  0.00    +0.079 A 
ATOM      3  C   UNL     1      -2.374  -0.306   1.272  0.00  0.00    +0.031 A 
ATOM      4  C   UNL     1      -2.143   1.058   1.278  0.00  0.00    -0.040 A 
ATOM      5  C   UNL     1      -3.204   1.944   1.298  0.00  0.00    +0.008 A 
ATOM      6  C   UNL     1      -4.505   1.473   1.302  0.00  0.00    +0.048 A 
ATOM      7  C   UNL     1      -4.745   0.110   1.298  0.00  0.00    +0.143 A 
ATOM      8  O   UNL     1      -6.017  -0.370   1.308  0.00  0.00    -0.481 OA
ATOM      9  C   UNL     1      -6.246  -1.598   0.611  0.00  0.00    +0.325 C 
ATOM     10  C   UNL     1      -5.175  -2.594   0.975  0.00  0.00    +0.258 C 
ATOM     11  O   UNL     1      -5.429  -3.780   0.995  0.00  0.00    -0.271 OA
ENDROOT
BRANCH   4  12
ATOM     12  C   UNL     1      -0.729   1.579   1.267  0.00  0.00    -0.013 C 
ATOM     13  C   UNL     1      -0.013   1.086   0.008  0.00  0.00    +0.015 C 
ATOM     14  C   UNL     1       0.011   1.072   2.506  0.00  0.00    +0.015 C 
ATOM     15  C   UNL     1      -0.750   3.109   1.275  0.00  0.00    +0.015 C 
ENDBRANCH   4  12
BRANCH   1  16
ATOM     16  C   UNL     1      -2.869  -3.118   1.598  0.00  0.00    +0.209 C 
BRANCH  16  18
ATOM     17  N   UNL     1      -1.961  -4.236   3.609  0.00  0.00    -0.310 N 
ATOM     18  C   UNL     1      -2.861  -3.383   3.082  0.00  0.00    +0.231 C 
ATOM     19  O   UNL     1      -3.664  -2.828   3.801  0.00  0.00    -0.274 OA
ATOM     20  H   UNL     1      -1.319  -4.680   3.034  0.00  0.00    +0.149 HD
BRANCH  17  21
ATOM     21  C   UNL     1      -1.954  -4.494   5.051  0.00  0.00    +0.139 C 
BRANCH  21  26
ATOM     22  C   UNL     1       2.239  -8.265   6.313  0.00  0.00    +0.044 C 
ATOM     23  C   UNL     1       1.146  -7.282   5.984  0.00  0.00    -0.050 A 
ATOM     24  C   UNL     1       1.411  -5.925   5.990  0.00  0.00    +0.003 A 
ATOM     25  C   UNL     1       0.408  -5.023   5.689  0.00  0.00    +0.005 A 
ATOM     26  C   UNL     1      -0.860  -5.478   5.380  0.00  0.00    -0.030 A 
ATOM     27  C   UNL     1      -1.127  -6.834   5.379  0.00  0.00    +0.005 A 
ATOM     28  C   UNL     1      -0.123  -7.736   5.676  0.00  0.00    +0.003 A 
ENDBRANCH  21  26
ENDBRANCH  17  21
ENDBRANCH  16  18
ENDBRANCH   1  16
TORSDOF 5
