REMARK  Name = ZINC38549561
REMARK  6 active torsions:
REMARK  status: ('A' for Active; 'I' for Inactive)
REMARK    1  A    between atoms: C_1  and  C_2
REMARK    2  A    between atoms: C_2  and  C_20
REMARK    3  A    between atoms: N_3  and  N_4
REMARK    4  A    between atoms: C_5  and  C_7
REMARK    5  A    between atoms: C_10  and  C_13
REMARK    6  A    between atoms: C_25  and  O_26
REMARK                            x       y       z     vdW  Elec       q    Type
REMARK                         _______ _______ _______ _____ _____    ______ ____
ROOT
ATOM      1  N   UNL     1      -0.223  -2.030   1.139  0.00  0.00    -0.205 N 
ATOM      2  C   UNL     1      -0.383  -2.687   2.305  0.00  0.00    +0.263 C 
ATOM      3  O   UNL     1      -0.379  -2.074   3.352  0.00  0.00    -0.271 OA
ATOM      4  H   UNL     1      -0.227  -2.520   0.302  0.00  0.00    +0.177 HD
ENDROOT
BRANCH   2   5
ATOM      5  C   UNL     1      -0.568  -4.182   2.308  0.00  0.00    +0.240 C 
ATOM      6  C   UNL     1      -2.015  -4.545   2.026  0.00  0.00    +0.041 C 
ATOM      7  C   UNL     1      -2.407  -5.196   3.138  0.00  0.00    +0.092 C 
ATOM      8  N   UNL     1      -1.387  -5.263   4.033  0.00  0.00    -0.153 NA
ATOM      9  N   UNL     1      -0.337  -4.731   3.655  0.00  0.00    -0.170 NA
BRANCH   7  10
ATOM     10  C   UNL     1      -3.763  -5.758   3.355  0.00  0.00    +0.002 A 
ATOM     11  C   UNL     1      -4.737  -5.637   2.365  0.00  0.00    +0.011 A 
ATOM     12  C   UNL     1      -5.996  -6.163   2.572  0.00  0.00    +0.020 A 
ATOM     13  C   UNL     1      -6.293  -6.809   3.760  0.00  0.00    +0.041 A 
ATOM     14  C   UNL     1      -5.329  -6.932   4.746  0.00  0.00    +0.020 A 
ATOM     15  C   UNL     1      -4.064  -6.415   4.546  0.00  0.00    +0.011 A 
ATOM     16 CL   UNL     1      -7.879  -7.466   4.015  0.00  0.00    -0.084 Cl
ENDBRANCH   7  10
ENDBRANCH   2   5
BRANCH   1  19
ATOM     17  C   UNL     1       0.091   1.510   0.009  0.00  0.00    +0.068 C 
ATOM     18  C   UNL     1      -0.005   0.006   0.011  0.00  0.00    +0.067 C 
ATOM     19  N   UNL     1      -0.052  -0.639   1.136  0.00  0.00    -0.184 NA
BRANCH  18  20
ATOM     20  C   UNL     1      -0.045  -0.731  -1.264  0.00  0.00    +0.039 A 
ATOM     21  C   UNL     1      -1.191  -1.442  -1.629  0.00  0.00    +0.013 A 
ATOM     22  C   UNL     1      -1.222  -2.130  -2.824  0.00  0.00    +0.001 A 
ATOM     23  C   UNL     1      -0.121  -2.119  -3.664  0.00  0.00    +0.004 A 
ATOM     24  C   UNL     1       1.018  -1.420  -3.314  0.00  0.00    +0.046 A 
ATOM     25  C   UNL     1       1.065  -0.719  -2.120  0.00  0.00    +0.126 A 
BRANCH  25  26
ATOM     26  O   UNL     1       2.182  -0.027  -1.778  0.00  0.00    -0.506 OA
ATOM     27  H   UNL     1       2.791  -0.520  -1.212  0.00  0.00    +0.292 HD
ENDBRANCH  25  26
ENDBRANCH  18  20
ENDBRANCH   1  19
TORSDOF 5
