REMARK  Name = ZINC34928933
REMARK  3 active torsions:
REMARK  status: ('A' for Active; 'I' for Inactive)
REMARK    1  A    between atoms: C_3  and  C_4
REMARK    2  A    between atoms: C_7  and  C_19
REMARK    3  A    between atoms: C_12  and  C_14
REMARK                            x       y       z     vdW  Elec       q    Type
REMARK                         _______ _______ _______ _____ _____    ______ ____
ROOT
ATOM      1  C   UNL     1      -0.408  -0.709  -1.292  0.00  0.00    +0.077 C 
ATOM      2  C   UNL     1      -0.332  -2.227  -1.098  0.00  0.00    +0.058 C 
ATOM      3  C   UNL     1      -0.674  -2.940  -2.411  0.00  0.00    +0.214 C 
ATOM      4  N   UNL     1      -1.925  -2.387  -2.939  0.00  0.00    -0.237 N 
ATOM      5  C   UNL     1      -2.438  -1.177  -2.563  0.00  0.00    +0.137 A 
ATOM      6  C   UNL     1      -3.591  -0.982  -3.233  0.00  0.00    +0.114 A 
ATOM      7  C   UNL     1      -3.802  -2.112  -4.057  0.00  0.00    +0.193 A 
ATOM      8  N   UNL     1      -2.795  -2.950  -3.873  0.00  0.00    -0.161 NA
ATOM      9 CL   UNL     1      -4.628   0.404  -3.106  0.00  0.00    -0.077 Cl
ATOM     10  N   UNL     1      -1.797  -0.345  -1.636  0.00  0.00    -0.325 N 
ATOM     11  H   UNL     1      -2.240   0.422  -1.241  0.00  0.00    +0.148 HD
ENDROOT
BRANCH   3  12
ATOM     12  C   UNL     1      -0.842  -4.439  -2.153  0.00  0.00    +0.412 C 
ATOM     13  F   UNL     1      -1.875  -4.640  -1.231  0.00  0.00    -0.168 F 
ATOM     14  F   UNL     1      -1.155  -5.087  -3.352  0.00  0.00    -0.168 F 
ATOM     15  F   UNL     1       0.350  -4.959  -1.638  0.00  0.00    -0.168 F 
ENDBRANCH   3  12
BRANCH   1  18
ATOM     16  C   UNL     1      -0.019   1.526   0.010  0.00  0.00    +0.005 C 
ATOM     17  C   UNL     1       1.317   0.779  -0.006  0.00  0.00    +0.005 C 
ATOM     18  C   UNL     1       0.002  -0.004   0.002  0.00  0.00    +0.009 C 
ENDBRANCH   1  18
BRANCH   7  19
ATOM     19  C   UNL     1      -4.945  -2.320  -4.964  0.00  0.00    +0.408 C 
ATOM     20  O   UNL     1      -5.819  -1.469  -5.051  0.00  0.00    -0.239 OA
ATOM     21  O   UNL     1      -5.019  -3.343  -5.630  0.00  0.00    -0.239 OA
ENDBRANCH   7  19
TORSDOF 3
