REMARK  Name = ZINC13254518
REMARK  7 active torsions:
REMARK  status: ('A' for Active; 'I' for Inactive)
REMARK    1  A    between atoms: C_1  and  C_2
REMARK    2  A    between atoms: C_5  and  O_8
REMARK    3  A    between atoms: O_8  and  C_9
REMARK    4  A    between atoms: C_9  and  C_10
REMARK    5  A    between atoms: N_12  and  N_13
REMARK    6  A    between atoms: C_14  and  C_16
REMARK    7  A    between atoms: C_22  and  C_24
REMARK                            x       y       z     vdW  Elec       q    Type
REMARK                         _______ _______ _______ _____ _____    ______ ____
ROOT
ATOM      1  C   UNL     1       3.524   1.904  -0.021  0.00  0.00    +0.267 C 
ATOM      2  O   UNL     1       3.508   3.117  -0.015  0.00  0.00    -0.271 OA
ATOM      3  N   UNL     1       2.366   1.214  -0.014  0.00  0.00    -0.232 N 
ATOM      4  H   UNL     1       2.379   0.244  -0.019  0.00  0.00    +0.173 HD
ENDROOT
BRANCH   3   5
ATOM      5  N   UNL     1       1.143   1.898   0.001  0.00  0.00    -0.234 N 
ATOM      6  C   UNL     1      -0.014   1.209   0.009  0.00  0.00    +0.233 C 
ATOM      7  O   UNL     1       0.002  -0.004   0.002  0.00  0.00    -0.274 OA
ATOM      8  H   UNL     1       1.130   2.868   0.007  0.00  0.00    +0.173 HD
BRANCH   6   9
ATOM      9  C   UNL     1      -1.330   1.944   0.019  0.00  0.00    +0.094 C 
ATOM     10  C   UNL     1      -1.433   2.831  -1.224  0.00  0.00    +0.040 C 
ATOM     11  C   UNL     1      -2.829   3.361  -1.366  0.00  0.00    -0.030 C 
ATOM     12  C   UNL     1      -3.859   2.866  -0.758  0.00  0.00    -0.030 C 
ATOM     13  C   UNL     1      -3.798   1.698   0.183  0.00  0.00    +0.042 C 
ATOM     14  C   UNL     1      -2.485   0.936  -0.008  0.00  0.00    +0.118 C 
BRANCH  14  15
ATOM     15  C   UNL     1      -2.312  -0.062   1.108  0.00  0.00    +0.360 C 
ATOM     16  O   UNL     1      -1.363   0.021   1.851  0.00  0.00    -0.246 OA
ATOM     17  O   UNL     1      -3.212  -1.044   1.277  0.00  0.00    -0.246 OA
ENDBRANCH  14  15
ENDBRANCH   6   9
ENDBRANCH   3   5
BRANCH   1  18
ATOM     18  C   UNL     1       4.839   1.168  -0.038  0.00  0.00    +0.326 C 
BRANCH  18  19
ATOM     19  O   UNL     1       5.913   2.112  -0.043  0.00  0.00    -0.483 OA
BRANCH  19  24
ATOM     20  C   UNL     1      11.146   0.030  -0.104  0.00  0.00    +0.044 C 
ATOM     21  C   UNL     1       9.746   0.587  -0.088  0.00  0.00    -0.050 A 
ATOM     22  C   UNL     1       9.547   1.955  -0.079  0.00  0.00    +0.007 A 
ATOM     23  C   UNL     1       8.265   2.468  -0.064  0.00  0.00    +0.046 A 
ATOM     24  C   UNL     1       7.175   1.609  -0.058  0.00  0.00    +0.121 A 
ATOM     25  C   UNL     1       7.377   0.237  -0.061  0.00  0.00    +0.046 A 
ATOM     26  C   UNL     1       8.662  -0.271  -0.082  0.00  0.00    +0.007 A 
ENDBRANCH  19  24
ENDBRANCH  18  19
ENDBRANCH   1  18
TORSDOF 6
