REMARK  Name = ZINC00866913
REMARK  5 active torsions:
REMARK  status: ('A' for Active; 'I' for Inactive)
REMARK    1  A    between atoms: C_3  and  C_6
REMARK    2  A    between atoms: C_9  and  C_27
REMARK    3  A    between atoms: C_14  and  C_16
REMARK    4  A    between atoms: N_18  and  C_19
REMARK    5  A    between atoms: C_19  and  C_20
REMARK                            x       y       z     vdW  Elec       q    Type
REMARK                         _______ _______ _______ _____ _____    ______ ____
ROOT
ATOM      1  C   UNL     1       3.599   0.625  -0.029  0.00  0.00    +0.140 C 
ATOM      2  C   UNL     1       4.093   0.360  -1.456  0.00  0.00    +0.066 C 
ATOM      3  C   UNL     1       5.625   0.392  -1.492  0.00  0.00    +0.215 C 
ATOM      4  N   UNL     1       6.143  -0.469  -0.425  0.00  0.00    -0.237 N 
ATOM      5  C   UNL     1       5.407  -0.862   0.657  0.00  0.00    +0.137 A 
ATOM      6  C   UNL     1       6.183  -1.645   1.432  0.00  0.00    +0.112 A 
ATOM      7  C   UNL     1       7.449  -1.741   0.809  0.00  0.00    +0.167 A 
ATOM      8  N   UNL     1       7.414  -1.030  -0.305  0.00  0.00    -0.163 NA
ATOM      9 CL   UNL     1       5.714  -2.400   2.923  0.00  0.00    -0.078 Cl
ATOM     10  N   UNL     1       4.078  -0.462   0.847  0.00  0.00    -0.318 N 
ATOM     11  H   UNL     1       3.506  -0.876   1.512  0.00  0.00    +0.148 HD
ENDROOT
BRANCH   1  14
ATOM     12  C   UNL     1      -0.016   1.341   0.009  0.00  0.00    +0.041 A 
ATOM     13  C   UNL     1       1.331   1.769  -0.001  0.00  0.00    +0.046 A 
ATOM     14  C   UNL     1       2.092   0.660  -0.014  0.00  0.00    +0.125 A 
ATOM     15  O   UNL     1       1.282  -0.411  -0.012  0.00  0.00    -0.466 OA
ATOM     16  C   UNL     1       0.002  -0.004   0.002  0.00  0.00    +0.195 A 
ENDBRANCH   1  14
BRANCH   7  17
ATOM     17  C   UNL     1       8.609  -2.501   1.316  0.00  0.00    +0.266 C 
ATOM     18  O   UNL     1       8.521  -3.120   2.359  0.00  0.00    -0.268 OA
ATOM     19  N   UNL     1       9.764  -2.510   0.623  0.00  0.00    -0.305 N 
ATOM     20  H   UNL     1       9.834  -2.017  -0.210  0.00  0.00    +0.149 HD
BRANCH  19  21
ATOM     21  C   UNL     1      10.915  -3.264   1.125  0.00  0.00    +0.147 C 
BRANCH  21  22
ATOM     22  C   UNL     1      12.072  -3.111   0.172  0.00  0.00    +0.007 A 
ATOM     23  C   UNL     1      13.055  -2.178   0.166  0.00  0.00    +0.013 A 
ATOM     24  C   UNL     1      14.025  -2.234  -0.817  0.00  0.00    +0.008 A 
ATOM     25  C   UNL     1      13.965  -3.219  -1.746  0.00  0.00    +0.045 A 
ATOM     26  S   UNL     1      12.507  -4.116  -1.238  0.00  0.00    -0.100 S 
ENDBRANCH  21  22
ENDBRANCH  19  21
ENDBRANCH   7  17
BRANCH   3  27
ATOM     27  C   UNL     1       6.117  -0.116  -2.849  0.00  0.00    +0.412 C 
ATOM     28  F   UNL     1       5.611   0.702  -3.864  0.00  0.00    -0.168 F 
ATOM     29  F   UNL     1       7.515  -0.086  -2.879  0.00  0.00    -0.168 F 
ATOM     30  F   UNL     1       5.674  -1.429  -3.043  0.00  0.00    -0.168 F 
ENDBRANCH   3  27
TORSDOF 5
