REMARK  Name = ZINC09162904
REMARK  11 active torsions:
REMARK  status: ('A' for Active; 'I' for Inactive)
REMARK    1  A    between atoms: C_4  and  N_29
REMARK    2  A    between atoms: C_5  and  C_7
REMARK    3  A    between atoms: C_7  and  O_9
REMARK    4  A    between atoms: O_9  and  C_10
REMARK    5  A    between atoms: C_10  and  C_11
REMARK    6  A    between atoms: N_13  and  C_14
REMARK    7  A    between atoms: C_18  and  S_20
REMARK    8  A    between atoms: S_20  and  N_23
REMARK    9  A    between atoms: N_29  and  C_30
REMARK   10  A    between atoms: C_30  and  C_31
REMARK   11  A    between atoms: C_31  and  O_32
REMARK                            x       y       z     vdW  Elec       q    Type
REMARK                         _______ _______ _______ _____ _____    ______ ____
ROOT
ATOM      1  C   UNL     1      -0.817  -5.400  -0.203  0.00  0.00    +0.255 C 
ATOM      2  O   UNL     1      -1.866  -4.795  -0.133  0.00  0.00    -0.272 OA
ATOM      3  N   UNL     1      -0.820  -6.732  -0.408  0.00  0.00    -0.283 N 
ATOM      4  H   UNL     1       0.014  -7.227  -0.389  0.00  0.00    +0.155 HD
ENDROOT
BRANCH   3   5
ATOM      5  C   UNL     1      -2.025  -7.401  -0.647  0.00  0.00    +0.035 A 
ATOM      6  C   UNL     1      -2.201  -8.702  -0.194  0.00  0.00    +0.023 A 
ATOM      7  C   UNL     1      -3.392  -9.359  -0.431  0.00  0.00    +0.004 A 
ATOM      8  C   UNL     1      -4.409  -8.723  -1.121  0.00  0.00    +0.029 A 
ATOM      9  C   UNL     1      -4.237  -7.429  -1.573  0.00  0.00    +0.114 A 
ATOM     10  C   UNL     1      -3.050  -6.763  -1.333  0.00  0.00    +0.052 A 
BRANCH   9  11
ATOM     11  S   UNL     1      -5.535  -6.623  -2.451  0.00  0.00    +0.100 S 
ATOM     12  O   UNL     1      -4.925  -5.612  -3.241  0.00  0.00    -0.146 OA
ATOM     13  O   UNL     1      -6.341  -7.649  -3.015  0.00  0.00    -0.146 OA
BRANCH  11  14
ATOM     14  N   UNL     1      -6.475  -5.846  -1.331  0.00  0.00    -0.118 NA
ATOM     15  C   UNL     1      -7.509  -5.169  -1.712  0.00  0.00    +0.117 C 
ATOM     16  C   UNL     1      -8.441  -4.411  -0.792  0.00  0.00    +0.074 C 
ATOM     17  C   UNL     1      -9.217  -3.461  -1.732  0.00  0.00    +0.026 C 
ATOM     18  C   UNL     1      -9.137  -4.206  -3.082  0.00  0.00    +0.103 C 
ATOM     19  N   UNL     1      -7.921  -5.026  -3.008  0.00  0.00    -0.331 N 
ATOM     20  H   UNL     1      -7.473  -5.415  -3.774  0.00  0.00    +0.147 HD
ENDBRANCH  11  14
ENDBRANCH   9  11
ENDBRANCH   3   5
BRANCH   1  21
ATOM     21  C   UNL     1       0.489  -4.662  -0.062  0.00  0.00    +0.328 C 
BRANCH  21  22
ATOM     22  O   UNL     1       0.231  -3.272   0.146  0.00  0.00    -0.452 OA
BRANCH  22  23
ATOM     23  C   UNL     1       1.301  -2.466   0.292  0.00  0.00    +0.341 C 
ATOM     24  O   UNL     1       2.422  -2.930   0.245  0.00  0.00    -0.245 OA
BRANCH  23  29
ATOM     25  C   UNL     1      -0.346   0.852   0.886  0.00  0.00    +0.001 A 
ATOM     26  C   UNL     1       0.751   1.700   0.918  0.00  0.00    +0.002 A 
ATOM     27  C   UNL     1       2.025   1.201   0.749  0.00  0.00    +0.024 A 
ATOM     28  C   UNL     1       2.219  -0.160   0.543  0.00  0.00    +0.041 A 
ATOM     29  C   UNL     1       1.110  -1.021   0.510  0.00  0.00    +0.080 A 
ATOM     30  C   UNL     1      -0.175  -0.499   0.684  0.00  0.00    +0.017 A 
BRANCH  28  31
ATOM     31  N   UNL     1       3.501  -0.665   0.371  0.00  0.00    -0.341 N 
ATOM     32  H   UNL     1       3.641  -1.623   0.320  0.00  0.00    +0.146 HD
BRANCH  31  33
ATOM     33  C   UNL     1       4.640   0.250   0.268  0.00  0.00    +0.129 C 
BRANCH  33  34
ATOM     34  C   UNL     1       5.927  -0.557   0.085  0.00  0.00    +0.174 C 
BRANCH  34  35
ATOM     35  O   UNL     1       5.882  -1.248  -1.165  0.00  0.00    -0.393 OA
ATOM     36  H   UNL     1       6.668  -1.781  -1.348  0.00  0.00    +0.209 HD
ENDBRANCH  34  35
ENDBRANCH  33  34
ENDBRANCH  31  33
ENDBRANCH  28  31
ENDBRANCH  23  29
ENDBRANCH  22  23
ENDBRANCH  21  22
ENDBRANCH   1  21
TORSDOF 11
