REMARK  Name = ZINC40736460
REMARK  8 active torsions:
REMARK  status: ('A' for Active; 'I' for Inactive)
REMARK    1  A    between atoms: C_1  and  C_2
REMARK    2  A    between atoms: C_2  and  N_3
REMARK    3  A    between atoms: N_3  and  C_4
REMARK    4  A    between atoms: C_4  and  C_5
REMARK    5  A    between atoms: C_5  and  O_6
REMARK    6  A    between atoms: C_8  and  N_25
REMARK    7  A    between atoms: C_9  and  N_13
REMARK    8  A    between atoms: C_17  and  C_20
REMARK                            x       y       z     vdW  Elec       q    Type
REMARK                         _______ _______ _______ _____ _____    ______ ____
ROOT
ATOM      1  N   UNL     1       0.709  -0.497   1.186  0.00  0.00    -0.312 N 
ATOM      2  C   UNL     1       2.078  -0.735   1.240  0.00  0.00    +0.147 A 
ATOM      3  C   UNL     1       2.889  -0.460   0.137  0.00  0.00    +0.106 A 
ATOM      4  C   UNL     1       4.256  -0.717   0.244  0.00  0.00    +0.150 A 
ATOM      5  N   UNL     1       4.732  -1.210   1.385  0.00  0.00    -0.219 NA
ATOM      6  C   UNL     1       3.932  -1.455   2.403  0.00  0.00    +0.225 A 
ATOM      7  N   UNL     1       2.636  -1.222   2.345  0.00  0.00    -0.219 NA
ENDROOT
BRANCH   4   8
ATOM      8  N   UNL     1       5.109  -0.463  -0.825  0.00  0.00    -0.282 N 
ATOM      9  C   UNL     1       6.471  -0.723  -0.707  0.00  0.00    +0.142 A 
ATOM     10  C   UNL     1       7.320  -0.460  -1.778  0.00  0.00    +0.081 A 
ATOM     11  C   UNL     1       8.672  -0.724  -1.646  0.00  0.00    +0.037 A 
ATOM     12  C   UNL     1       9.131  -1.243  -0.442  0.00  0.00    +0.074 A 
ATOM     13  C   UNL     1       8.233  -1.479   0.579  0.00  0.00    +0.125 A 
ATOM     14  N   UNL     1       6.949  -1.213   0.427  0.00  0.00    -0.238 NA
ATOM     15 CL   UNL     1       6.691   0.188  -3.261  0.00  0.00    -0.080 Cl
ATOM     16  H   UNL     1       4.754  -0.103  -1.654  0.00  0.00    +0.155 HD
BRANCH  12  17
ATOM     17  C   UNL     1      10.595  -1.546  -0.253  0.00  0.00    +0.419 C 
ATOM     18  F   UNL     1      11.243  -0.417   0.259  0.00  0.00    -0.166 F 
ATOM     19  F   UNL     1      10.739  -2.612   0.642  0.00  0.00    -0.166 F 
ATOM     20  F   UNL     1      11.163  -1.892  -1.484  0.00  0.00    -0.166 F 
ENDBRANCH  12  17
ENDBRANCH   4   8
BRANCH   3  21
ATOM     21  N   UNL     1       2.343   0.059  -1.048  0.00  0.00    -0.353 N 
ATOM     22  H   UNL     1       1.405   0.303  -1.084  0.00  0.00    +0.143 HD
ATOM     23  H   UNL     1       2.905   0.174  -1.831  0.00  0.00    +0.143 HD
ENDBRANCH   3  21
BRANCH   1  25
ATOM     24  C   UNL     1      -0.517  -1.551  -0.649  0.00  0.00    +0.024 C 
ATOM     25  C   UNL     1      -0.210  -1.587   0.850  0.00  0.00    +0.103 C 
ENDBRANCH   1  25
BRANCH   1  26
ATOM     26  C   UNL     1       0.187   0.843   1.466  0.00  0.00    +0.134 C 
BRANCH  26  27
ATOM     27  C   UNL     1      -0.108   0.973   2.962  0.00  0.00    +0.174 C 
BRANCH  27  28
ATOM     28  O   UNL     1       1.113   0.882   3.698  0.00  0.00    -0.393 OA
ATOM     29  H   UNL     1       1.002   0.957   4.655  0.00  0.00    +0.209 HD
ENDBRANCH  27  28
ENDBRANCH  26  27
ENDBRANCH   1  26
TORSDOF 7
