REMARK  Name = ZINC45632320
REMARK  8 active torsions:
REMARK  status: ('A' for Active; 'I' for Inactive)
REMARK    1  A    between atoms: C_1  and  C_2
REMARK    2  A    between atoms: C_2  and  N_3
REMARK    3  A    between atoms: N_3  and  C_4
REMARK    4  A    between atoms: C_5  and  N_20
REMARK    5  A    between atoms: N_6  and  C_13
REMARK    6  A    between atoms: C_13  and  C_14
REMARK    7  A    between atoms: C_21  and  C_23
REMARK    8  A    between atoms: C_25  and  C_35
REMARK                            x       y       z     vdW  Elec       q    Type
REMARK                         _______ _______ _______ _____ _____    ______ ____
ROOT
ATOM      1  C   UNL     1      -2.284  -0.644  -0.991  0.00  0.00    +0.140 A 
ATOM      2  C   UNL     1      -3.527  -0.072  -1.166  0.00  0.00    +0.128 A 
ATOM      3  N   UNL     1      -4.213  -0.301  -2.336  0.00  0.00    -0.276 N 
ATOM      4  C   UNL     1      -3.678  -1.074  -3.298  0.00  0.00    +0.331 A 
ATOM      5  O   UNL     1      -4.300  -1.264  -4.326  0.00  0.00    -0.246 OA
ATOM      6  N   UNL     1      -2.467  -1.640  -3.145  0.00  0.00    -0.273 N 
ATOM      7  H   UNL     1      -2.104  -2.193  -3.854  0.00  0.00    +0.173 HD
ATOM      8  C   UNL     1      -1.752  -1.443  -2.021  0.00  0.00    +0.277 A 
ATOM      9  O   UNL     1      -0.653  -1.956  -1.894  0.00  0.00    -0.266 OA
ENDROOT
BRANCH   1  10
ATOM     10  N   UNL     1      -1.556  -0.429   0.199  0.00  0.00    -0.261 N 
ATOM     11  C   UNL     1      -2.022  -0.907   1.371  0.00  0.00    +0.264 C 
ATOM     12  O   UNL     1      -3.027  -1.585   1.393  0.00  0.00    -0.271 OA
BRANCH  11  13
ATOM     13  C   UNL     1      -1.293  -0.598   2.654  0.00  0.00    +0.299 C 
ATOM     14  C   UNL     1      -0.324  -1.741   2.987  0.00  0.00    +0.220 C 
ATOM     15  O   UNL     1      -1.085  -2.945   3.134  0.00  0.00    -0.481 OA
ATOM     16  C   UNL     1      -2.214  -2.866   3.890  0.00  0.00    +0.163 A 
ATOM     17  C   UNL     1      -2.792  -4.031   4.372  0.00  0.00    +0.049 A 
ATOM     18  C   UNL     1      -3.940  -3.968   5.139  0.00  0.00    +0.004 A 
ATOM     19  C   UNL     1      -4.516  -2.744   5.427  0.00  0.00    +0.004 A 
ATOM     20  C   UNL     1      -3.943  -1.580   4.951  0.00  0.00    +0.049 A 
ATOM     21  C   UNL     1      -2.790  -1.636   4.182  0.00  0.00    +0.163 A 
ATOM     22  O   UNL     1      -2.234  -0.479   3.727  0.00  0.00    -0.472 OA
ATOM     23  C   UNL     1       0.689  -1.905   1.852  0.00  0.00    +0.056 C 
ENDBRANCH  11  13
BRANCH  10  25
ATOM     24  C   UNL     1      -0.583   1.815   0.227  0.00  0.00    +0.025 C 
ATOM     25  C   UNL     1      -0.294   0.314   0.160  0.00  0.00    +0.111 C 
ENDBRANCH  10  25
ENDBRANCH   1  10
BRANCH   2  26
ATOM     26  N   UNL     1      -4.074   0.717  -0.182  0.00  0.00    -0.343 N 
ATOM     27  H   UNL     1      -3.617   0.820   0.667  0.00  0.00    +0.144 HD
ATOM     28  H   UNL     1      -4.917   1.171  -0.338  0.00  0.00    +0.144 HD
ENDBRANCH   2  26
BRANCH   3  29
ATOM     29  C   UNL     1      -5.534   0.301  -2.535  0.00  0.00    +0.163 C 
BRANCH  29  30
ATOM     30  C   UNL     1      -5.378   1.652  -3.185  0.00  0.00    -0.028 A 
ATOM     31  C   UNL     1      -5.231   2.782  -2.402  0.00  0.00    +0.005 A 
ATOM     32  C   UNL     1      -5.088   4.021  -2.997  0.00  0.00    +0.000 A 
ATOM     33  C   UNL     1      -5.091   4.130  -4.375  0.00  0.00    +0.000 A 
ATOM     34  C   UNL     1      -5.237   3.000  -5.158  0.00  0.00    +0.000 A 
ATOM     35  C   UNL     1      -5.375   1.760  -4.563  0.00  0.00    +0.005 A 
ENDBRANCH  29  30
ENDBRANCH   3  29
TORSDOF 6
