REMARK  Name = ZINC58949855
REMARK  8 active torsions:
REMARK  status: ('A' for Active; 'I' for Inactive)
REMARK    1  A    between atoms: C_1  and  C_2
REMARK    2  A    between atoms: C_2  and  C_27
REMARK    3  A    between atoms: C_6  and  C_15
REMARK    4  A    between atoms: C_8  and  C_12
REMARK    5  A    between atoms: C_9  and  N_11
REMARK    6  A    between atoms: C_18  and  N_21
REMARK    7  A    between atoms: N_21  and  C_22
REMARK    8  A    between atoms: N_21  and  C_23
REMARK                            x       y       z     vdW  Elec       q    Type
REMARK                         _______ _______ _______ _____ _____    ______ ____
ROOT
ATOM      1  C   UNL     1      -0.038   1.530  -0.047  0.00  0.00    +0.012 C 
ATOM      2  C   UNL     1      -0.006   0.001  -0.018  0.00  0.00    -0.021 C 
ATOM      3  C   UNL     1       0.747  -0.521  -1.243  0.00  0.00    +0.081 C 
ATOM      4  C   UNL     1       2.169  -0.015  -1.220  0.00  0.00    +0.115 C 
ATOM      5  C   UNL     1       2.800   0.212  -0.053  0.00  0.00    +0.045 C 
ATOM      6  C   UNL     1       4.224   0.712  -0.033  0.00  0.00    +0.096 C 
ATOM      7  C   UNL     1       4.587   1.301  -1.367  0.00  0.00    +0.083 C 
ATOM      8  C   UNL     1       3.850   1.015  -2.470  0.00  0.00    +0.193 C 
ATOM      9  O   UNL     1       2.785   0.200  -2.399  0.00  0.00    -0.446 OA
ATOM     10  C   UNL     1       2.155  -0.004   1.180  0.00  0.00    +0.164 C 
ATOM     11  O   UNL     1       2.763   0.193   2.213  0.00  0.00    -0.292 OA
ATOM     12  C   UNL     1       0.727  -0.475   1.241  0.00  0.00    +0.086 C 
ATOM     13  C   UNL     1      -1.436  -0.543  -0.017  0.00  0.00    +0.012 C 
ENDROOT
BRANCH   6  14
ATOM     14  C   UNL     1       5.152  -0.436   0.271  0.00  0.00    -0.035 A 
ATOM     15  C   UNL     1       5.195  -1.530  -0.574  0.00  0.00    +0.006 A 
ATOM     16  C   UNL     1       6.044  -2.584  -0.298  0.00  0.00    +0.023 A 
ATOM     17  C   UNL     1       6.855  -2.544   0.829  0.00  0.00    +0.029 A 
ATOM     18  C   UNL     1       6.809  -1.444   1.675  0.00  0.00    +0.023 A 
ATOM     19  C   UNL     1       5.961  -0.391   1.391  0.00  0.00    +0.006 A 
BRANCH  17  20
ATOM     20  N   UNL     1       7.714  -3.609   1.111  0.00  0.00    -0.336 N 
ATOM     21  C   UNL     1       7.762  -4.769   0.217  0.00  0.00    +0.129 C 
ATOM     22  C   UNL     1       8.569  -3.565   2.300  0.00  0.00    +0.129 C 
ENDBRANCH  17  20
ENDBRANCH   6  14
BRANCH   7  23
ATOM     23  C   UNL     1       5.699   2.156  -1.473  0.00  0.00    +0.243 C 
ATOM     24  O   UNL     1       5.609   3.319  -1.121  0.00  0.00    -0.271 OA
ATOM     25  N   UNL     1       6.864   1.689  -1.964  0.00  0.00    -0.325 N 
ATOM     26  H   UNL     1       6.936   0.763  -2.244  0.00  0.00    +0.145 HD
ATOM     27  H   UNL     1       7.631   2.279  -2.037  0.00  0.00    +0.145 HD
ENDBRANCH   7  23
BRANCH   8  28
ATOM     28  N   UNL     1       4.198   1.566  -3.675  0.00  0.00    -0.329 N 
ATOM     29  H   UNL     1       5.008   2.094  -3.751  0.00  0.00    +0.145 HD
ATOM     30  H   UNL     1       3.634   1.428  -4.452  0.00  0.00    +0.145 HD
ENDBRANCH   8  28
TORSDOF 4
