REMARK  Name = ZINC36039344
REMARK  7 active torsions:
REMARK  status: ('A' for Active; 'I' for Inactive)
REMARK    1  A    between atoms: C_4  and  C_7
REMARK    2  A    between atoms: C_7  and  N_8
REMARK    3  A    between atoms: N_8  and  C_9
REMARK    4  A    between atoms: C_9  and  C_10
REMARK    5  A    between atoms: C_10  and  N_12
REMARK    6  A    between atoms: C_15  and  C_24
REMARK    7  A    between atoms: N_17  and  C_18
REMARK                            x       y       z     vdW  Elec       q    Type
REMARK                         _______ _______ _______ _____ _____    ______ ____
ROOT
ATOM      1  N   UNL     1       7.030  -2.561   2.967  0.00  0.00    -0.148 NA
ATOM      2  C   UNL     1       7.431  -2.784   4.218  0.00  0.00    +0.205 A 
ATOM      3  N   UNL     1       6.768  -2.419   5.346  0.00  0.00    -0.326 N 
ATOM      4  C   UNL     1       7.520  -2.836   6.437  0.00  0.00    +0.066 A 
ATOM      5  C   UNL     1       8.624  -3.446   5.969  0.00  0.00    +0.120 A 
ATOM      6  N   UNL     1       8.573  -3.423   4.590  0.00  0.00    -0.287 N 
ATOM      7  H   UNL     1       5.920  -1.950   5.383  0.00  0.00    +0.169 HD
ENDROOT
BRANCH   6   8
ATOM      8  C   UNL     1       9.533  -3.961   3.723  0.00  0.00    +0.049 A 
ATOM      9  C   UNL     1       9.363  -3.861   2.349  0.00  0.00    +0.026 A 
ATOM     10  C   UNL     1      10.310  -4.393   1.497  0.00  0.00    +0.002 A 
ATOM     11  C   UNL     1      11.428  -5.024   2.011  0.00  0.00    +0.000 A 
ATOM     12  C   UNL     1      11.600  -5.126   3.379  0.00  0.00    +0.002 A 
ATOM     13  C   UNL     1      10.659  -4.590   4.237  0.00  0.00    +0.026 A 
ENDBRANCH   6   8
BRANCH   4  14
ATOM     14  C   UNL     1       7.170  -2.644   7.862  0.00  0.00    -0.000 A 
ATOM     15  C   UNL     1       8.024  -3.110   8.862  0.00  0.00    +0.010 A 
ATOM     16  C   UNL     1       7.691  -2.927  10.189  0.00  0.00    +0.001 A 
ATOM     17  C   UNL     1       6.514  -2.283  10.527  0.00  0.00    +0.000 A 
ATOM     18  C   UNL     1       5.664  -1.819   9.540  0.00  0.00    +0.001 A 
ATOM     19  C   UNL     1       5.988  -1.990   8.210  0.00  0.00    +0.010 A 
ENDBRANCH   4  14
BRANCH   1  20
ATOM     20  C   UNL     1       5.888  -1.923   2.740  0.00  0.00    +0.222 C 
ATOM     21  O   UNL     1       5.208  -1.541   3.673  0.00  0.00    -0.276 OA
BRANCH  20  22
ATOM     22  C   UNL     1       5.435  -1.670   1.325  0.00  0.00    +0.017 C 
BRANCH  22  23
ATOM     23  N   UNL     1       4.153  -0.953   1.342  0.00  0.00    +0.387 N 
ATOM     24  H   UNL     1       4.267  -0.072   1.821  0.00  0.00    -0.085 HD
ATOM     25  H   UNL     1       3.462  -1.510   1.822  0.00  0.00    -0.085 HD
BRANCH  23  26
ATOM     26  C   UNL     1       3.711  -0.707  -0.038  0.00  0.00    -0.046 C 
BRANCH  26  30
ATOM     27  C   UNL     1      -0.017   1.378   0.010  0.00  0.00    +0.000 A 
ATOM     28  C   UNL     1       1.171   2.086   0.002  0.00  0.00    +0.000 A 
ATOM     29  C   UNL     1       2.377   1.411  -0.013  0.00  0.00    +0.002 A 
ATOM     30  C   UNL     1       2.396   0.029  -0.020  0.00  0.00    -0.064 A 
ATOM     31  C   UNL     1       1.208  -0.679  -0.012  0.00  0.00    +0.002 A 
ATOM     32  C   UNL     1       0.002  -0.004   0.002  0.00  0.00    +0.000 A 
ENDBRANCH  26  30
ENDBRANCH  23  26
ENDBRANCH  22  23
ENDBRANCH  20  22
ENDBRANCH   1  20
TORSDOF 7
