REMARK  Name = ZINC52094287
REMARK  4 active torsions:
REMARK  status: ('A' for Active; 'I' for Inactive)
REMARK    1  A    between atoms: C_1  and  C_2
REMARK    2  A    between atoms: C_5  and  C_7
REMARK    3  A    between atoms: C_7  and  C_9
REMARK    4  A    between atoms: C_7  and  N_22
REMARK                            x       y       z     vdW  Elec       q    Type
REMARK                         _______ _______ _______ _____ _____    ______ ____
ROOT
ATOM      1  C   UNL     1       2.060  -2.543   2.132  0.00  0.00    -0.046 A 
ATOM      2  C   UNL     1       1.438  -3.567   2.819  0.00  0.00    +0.031 A 
ATOM      3  C   UNL     1       2.003  -4.059   3.985  0.00  0.00    +0.067 A 
ATOM      4  C   UNL     1       3.199  -3.518   4.461  0.00  0.00    +0.068 A 
ATOM      5  C   UNL     1       3.817  -2.490   3.765  0.00  0.00    +0.043 A 
ATOM      6  C   UNL     1       3.249  -2.010   2.600  0.00  0.00    +0.022 A 
ATOM      7 BR   UNL     1       4.096  -0.614   1.645  0.00  0.00    -0.050 Br
ATOM      8  N   UNL     1       3.515  -4.204   5.631  0.00  0.00    -0.306 N 
ATOM      9  H   UNL     1       4.293  -4.048   6.188  0.00  0.00    +0.170 HD
ATOM     10  C   UNL     1       2.555  -5.121   5.857  0.00  0.00    +0.325 A 
ATOM     11  O   UNL     1       2.528  -5.890   6.800  0.00  0.00    -0.247 OA
ATOM     12  N   UNL     1       1.629  -5.058   4.882  0.00  0.00    -0.306 N 
ATOM     13  H   UNL     1       0.836  -5.613   4.815  0.00  0.00    +0.170 HD
ENDROOT
BRANCH   1  14
ATOM     14  C   UNL     1       1.445  -2.008   0.864  0.00  0.00    -0.040 C 
BRANCH  14  18
ATOM     15  C   UNL     1      -0.019   1.526   0.010  0.00  0.00    +0.008 C 
ATOM     16  C   UNL     1       0.002  -0.004   0.002  0.00  0.00    -0.012 C 
ATOM     17  C   UNL     1      -0.828  -0.728   1.065  0.00  0.00    +0.006 C 
ATOM     18  C   UNL     1       0.700  -0.708   1.168  0.00  0.00    -0.018 C 
ENDBRANCH  14  18
BRANCH  14  19
ATOM     19  N   UNL     1       0.504  -2.997   0.321  0.00  0.00    +0.383 N 
ATOM     20  H   UNL     1       0.093  -2.639  -0.528  0.00  0.00    -0.089 HD
ATOM     21  H   UNL     1       0.996  -3.855   0.121  0.00  0.00    -0.089 HD
ATOM     22  H   UNL     1      -0.223  -3.176   0.998  0.00  0.00    -0.089 HD
ENDBRANCH  14  19
ENDBRANCH   1  14
TORSDOF 3
