REMARK  Name = ZINC31994685
REMARK  4 active torsions:
REMARK  status: ('A' for Active; 'I' for Inactive)
REMARK    1  A    between atoms: C_1  and  C_2
REMARK    2  A    between atoms: N_8  and  N_9
REMARK    3  A    between atoms: N_9  and  C_10
REMARK    4  A    between atoms: N_20  and  C_23
REMARK                            x       y       z     vdW  Elec       q    Type
REMARK                         _______ _______ _______ _____ _____    ______ ____
ROOT
ATOM      1  C   UNL     1       5.022  -2.276   0.989  0.00  0.00    +0.101 C 
ATOM      2  C   UNL     1       6.105  -1.669   0.393  0.00  0.00    +0.060 C 
ATOM      3  C   UNL     1       6.013  -0.288  -0.125  0.00  0.00    +0.000 A 
ATOM      4  C   UNL     1       4.840   0.452  -0.033  0.00  0.00    +0.009 A 
ATOM      5  C   UNL     1       4.805   1.738  -0.531  0.00  0.00    +0.001 A 
ATOM      6  C   UNL     1       5.929   2.296  -1.121  0.00  0.00    +0.001 A 
ATOM      7  C   UNL     1       7.101   1.579  -1.222  0.00  0.00    +0.014 A 
ATOM      8  C   UNL     1       7.158   0.276  -0.725  0.00  0.00    +0.046 A 
ATOM      9  C   UNL     1       8.387  -0.523  -0.811  0.00  0.00    +0.258 C 
ATOM     10  O   UNL     1       9.378  -0.042  -1.327  0.00  0.00    -0.269 OA
ATOM     11  N   UNL     1       8.435  -1.776  -0.330  0.00  0.00    -0.202 N 
ATOM     12  C   UNL     1       7.386  -2.372   0.258  0.00  0.00    +0.259 C 
ATOM     13  O   UNL     1       7.496  -3.509   0.679  0.00  0.00    -0.269 OA
ENDROOT
BRANCH  11  14
ATOM     14  C   UNL     1       9.636  -2.490  -0.440  0.00  0.00    +0.045 A 
ATOM     15  C   UNL     1      10.579  -2.426   0.576  0.00  0.00    +0.024 A 
ATOM     16  C   UNL     1      11.761  -3.132   0.465  0.00  0.00    +0.002 A 
ATOM     17  C   UNL     1      12.006  -3.901  -0.659  0.00  0.00    +0.000 A 
ATOM     18  C   UNL     1      11.068  -3.966  -1.673  0.00  0.00    +0.002 A 
ATOM     19  C   UNL     1       9.882  -3.267  -1.564  0.00  0.00    +0.024 A 
ENDBRANCH  11  14
BRANCH   1  20
ATOM     20  N   UNL     1       3.761  -1.906   0.645  0.00  0.00    -0.271 N 
ATOM     21  H   UNL     1       3.620  -1.289  -0.091  0.00  0.00    +0.169 HD
BRANCH  20  29
ATOM     22  C   UNL     1      -0.171   0.147  -1.514  0.00  0.00    +0.066 C 
ATOM     23  C   UNL     1      -0.004  -0.813  -0.365  0.00  0.00    +0.047 A 
ATOM     24  C   UNL     1      -1.102  -1.283   0.296  0.00  0.00    +0.093 A 
ATOM     25  C   UNL     1      -0.920  -2.178   1.365  0.00  0.00    +0.253 A 
ATOM     26  N   UNL     1       0.336  -2.542   1.701  0.00  0.00    -0.294 N 
ATOM     27  C   UNL     1       1.393  -2.041   1.006  0.00  0.00    +0.212 A 
ATOM     28  N   UNL     1       1.214  -1.206   0.001  0.00  0.00    -0.220 NA
ATOM     29  N   UNL     1       2.663  -2.414   1.352  0.00  0.00    -0.237 N 
ATOM     30  O   UNL     1      -1.879  -2.617   1.978  0.00  0.00    -0.268 OA
ATOM     31  H   UNL     1       2.804  -3.031   2.088  0.00  0.00    +0.173 HD
ATOM     32  H   UNL     1       0.484  -3.158   2.435  0.00  0.00    +0.172 HD
ENDBRANCH  20  29
ENDBRANCH   1  20
TORSDOF 3
