REMARK  Name = ZINC06108803
REMARK  7 active torsions:
REMARK  status: ('A' for Active; 'I' for Inactive)
REMARK    1  A    between atoms: C_1  and  C_2
REMARK    2  A    between atoms: C_2  and  C_4
REMARK    3  A    between atoms: C_2  and  S_15
REMARK    4  A    between atoms: N_6  and  C_7
REMARK    5  A    between atoms: N_6  and  C_8
REMARK    6  A    between atoms: C_8  and  C_9
REMARK    7  A    between atoms: S_15  and  C_16
REMARK                            x       y       z     vdW  Elec       q    Type
REMARK                         _______ _______ _______ _____ _____    ______ ____
ROOT
ATOM      1  C   UNL     1      -0.075   0.727  -2.723  0.00  0.00    +0.192 A 
ATOM      2  N   UNL     1       0.947  -0.050  -2.383  0.00  0.00    -0.207 NA
ATOM      3  C   UNL     1       1.774  -0.556  -3.281  0.00  0.00    +0.129 A 
ATOM      4  C   UNL     1       1.575  -0.254  -4.658  0.00  0.00    +0.051 A 
ATOM      5  C   UNL     1       2.360  -0.694  -5.814  0.00  0.00    -0.025 A 
ATOM      6  C   UNL     1       1.958  -0.263  -7.026  0.00  0.00    -0.004 A 
ATOM      7  S   UNL     1       0.531   0.741  -6.710  0.00  0.00    -0.073 S 
ATOM      8  C   UNL     1       0.476   0.580  -4.945  0.00  0.00    +0.115 A 
ATOM      9  N   UNL     1      -0.308   1.042  -3.990  0.00  0.00    -0.214 NA
ATOM     10  C   UNL     1       2.586  -0.569  -8.352  0.00  0.00    +0.043 C 
ATOM     11  C   UNL     1       3.984  -1.151  -8.104  0.00  0.00    +0.005 C 
ATOM     12  C   UNL     1       3.880  -2.238  -7.029  0.00  0.00    +0.005 C 
ATOM     13  C   UNL     1       3.581  -1.599  -5.673  0.00  0.00    +0.037 C 
ATOM     14  N   UNL     1       2.824  -1.365  -2.887  0.00  0.00    -0.343 N 
ATOM     15  H   UNL     1       3.559  -1.536  -3.497  0.00  0.00    +0.144 HD
ATOM     16  H   UNL     1       2.826  -1.761  -2.002  0.00  0.00    +0.144 HD
ENDROOT
BRANCH   1  17
ATOM     17  S   UNL     1      -1.138   1.357  -1.466  0.00  0.00    -0.073 S 
BRANCH  17  19
ATOM     18  C   UNL     1       1.041   1.206   0.175  0.00  0.00    +0.029 C 
ATOM     19  C   UNL     1      -0.363   0.625  -0.003  0.00  0.00    +0.137 C 
BRANCH  19  20
ATOM     20  C   UNL     1      -1.194   0.938   1.214  0.00  0.00    +0.229 C 
ATOM     21  O   UNL     1      -1.981   1.860   1.192  0.00  0.00    -0.274 OA
ATOM     22  N   UNL     1      -1.063   0.191   2.329  0.00  0.00    -0.299 N 
ATOM     23  C   UNL     1      -0.113  -0.924   2.357  0.00  0.00    +0.132 C 
BRANCH  22  24
ATOM     24  C   UNL     1      -1.871   0.495   3.513  0.00  0.00    +0.142 C 
BRANCH  24  25
ATOM     25  C   UNL     1      -3.163  -0.278   3.451  0.00  0.00    -0.030 A 
ATOM     26  C   UNL     1      -4.273   0.278   2.843  0.00  0.00    +0.005 A 
ATOM     27  C   UNL     1      -5.457  -0.432   2.782  0.00  0.00    +0.000 A 
ATOM     28  C   UNL     1      -5.534  -1.696   3.337  0.00  0.00    +0.000 A 
ATOM     29  C   UNL     1      -4.426  -2.250   3.951  0.00  0.00    +0.000 A 
ATOM     30  C   UNL     1      -3.240  -1.541   4.007  0.00  0.00    +0.005 A 
ENDBRANCH  24  25
ENDBRANCH  22  24
ENDBRANCH  19  20
ENDBRANCH  17  19
ENDBRANCH   1  17
TORSDOF 5
