REMARK  Name = ZINC45947480
REMARK  7 active torsions:
REMARK  status: ('A' for Active; 'I' for Inactive)
REMARK    1  A    between atoms: C_1  and  C_2
REMARK    2  A    between atoms: C_7  and  N_8
REMARK    3  A    between atoms: C_9  and  C_11
REMARK    4  A    between atoms: C_11  and  N_12
REMARK    5  A    between atoms: C_13  and  C_15
REMARK    6  A    between atoms: N_17  and  C_24
REMARK    7  A    between atoms: C_18  and  C_21
REMARK                            x       y       z     vdW  Elec       q    Type
REMARK                         _______ _______ _______ _____ _____    ______ ____
ROOT
ATOM      1  N   UNL     1      -0.240  -0.903   5.989  0.00  0.00    -0.302 N 
ATOM      2  C   UNL     1      -0.345  -0.460   7.257  0.00  0.00    +0.260 C 
ATOM      3  O   UNL     1      -0.377   0.735   7.484  0.00  0.00    -0.269 OA
ATOM      4  H   UNL     1      -0.214  -1.856   5.809  0.00  0.00    +0.150 HD
ENDROOT
BRANCH   2   5
ATOM      5  C   UNL     1      -0.418  -1.416   8.362  0.00  0.00    +0.123 C 
ATOM      6  N   UNL     1      -0.387  -2.704   8.240  0.00  0.00    -0.178 NA
ATOM      7  N   UNL     1      -0.473  -3.391   9.449  0.00  0.00    -0.212 N 
ATOM      8  C   UNL     1      -0.578  -2.415  10.545  0.00  0.00    +0.189 C 
ATOM      9  C   UNL     1      -0.536  -1.053   9.825  0.00  0.00    +0.096 C 
BRANCH   7  10
ATOM     10  C   UNL     1      -0.461  -4.779   9.597  0.00  0.00    +0.052 A 
ATOM     11  C   UNL     1      -0.560  -5.345  10.862  0.00  0.00    +0.025 A 
ATOM     12  C   UNL     1      -0.548  -6.719  11.005  0.00  0.00    +0.002 A 
ATOM     13  C   UNL     1      -0.438  -7.530   9.890  0.00  0.00    +0.000 A 
ATOM     14  C   UNL     1      -0.339  -6.970   8.630  0.00  0.00    +0.002 A 
ATOM     15  C   UNL     1      -0.356  -5.598   8.479  0.00  0.00    +0.025 A 
ENDBRANCH   7  10
BRANCH   8  16
ATOM     16  C   UNL     1       0.590  -2.549  11.488  0.00  0.00    +0.233 C 
ATOM     17  O   UNL     1       1.598  -3.120  11.128  0.00  0.00    -0.274 OA
ATOM     18  N   UNL     1       0.515  -2.035  12.732  0.00  0.00    -0.328 N 
ATOM     19  H   UNL     1      -0.291  -1.578  13.020  0.00  0.00    +0.145 HD
ATOM     20  H   UNL     1       1.267  -2.121  13.339  0.00  0.00    +0.145 HD
ENDBRANCH   8  16
ENDBRANCH   2   5
BRANCH   1  21
ATOM     21  C   UNL     1      -0.167   0.054   4.882  0.00  0.00    +0.200 C 
BRANCH  21  23
ATOM     22  N   UNL     1       0.026  -0.014   2.417  0.00  0.00    -0.284 N 
ATOM     23  C   UNL     1      -0.056  -0.694   3.578  0.00  0.00    +0.234 C 
ATOM     24  O   UNL     1      -0.040  -1.906   3.574  0.00  0.00    -0.274 OA
ATOM     25  H   UNL     1       0.079   0.955   2.425  0.00  0.00    +0.155 HD
BRANCH  22  32
ATOM     26  C   UNL     1      -1.265   1.183   0.182  0.00  0.00    +0.046 C 
ATOM     27  C   UNL     1      -0.584  -0.158   0.085  0.00  0.00    -0.028 A 
ATOM     28  C   UNL     1      -0.570  -0.840  -1.116  0.00  0.00    +0.020 A 
ATOM     29  C   UNL     1       0.055  -2.071  -1.206  0.00  0.00    +0.018 A 
ATOM     30  C   UNL     1       0.666  -2.623  -0.094  0.00  0.00    +0.017 A 
ATOM     31  C   UNL     1       0.655  -1.945   1.109  0.00  0.00    +0.024 A 
ATOM     32  C   UNL     1       0.034  -0.706   1.201  0.00  0.00    +0.036 A 
ATOM     33 BR   UNL     1       0.072  -3.002  -2.852  0.00  0.00    -0.050 Br
ENDBRANCH  22  32
ENDBRANCH  21  23
ENDBRANCH   1  21
TORSDOF 6
