REMARK  Name = ZINC14439315
REMARK  4 active torsions:
REMARK  status: ('A' for Active; 'I' for Inactive)
REMARK    1  A    between atoms: C_2  and  C_3
REMARK    2  A    between atoms: C_2  and  C_5
REMARK    3  A    between atoms: C_3  and  O_4
REMARK    4  A    between atoms: C_17  and  O_30
REMARK                            x       y       z     vdW  Elec       q    Type
REMARK                         _______ _______ _______ _____ _____    ______ ____
ROOT
ATOM      1  C   UNL     1      -0.591  -2.163  -0.405  0.00  0.00    +0.206 C 
ATOM      2  C   UNL     1       0.914  -2.156  -0.035  0.00  0.00    +0.088 C 
ATOM      3  C   UNL     1       1.225  -0.684  -0.021  0.00  0.00    -0.001 A 
ATOM      4  C   UNL     1       2.432  -0.023  -0.029  0.00  0.00    +0.018 A 
ATOM      5  C   UNL     1       2.411   1.374  -0.017  0.00  0.00    +0.038 A 
ATOM      6  C   UNL     1       1.208   2.057   0.002  0.00  0.00    +0.131 A 
ATOM      7  C   UNL     1      -0.017   1.388   0.010  0.00  0.00    +0.092 A 
ATOM      8  C   UNL     1       0.002  -0.004   0.002  0.00  0.00    +0.128 A 
ATOM      9  O   UNL     1      -1.038  -0.862   0.026  0.00  0.00    -0.484 OA
ATOM     10  O   UNL     1       1.179   3.413   0.019  0.00  0.00    -0.488 OA
ATOM     11  C   UNL     1       2.311   4.150  -0.390  0.00  0.00    +0.272 C 
ATOM     12  C   UNL     1       3.609   3.600   0.172  0.00  0.00    +0.169 C 
ATOM     13  C   UNL     1       3.728   2.084  -0.028  0.00  0.00    +0.246 C 
ATOM     14  O   UNL     1       4.374   1.960  -1.306  0.00  0.00    -0.480 OA
ATOM     15  C   UNL     1       5.150   3.053  -1.501  0.00  0.00    +0.131 A 
ATOM     16  C   UNL     1       4.765   4.104  -0.663  0.00  0.00    +0.036 A 
ATOM     17  C   UNL     1       5.378   5.346  -0.650  0.00  0.00    +0.060 A 
ATOM     18  C   UNL     1       6.437   5.479  -1.550  0.00  0.00    +0.167 A 
ATOM     19  C   UNL     1       6.839   4.435  -2.394  0.00  0.00    +0.170 A 
ATOM     20  C   UNL     1       6.215   3.188  -2.402  0.00  0.00    +0.095 A 
ATOM     21  O   UNL     1       7.883   4.861  -3.145  0.00  0.00    -0.452 OA
ATOM     22  C   UNL     1       8.377   6.044  -2.484  0.00  0.00    +0.466 C 
ATOM     23  O   UNL     1       7.229   6.554  -1.777  0.00  0.00    -0.453 OA
ENDROOT
BRANCH   1  25
ATOM     24  C   UNL     1      -1.854  -4.250  -0.312  0.00  0.00    +0.013 C 
ATOM     25  C   UNL     1      -1.319  -3.250   0.343  0.00  0.00    -0.011 C 
BRANCH  25  26
ATOM     26  C   UNL     1      -1.430  -3.188   1.845  0.00  0.00    +0.189 C 
BRANCH  26  27
ATOM     27  O   UNL     1      -2.159  -4.323   2.316  0.00  0.00    -0.391 OA
ATOM     28  H   UNL     1      -2.269  -4.348   3.276  0.00  0.00    +0.210 HD
ENDBRANCH  26  27
ENDBRANCH  25  26
ENDBRANCH   1  25
BRANCH  12  29
ATOM     29  O   UNL     1       3.775   3.951   1.547  0.00  0.00    -0.377 OA
ATOM     30  H   UNL     1       3.708   4.900   1.721  0.00  0.00    +0.211 HD
ENDBRANCH  12  29
TORSDOF 4
