REMARK  Name = ZINC37716921
REMARK  4 active torsions:
REMARK  status: ('A' for Active; 'I' for Inactive)
REMARK    1  A    between atoms: C_3  and  C_19
REMARK    2  A    between atoms: C_5  and  C_7
REMARK    3  A    between atoms: C_9  and  C_12
REMARK    4  A    between atoms: C_19  and  N_20
REMARK                            x       y       z     vdW  Elec       q    Type
REMARK                         _______ _______ _______ _____ _____    ______ ____
ROOT
ATOM      1  C   UNL     1       1.250  -2.160  -0.023  0.00  0.00    +0.259 A 
ATOM      2  N   UNL     1       0.201  -2.949  -0.023  0.00  0.00    -0.187 NA
ATOM      3  C   UNL     1       0.593  -4.233  -0.033  0.00  0.00    +0.202 A 
ATOM      4  N   UNL     1       1.904  -4.274  -0.041  0.00  0.00    -0.056 NA
ATOM      5  O   UNL     1       2.353  -2.928  -0.039  0.00  0.00    -0.332 OA
ENDROOT
BRANCH   3   6
ATOM      6  C   UNL     1      -0.308  -5.412  -0.036  0.00  0.00    +0.023 A 
ATOM      7  C   UNL     1      -1.690  -5.235  -0.033  0.00  0.00    +0.013 A 
ATOM      8  C   UNL     1      -2.524  -6.334  -0.035  0.00  0.00    +0.016 A 
ATOM      9  C   UNL     1      -1.990  -7.611  -0.040  0.00  0.00    +0.018 A 
ATOM     10  C   UNL     1      -0.618  -7.792  -0.043  0.00  0.00    +0.016 A 
ATOM     11  C   UNL     1       0.225  -6.699  -0.047  0.00  0.00    +0.013 A 
ATOM     12 BR   UNL     1      -3.139  -9.113  -0.042  0.00  0.00    -0.050 Br
ENDBRANCH   3   6
BRANCH   1  17
ATOM     13  C   UNL     1      -0.017   1.375   0.010  0.00  0.00    +0.001 A 
ATOM     14  C   UNL     1       1.170   2.086   0.002  0.00  0.00    +0.002 A 
ATOM     15  C   UNL     1       2.383   1.420  -0.013  0.00  0.00    -0.064 A 
ATOM     16  C   UNL     1       2.415   0.041  -0.021  0.00  0.00    +0.015 A 
ATOM     17  C   UNL     1       1.222  -0.682  -0.014  0.00  0.00    +0.040 A 
ATOM     18  C   UNL     1       0.002  -0.004   0.002  0.00  0.00    +0.013 A 
BRANCH  15  19
ATOM     19  C   UNL     1       3.671   2.203  -0.021  0.00  0.00    -0.051 C 
BRANCH  19  20
ATOM     20  N   UNL     1       4.102   2.450   1.361  0.00  0.00    +0.381 N 
ATOM     21  H   UNL     1       3.392   2.977   1.846  0.00  0.00    -0.090 HD
ATOM     22  H   UNL     1       4.247   1.569   1.831  0.00  0.00    -0.090 HD
ATOM     23  H   UNL     1       4.965   2.974   1.356  0.00  0.00    -0.090 HD
ENDBRANCH  19  20
ENDBRANCH  15  19
ENDBRANCH   1  17
TORSDOF 4
