REMARK  Name = ZINC43034150
REMARK  8 active torsions:
REMARK  status: ('A' for Active; 'I' for Inactive)
REMARK    1  A    between atoms: C_7  and  C_11
REMARK    2  A    between atoms: C_11  and  C_12
REMARK    3  A    between atoms: C_12  and  N_13
REMARK    4  A    between atoms: N_16  and  C_17
REMARK    5  A    between atoms: C_17  and  C_18
REMARK    6  A    between atoms: C_18  and  C_19
REMARK    7  A    between atoms: C_19  and  N_20
REMARK    8  A    between atoms: N_20  and  C_21
REMARK                            x       y       z     vdW  Elec       q    Type
REMARK                         _______ _______ _______ _____ _____    ______ ____
ROOT
ATOM      1  N   UNL     1       2.510  -2.889   5.045  0.00  0.00    -0.299 N 
ATOM      2  C   UNL     1       2.566  -2.559   6.351  0.00  0.00    +0.300 C 
ATOM      3  O   UNL     1       2.879  -1.431   6.679  0.00  0.00    -0.253 OA
ATOM      4  N   UNL     1       2.275  -3.478   7.292  0.00  0.00    -0.299 N 
ATOM      5  H   UNL     1       2.261  -3.789   4.783  0.00  0.00    +0.150 HD
ATOM      6  H   UNL     1       2.025  -4.378   7.029  0.00  0.00    +0.150 HD
ENDROOT
BRANCH   1   7
ATOM      7  C   UNL     1       2.827  -1.889   4.022  0.00  0.00    +0.113 C 
BRANCH   7   8
ATOM      8  C   UNL     1       2.689  -2.518   2.635  0.00  0.00    +0.095 C 
BRANCH   8  15
ATOM      9  C   UNL     1      -0.019   1.524   0.010  0.00  0.00    +0.002 C 
ATOM     10  C   UNL     1       1.403   2.078  -0.000  0.00  0.00    +0.008 C 
ATOM     11  C   UNL     1       2.311   1.146  -0.809  0.00  0.00    +0.076 C 
ATOM     12  C   UNL     1       2.864   0.083   0.104  0.00  0.00    +0.133 A 
ATOM     13  N   UNL     1       4.102  -0.311   0.193  0.00  0.00    -0.134 NA
ATOM     14  N   UNL     1       4.193  -1.250   1.070  0.00  0.00    -0.134 NA
ATOM     15  C   UNL     1       3.015  -1.490   1.582  0.00  0.00    +0.135 A 
ATOM     16  N   UNL     1       2.144  -0.643   0.991  0.00  0.00    -0.315 N 
ATOM     17  C   UNL     1       0.711  -0.518   1.258  0.00  0.00    +0.125 C 
ATOM     18  C   UNL     1       0.002  -0.004   0.002  0.00  0.00    +0.022 C 
ENDBRANCH   8  15
ENDBRANCH   7   8
ENDBRANCH   1   7
BRANCH   4  19
ATOM     19  C   UNL     1       2.335  -3.119   8.711  0.00  0.00    +0.104 C 
BRANCH  19  20
ATOM     20  C   UNL     1       1.961  -4.335   9.561  0.00  0.00    -0.000 C 
BRANCH  20  21
ATOM     21  C   UNL     1       2.024  -3.960  11.043  0.00  0.00    -0.081 C 
BRANCH  21  22
ATOM     22  N   UNL     1       1.665  -5.127  11.859  0.00  0.00    +0.381 N 
ATOM     23  H   UNL     1       0.730  -5.425  11.627  0.00  0.00    -0.086 HD
ATOM     24  H   UNL     1       2.313  -5.878  11.675  0.00  0.00    -0.086 HD
BRANCH  22  25
ATOM     25  C   UNL     1       1.726  -4.767  13.282  0.00  0.00    -0.072 C 
ATOM     26  C   UNL     1       3.170  -4.435  13.663  0.00  0.00    -0.016 C 
ATOM     27  C   UNL     1       3.233  -4.059  15.145  0.00  0.00    -0.002 C 
ATOM     28  C   UNL     1       2.740  -5.236  15.991  0.00  0.00    -0.000 C 
ATOM     29  C   UNL     1       1.296  -5.568  15.609  0.00  0.00    -0.002 C 
ATOM     30  C   UNL     1       1.233  -5.943  14.127  0.00  0.00    -0.016 C 
ENDBRANCH  22  25
ENDBRANCH  21  22
ENDBRANCH  20  21
ENDBRANCH  19  20
ENDBRANCH   4  19
TORSDOF 8
