REMARK  Name = ZINC57120758
REMARK  9 active torsions:
REMARK  status: ('A' for Active; 'I' for Inactive)
REMARK    1  A    between atoms: C_1  and  C_2
REMARK    2  A    between atoms: C_5  and  C_8
REMARK    3  A    between atoms: C_9  and  S_10
REMARK    4  A    between atoms: S_10  and  N_13
REMARK    5  A    between atoms: N_13  and  N_14
REMARK    6  A    between atoms: C_15  and  C_17
REMARK    7  A    between atoms: C_21  and  O_24
REMARK    8  A    between atoms: C_22  and  O_23
REMARK    9  A    between atoms: O_24  and  C_25
REMARK                            x       y       z     vdW  Elec       q    Type
REMARK                         _______ _______ _______ _____ _____    ______ ____
ROOT
ATOM      1  N   UNL     1       1.542  -7.156   1.772  0.00  0.00    -0.108 NA
ATOM      2  H   UNL     1       2.161  -7.689   1.249  0.00  0.00    +0.172 HD
ENDROOT
BRANCH   1   3
ATOM      3  N   UNL     1       1.869  -6.786   3.083  0.00  0.00    -0.228 N 
ATOM      4  C   UNL     1       2.198  -7.730   3.987  0.00  0.00    +0.262 C 
ATOM      5  O   UNL     1       2.211  -8.902   3.664  0.00  0.00    -0.269 OA
ATOM      6  H   UNL     1       1.858  -5.851   3.340  0.00  0.00    +0.171 HD
BRANCH   4   7
ATOM      7  C   UNL     1       2.542  -7.341   5.368  0.00  0.00    +0.083 A 
ATOM      8  C   UNL     1       2.522  -5.995   5.744  0.00  0.00    +0.017 A 
ATOM      9  C   UNL     1       2.844  -5.635   7.034  0.00  0.00    +0.005 A 
ATOM     10  C   UNL     1       3.188  -6.602   7.965  0.00  0.00    +0.049 A 
ATOM     11  C   UNL     1       3.213  -7.939   7.608  0.00  0.00    +0.162 A 
ATOM     12  C   UNL     1       2.885  -8.318   6.309  0.00  0.00    +0.171 A 
BRANCH  12  13
ATOM     13  O   UNL     1       2.902  -9.629   5.957  0.00  0.00    -0.503 OA
ATOM     14  H   UNL     1       3.756  -9.935   5.622  0.00  0.00    +0.292 HD
ENDBRANCH  12  13
BRANCH  11  15
ATOM     15  O   UNL     1       3.552  -8.882   8.527  0.00  0.00    -0.491 OA
ATOM     16  C   UNL     1       3.871  -8.422   9.841  0.00  0.00    +0.277 C 
ENDBRANCH  11  15
ENDBRANCH   4   7
ENDBRANCH   1   3
BRANCH   1  17
ATOM     17  S   UNL     1       0.098  -6.682   1.113  0.00  0.00    +0.067 S 
ATOM     18  O   UNL     1      -0.917  -7.106   2.012  0.00  0.00    -0.152 OA
ATOM     19  O   UNL     1       0.123  -7.080  -0.251  0.00  0.00    -0.152 OA
BRANCH  17  21
ATOM     20  C   UNL     1       0.060  -4.251  -0.021  0.00  0.00    +0.028 C 
ATOM     21  C   UNL     1       0.074  -4.920   1.123  0.00  0.00    +0.155 C 
BRANCH  20  26
ATOM     22  C   UNL     1      -0.018   1.503   0.010  0.00  0.00    +0.044 C 
ATOM     23  C   UNL     1       0.002  -0.004   0.002  0.00  0.00    -0.050 A 
ATOM     24  C   UNL     1       0.006  -0.686  -1.202  0.00  0.00    +0.004 A 
ATOM     25  C   UNL     1       0.024  -2.066  -1.216  0.00  0.00    +0.008 A 
ATOM     26  C   UNL     1       0.040  -2.773  -0.013  0.00  0.00    -0.024 A 
ATOM     27  C   UNL     1       0.037  -2.079   1.197  0.00  0.00    +0.008 A 
ATOM     28  C   UNL     1       0.023  -0.699   1.198  0.00  0.00    +0.004 A 
ENDBRANCH  20  26
ENDBRANCH  17  21
ENDBRANCH   1  17
TORSDOF 7
