REMARK  Name = ZINC20262635
REMARK  6 active torsions:
REMARK  status: ('A' for Active; 'I' for Inactive)
REMARK    1  A    between atoms: C_1  and  N_2
REMARK    2  A    between atoms: N_2  and  C_3
REMARK    3  A    between atoms: N_2  and  S_4
REMARK    4  A    between atoms: S_4  and  C_7
REMARK    5  A    between atoms: C_9  and  N_22
REMARK    6  A    between atoms: C_12  and  N_13
REMARK                            x       y       z     vdW  Elec       q    Type
REMARK                         _______ _______ _______ _____ _____    ______ ____
ROOT
ATOM      1  C   UNL     1      -3.732   1.733   0.158  0.00  0.00    +0.128 A 
ATOM      2  C   UNL     1      -2.515   1.089   0.262  0.00  0.00    +0.053 A 
ATOM      3  C   UNL     1      -1.398   1.783   0.707  0.00  0.00    +0.027 A 
ATOM      4  C   UNL     1      -1.506   3.124   1.052  0.00  0.00    +0.024 A 
ATOM      5  C   UNL     1      -2.721   3.770   0.942  0.00  0.00    +0.027 A 
ATOM      6  C   UNL     1      -3.839   3.075   0.498  0.00  0.00    +0.061 A 
ENDROOT
BRANCH   6   7
ATOM      7  N   UNL     1      -5.073   3.728   0.392  0.00  0.00    -0.298 N 
ATOM      8  C   UNL     1      -5.596   4.343  -0.831  0.00  0.00    +0.116 C 
ATOM      9  C   UNL     1      -6.966   4.920  -0.438  0.00  0.00    +0.056 C 
ATOM     10  C   UNL     1      -7.117   4.575   1.026  0.00  0.00    -0.025 A 
ATOM     11  C   UNL     1      -5.988   3.882   1.435  0.00  0.00    +0.037 A 
ATOM     12  C   UNL     1      -5.896   3.460   2.763  0.00  0.00    +0.024 A 
ATOM     13  C   UNL     1      -6.920   3.721   3.648  0.00  0.00    +0.002 A 
ATOM     14  C   UNL     1      -8.044   4.408   3.229  0.00  0.00    +0.000 A 
ATOM     15  C   UNL     1      -8.140   4.835   1.917  0.00  0.00    +0.005 A 
ENDBRANCH   6   7
BRANCH   1  16
ATOM     16  S   UNL     1      -5.150   0.851  -0.405  0.00  0.00    +0.062 S 
ATOM     17  O   UNL     1      -6.176   1.077   0.552  0.00  0.00    -0.153 OA
ATOM     18  O   UNL     1      -5.308   1.172  -1.781  0.00  0.00    -0.153 OA
BRANCH  16  20
ATOM     19  C   UNL     1      -4.951  -1.497   0.921  0.00  0.00    +0.131 C 
ATOM     20  N   UNL     1      -4.784  -0.762  -0.335  0.00  0.00    -0.183 NA
ATOM     21  C   UNL     1      -4.292  -1.454  -1.529  0.00  0.00    +0.131 C 
ENDBRANCH  16  20
ENDBRANCH   1  16
BRANCH   3  22
ATOM     22  N   UNL     1      -0.165   1.130   0.813  0.00  0.00    -0.358 N 
ATOM     23  H   UNL     1       0.721   1.681   1.165  0.00  0.00    +0.142 HD
ATOM     24  H   UNL     1      -0.080   0.067   0.544  0.00  0.00    +0.142 HD
ENDBRANCH   3  22
TORSDOF 4
