REMARK  Name = ZINC01153992
REMARK  10 active torsions:
REMARK  status: ('A' for Active; 'I' for Inactive)
REMARK    1  A    between atoms: C_1  and  O_2
REMARK    2  A    between atoms: O_2  and  C_3
REMARK    3  A    between atoms: C_5  and  C_13
REMARK    4  A    between atoms: C_6  and  O_11
REMARK    5  A    between atoms: C_8  and  O_9
REMARK    6  A    between atoms: O_9  and  C_10
REMARK    7  A    between atoms: O_11  and  C_12
REMARK    8  A    between atoms: C_16  and  C_27
REMARK    9  A    between atoms: C_22  and  N_26
REMARK   10  A    between atoms: C_23  and  C_24
REMARK                            x       y       z     vdW  Elec       q    Type
REMARK                         _______ _______ _______ _____ _____    ______ ____
ROOT
ATOM      1  C   UNL     1      -4.959   0.273   0.045  0.00  0.00    +0.105 C 
ATOM      2  C   UNL     1      -4.907   1.238  -1.110  0.00  0.00    +0.054 A 
ATOM      3  C   UNL     1      -5.025   0.985  -2.480  0.00  0.00    +0.102 A 
ATOM      4  N   UNL     1      -4.914   2.136  -3.116  0.00  0.00    -0.171 NA
ATOM      5  N   UNL     1      -4.723   3.150  -2.166  0.00  0.00    -0.246 N 
ATOM      6  H   UNL     1      -4.611   4.095  -2.354  0.00  0.00    +0.192 HD
ATOM      7  C   UNL     1      -4.722   2.580  -0.943  0.00  0.00    +0.223 A 
ATOM      8  O   UNL     1      -4.575   3.152   0.278  0.00  0.00    -0.423 OA
ATOM      9  C   UNL     1      -4.886   2.407   1.359  0.00  0.00    +0.200 C 
ATOM     10  C   UNL     1      -5.079   1.069   1.321  0.00  0.00    +0.098 C 
ENDROOT
BRANCH   3  11
ATOM     11  C   UNL     1      -5.237  -0.343  -3.108  0.00  0.00    +0.021 A 
ATOM     12  C   UNL     1      -6.227  -1.195  -2.624  0.00  0.00    +0.011 A 
ATOM     13  C   UNL     1      -6.421  -2.429  -3.211  0.00  0.00    +0.001 A 
ATOM     14  C   UNL     1      -5.634  -2.821  -4.279  0.00  0.00    +0.001 A 
ATOM     15  C   UNL     1      -4.649  -1.980  -4.765  0.00  0.00    +0.020 A 
ATOM     16  C   UNL     1      -4.450  -0.740  -4.188  0.00  0.00    +0.050 A 
ATOM     17 CL   UNL     1      -3.218   0.317  -4.802  0.00  0.00    -0.083 Cl
ENDBRANCH   3  11
BRANCH   1  20
ATOM     18  C   UNL     1      -1.303  -0.681   0.112  0.00  0.00    +0.162 A 
ATOM     19  C   UNL     1      -2.464   0.074   0.082  0.00  0.00    +0.057 A 
ATOM     20  C   UNL     1      -3.697  -0.551   0.077  0.00  0.00    +0.011 A 
ATOM     21  C   UNL     1      -3.774  -1.936   0.103  0.00  0.00    +0.128 A 
ATOM     22  C   UNL     1      -2.615  -2.695   0.133  0.00  0.00    +0.095 A 
ATOM     23  C   UNL     1      -1.378  -2.070   0.132  0.00  0.00    +0.165 A 
BRANCH  18  25
ATOM     24  C   UNL     1      -0.089   1.365   0.095  0.00  0.00    +0.277 C 
ATOM     25  O   UNL     1      -0.090  -0.064   0.116  0.00  0.00    -0.491 OA
ENDBRANCH  18  25
BRANCH  23  26
ATOM     26  O   UNL     1      -0.239  -2.813   0.155  0.00  0.00    -0.491 OA
ATOM     27  C   UNL     1      -0.392  -4.233   0.174  0.00  0.00    +0.277 C 
ENDBRANCH  23  26
BRANCH  21  28
ATOM     28  O   UNL     1      -4.988  -2.549   0.099  0.00  0.00    -0.495 OA
ATOM     29  C   UNL     1      -4.993  -3.978   0.126  0.00  0.00    +0.277 C 
ENDBRANCH  21  28
ENDBRANCH   1  20
BRANCH   9  30
ATOM     30  N   UNL     1      -5.013   3.044   2.568  0.00  0.00    -0.328 N 
ATOM     31  H   UNL     1      -4.880   4.003   2.627  0.00  0.00    +0.145 HD
ATOM     32  H   UNL     1      -5.236   2.535   3.363  0.00  0.00    +0.145 HD
ENDBRANCH   9  30
BRANCH  10  33
ATOM     33  C   UNL     1      -5.411   0.384   2.534  0.00  0.00    +0.101 C 
ATOM     34  N   UNL     1      -5.674  -0.160   3.496  0.00  0.00    -0.191 NA
ENDBRANCH  10  33
TORSDOF 7
