REMARK  Name = ZINC08854898
REMARK  7 active torsions:
REMARK  status: ('A' for Active; 'I' for Inactive)
REMARK    1  A    between atoms: C_5  and  C_7
REMARK    2  A    between atoms: C_7  and  O_8
REMARK    3  A    between atoms: O_8  and  C_9
REMARK    4  A    between atoms: C_12  and  C_15
REMARK    5  A    between atoms: C_18  and  C_29
REMARK    6  A    between atoms: C_24  and  N_28
REMARK    7  A    between atoms: C_25  and  C_26
REMARK                            x       y       z     vdW  Elec       q    Type
REMARK                         _______ _______ _______ _____ _____    ______ ____
ROOT
ATOM      1  C   UNL     1      -0.776  -8.274  -0.037  0.00  0.00    +0.102 C 
ATOM      2  C   UNL     1      -1.547  -8.700   1.186  0.00  0.00    +0.054 A 
ATOM      3  C   UNL     1      -1.135  -8.745   2.521  0.00  0.00    +0.100 A 
ATOM      4  N   UNL     1      -2.148  -9.181   3.244  0.00  0.00    -0.171 NA
ATOM      5  N   UNL     1      -3.231  -9.426   2.386  0.00  0.00    -0.246 N 
ATOM      6  H   UNL     1      -4.105  -9.753   2.650  0.00  0.00    +0.192 HD
ATOM      7  C   UNL     1      -2.843  -9.125   1.129  0.00  0.00    +0.223 A 
ATOM      8  O   UNL     1      -3.538  -9.202  -0.032  0.00  0.00    -0.423 OA
ATOM      9  C   UNL     1      -2.843  -9.108  -1.184  0.00  0.00    +0.200 C 
ATOM     10  C   UNL     1      -1.560  -8.688  -1.257  0.00  0.00    +0.098 C 
ENDROOT
BRANCH   3  11
ATOM     11  C   UNL     1       0.206  -8.368   3.033  0.00  0.00    +0.004 A 
ATOM     12  C   UNL     1       1.343  -8.614   2.265  0.00  0.00    +0.011 A 
ATOM     13  C   UNL     1       2.588  -8.262   2.746  0.00  0.00    +0.022 A 
ATOM     14  C   UNL     1       2.709  -7.665   3.989  0.00  0.00    +0.059 A 
ATOM     15  C   UNL     1       1.583  -7.418   4.756  0.00  0.00    +0.060 A 
ATOM     16  C   UNL     1       0.332  -7.762   4.281  0.00  0.00    +0.031 A 
ATOM     17 CL   UNL     1       1.743  -6.669   6.314  0.00  0.00    -0.082 Cl
ATOM     18 CL   UNL     1       4.278  -7.226   4.588  0.00  0.00    -0.082 Cl
ENDBRANCH   3  11
BRANCH   1  22
ATOM     19  C   UNL     1      -0.273  -4.030  -0.018  0.00  0.00    +0.121 A 
ATOM     20  C   UNL     1       0.838  -4.861  -0.028  0.00  0.00    +0.046 A 
ATOM     21  C   UNL     1       0.672  -6.233  -0.033  0.00  0.00    +0.008 A 
ATOM     22  C   UNL     1      -0.599  -6.777  -0.030  0.00  0.00    -0.034 A 
ATOM     23  C   UNL     1      -1.707  -5.951  -0.021  0.00  0.00    +0.008 A 
ATOM     24  C   UNL     1      -1.547  -4.579  -0.009  0.00  0.00    +0.046 A 
BRANCH  19  25
ATOM     25  O   UNL     1      -0.113  -2.680  -0.012  0.00  0.00    -0.487 OA
BRANCH  25  26
ATOM     26  C   UNL     1       1.228  -2.186  -0.022  0.00  0.00    +0.267 C 
BRANCH  26  31
ATOM     27  C   UNL     1      -0.017   1.378   0.010  0.00  0.00    +0.001 A 
ATOM     28  C   UNL     1       1.171   2.087   0.002  0.00  0.00    +0.003 A 
ATOM     29  C   UNL     1       2.377   1.414  -0.013  0.00  0.00    +0.039 A 
ATOM     30  C   UNL     1       2.397   0.029  -0.021  0.00  0.00    +0.130 A 
ATOM     31  C   UNL     1       1.208  -0.679  -0.013  0.00  0.00    +0.025 A 
ATOM     32  C   UNL     1       0.002  -0.004   0.002  0.00  0.00    +0.010 A 
ATOM     33  F   UNL     1       3.577  -0.630  -0.036  0.00  0.00    -0.205 F 
ENDBRANCH  26  31
ENDBRANCH  25  26
ENDBRANCH  19  25
ENDBRANCH   1  22
BRANCH   9  34
ATOM     34  N   UNL     1      -3.475  -9.460  -2.351  0.00  0.00    -0.328 N 
ATOM     35  H   UNL     1      -4.396  -9.765  -2.331  0.00  0.00    +0.145 HD
ATOM     36  H   UNL     1      -3.001  -9.403  -3.195  0.00  0.00    +0.145 HD
ENDBRANCH   9  34
BRANCH  10  37
ATOM     37  C   UNL     1      -0.922  -8.634  -2.538  0.00  0.00    +0.101 C 
ATOM     38  N   UNL     1      -0.416  -8.591  -3.554  0.00  0.00    -0.191 NA
ENDBRANCH  10  37
TORSDOF 7
