REMARK  Name = ZINC65190157
REMARK  10 active torsions:
REMARK  status: ('A' for Active; 'I' for Inactive)
REMARK    1  A    between atoms: C_1  and  C_2
REMARK    2  A    between atoms: C_2  and  N_3
REMARK    3  A    between atoms: N_6  and  N_7
REMARK    4  A    between atoms: C_8  and  C_10
REMARK    5  A    between atoms: C_10  and  N_11
REMARK    6  A    between atoms: N_11  and  C_12
REMARK    7  A    between atoms: N_11  and  S_13
REMARK    8  A    between atoms: S_13  and  C_16
REMARK    9  A    between atoms: C_19  and  C_23
REMARK   10  A    between atoms: C_20  and  C_22
REMARK                            x       y       z     vdW  Elec       q    Type
REMARK                         _______ _______ _______ _____ _____    ______ ____
ROOT
ATOM      1  C   UNL     1       3.150  -0.753  -5.557  0.00  0.00    +0.206 C 
ENDROOT
BRANCH   1   3
ATOM      2  N   UNL     1       1.969  -1.311  -3.456  0.00  0.00    -0.232 N 
ATOM      3  C   UNL     1       2.600  -1.745  -4.565  0.00  0.00    +0.245 C 
ATOM      4  O   UNL     1       2.725  -2.935  -4.764  0.00  0.00    -0.273 OA
ATOM      5  H   UNL     1       1.869  -0.359  -3.296  0.00  0.00    +0.173 HD
BRANCH   2   9
ATOM      6  N   UNL     1       0.688  -0.476  -1.203  0.00  0.00    -0.298 N 
ATOM      7  C   UNL     1       0.827  -1.799  -1.425  0.00  0.00    +0.316 C 
ATOM      8  O   UNL     1       0.383  -2.599  -0.625  0.00  0.00    -0.251 OA
ATOM      9  N   UNL     1       1.458  -2.233  -2.534  0.00  0.00    -0.218 N 
ATOM     10  H   UNL     1       1.042   0.162  -1.842  0.00  0.00    +0.150 HD
ATOM     11  H   UNL     1       1.558  -3.185  -2.693  0.00  0.00    +0.174 HD
BRANCH   6  13
ATOM     12  C   UNL     1      -0.019   1.526   0.010  0.00  0.00    +0.024 C 
ATOM     13  C   UNL     1       0.002  -0.004   0.002  0.00  0.00    +0.102 C 
ENDBRANCH   6  13
ENDBRANCH   2   9
ENDBRANCH   1   3
BRANCH   1  14
ATOM     14  N   UNL     1       3.783  -1.471  -6.666  0.00  0.00    -0.171 NA
ATOM     15  C   UNL     1       2.974  -1.938  -7.794  0.00  0.00    +0.132 C 
BRANCH  14  16
ATOM     16  S   UNL     1       5.415  -1.755  -6.644  0.00  0.00    +0.061 S 
ATOM     17  O   UNL     1       5.815  -1.928  -7.996  0.00  0.00    -0.153 OA
ATOM     18  O   UNL     1       5.988  -0.765  -5.800  0.00  0.00    -0.153 OA
BRANCH  16  19
ATOM     19  C   UNL     1       5.663  -3.304  -5.842  0.00  0.00    +0.106 A 
ATOM     20  C   UNL     1       5.838  -3.354  -4.472  0.00  0.00    +0.029 A 
ATOM     21  C   UNL     1       6.033  -4.569  -3.843  0.00  0.00    +0.005 A 
ATOM     22  C   UNL     1       6.053  -5.736  -4.585  0.00  0.00    -0.047 A 
ATOM     23  C   UNL     1       5.877  -5.686  -5.955  0.00  0.00    -0.046 A 
ATOM     24  C   UNL     1       5.678  -4.471  -6.583  0.00  0.00    +0.032 A 
ATOM     25  C   UNL     1       5.899  -6.958  -6.764  0.00  0.00    +0.044 C 
ATOM     26  C   UNL     1       6.266  -7.061  -3.900  0.00  0.00    +0.044 C 
ENDBRANCH  16  19
ENDBRANCH  14  16
ENDBRANCH   1  14
TORSDOF 6
