REMARK  Name = ZINC20362460
REMARK  3 active torsions:
REMARK  status: ('A' for Active; 'I' for Inactive)
REMARK    1  A    between atoms: C_2  and  N_19
REMARK    2  A    between atoms: C_4  and  S_9
REMARK    3  A    between atoms: S_9  and  C_10
REMARK                            x       y       z     vdW  Elec       q    Type
REMARK                         _______ _______ _______ _____ _____    ______ ____
ROOT
ATOM      1  C   UNL     1       2.038   2.326  -4.937  0.00  0.00    +0.113 A 
ATOM      2  C   UNL     1       2.562   2.086  -3.675  0.00  0.00    +0.124 A 
ATOM      3  N   UNL     1       1.918   2.535  -2.592  0.00  0.00    -0.209 NA
ATOM      4  C   UNL     1       0.788   3.204  -2.700  0.00  0.00    +0.171 A 
ATOM      5  N   UNL     1       0.230   3.460  -3.916  0.00  0.00    -0.302 N 
ATOM      6  H   UNL     1      -0.718   4.014  -3.980  0.00  0.00    +0.171 HD
ATOM      7  C   UNL     1       0.839   3.037  -5.043  0.00  0.00    +0.254 A 
ATOM      8  O   UNL     1       0.348   3.266  -6.137  0.00  0.00    -0.268 OA
ENDROOT
BRANCH   2   9
ATOM      9  N   UNL     1       3.745   1.387  -3.537  0.00  0.00    -0.343 N 
ATOM     10  H   UNL     1       4.159   1.198  -2.535  0.00  0.00    +0.144 HD
ATOM     11  H   UNL     1       4.274   1.020  -4.429  0.00  0.00    +0.144 HD
ENDBRANCH   2   9
BRANCH   4  12
ATOM     12  S   UNL     1      -0.021   3.772  -1.241  0.00  0.00    -0.075 S 
BRANCH  12  13
ATOM     13  C   UNL     1       1.128   3.158   0.015  0.00  0.00    +0.140 C 
ATOM     14  C   UNL     1       0.675   3.627   1.400  0.00  0.00    +0.024 C 
ATOM     15  C   UNL     1      -0.840   3.668   1.484  0.00  0.00    +0.003 C 
ATOM     16  C   UNL     1      -1.496   2.302   1.407  0.00  0.00    +0.019 C 
ATOM     17  C   UNL     1      -1.298   1.680   0.017  0.00  0.00    +0.104 C 
ATOM     18  N   UNL     1      -0.011   0.966   0.007  0.00  0.00    -0.314 N 
ATOM     19  C   UNL     1       1.137   1.644   0.000  0.00  0.00    +0.226 C 
ATOM     20  O   UNL     1       2.192   1.046  -0.018  0.00  0.00    -0.275 OA
ATOM     21  H   UNL     1       0.008  -0.134   0.006  0.00  0.00    +0.149 HD
ENDBRANCH  12  13
ENDBRANCH   4  12
TORSDOF 3
