REMARK  Name = ZINC29391912
REMARK  8 active torsions:
REMARK  status: ('A' for Active; 'I' for Inactive)
REMARK    1  A    between atoms: C_1  and  C_2
REMARK    2  A    between atoms: C_3  and  C_18
REMARK    3  A    between atoms: C_4  and  C_10
REMARK    4  A    between atoms: N_20  and  C_21
REMARK    5  A    between atoms: C_21  and  C_22
REMARK    6  A    between atoms: C_22  and  C_23
REMARK    7  A    between atoms: C_23  and  N_24
REMARK    8  A    between atoms: C_27  and  C_30
REMARK                            x       y       z     vdW  Elec       q    Type
REMARK                         _______ _______ _______ _____ _____    ______ ____
ROOT
ATOM      1  C   UNL     1      -1.774   6.149   3.578  0.00  0.00    +0.242 C 
ATOM      2  O   UNL     1      -2.477   5.566   4.384  0.00  0.00    -0.270 OA
ATOM      3  N   UNL     1      -1.173   5.462   2.587  0.00  0.00    -0.312 N 
ATOM      4  H   UNL     1      -0.538   5.989   1.859  0.00  0.00    +0.149 HD
ENDROOT
BRANCH   1   7
ATOM      5  C   UNL     1      -3.249   7.534   5.506  0.00  0.00    +0.061 C 
ATOM      6  C   UNL     1      -2.280   8.249   4.600  0.00  0.00    +0.016 C 
ATOM      7  C   UNL     1      -1.588   7.550   3.684  0.00  0.00    +0.039 C 
ATOM      8  C   UNL     1      -0.611   8.247   2.773  0.00  0.00    +0.064 C 
ATOM      9  C   UNL     1       0.037   9.414   3.516  0.00  0.00    +0.109 C 
ATOM     10  C   UNL     1      -1.027  10.216   4.219  0.00  0.00    +0.218 C 
ATOM     11  O   UNL     1      -0.901  11.416   4.335  0.00  0.00    -0.275 OA
ATOM     12  N   UNL     1      -2.117   9.606   4.720  0.00  0.00    -0.289 N 
ATOM     13  H   UNL     1      -2.882  10.209   5.230  0.00  0.00    +0.154 HD
BRANCH   8  14
ATOM     14  C   UNL     1      -1.339   8.771   1.562  0.00  0.00    -0.036 A 
ATOM     15  C   UNL     1      -0.981   8.337   0.299  0.00  0.00    +0.007 A 
ATOM     16  C   UNL     1      -1.647   8.816  -0.813  0.00  0.00    +0.041 A 
ATOM     17  C   UNL     1      -2.674   9.731  -0.664  0.00  0.00    +0.158 A 
ATOM     18  C   UNL     1      -3.034  10.166   0.603  0.00  0.00    +0.159 A 
ATOM     19  C   UNL     1      -2.369   9.681   1.715  0.00  0.00    +0.045 A 
ATOM     20  F   UNL     1      -4.036  11.060   0.751  0.00  0.00    -0.202 F 
ATOM     21  F   UNL     1      -3.326  10.199  -1.750  0.00  0.00    -0.202 F 
ENDBRANCH   8  14
ENDBRANCH   1   7
BRANCH   3  22
ATOM     22  C   UNL     1      -1.365   4.014   2.478  0.00  0.00    +0.102 C 
BRANCH  22  23
ATOM     23  C   UNL     1      -0.580   3.485   1.276  0.00  0.00    +0.000 C 
BRANCH  23  24
ATOM     24  C   UNL     1      -0.781   1.972   1.162  0.00  0.00    -0.077 C 
BRANCH  24  25
ATOM     25  N   UNL     1      -0.027   1.464   0.008  0.00  0.00    +0.380 N 
ATOM     26  C   UNL     1       1.332   2.020  -0.019  0.00  0.00    -0.078 C 
ATOM     27  C   UNL     1       2.037   1.586  -1.306  0.00  0.00    -0.011 C 
ATOM     28  C   UNL     1       2.090   0.056  -1.363  0.00  0.00    +0.016 C 
ATOM     29  C   UNL     1       0.665  -0.499  -1.284  0.00  0.00    -0.011 C 
ATOM     30  C   UNL     1       0.000  -0.005   0.003  0.00  0.00    -0.078 C 
ATOM     31  H   UNL     1      -0.542   1.793  -0.906  0.00  0.00    -0.082 HD
BRANCH  28  32
ATOM     32  C   UNL     1       2.729  -0.379  -2.656  0.00  0.00    -0.044 A 
ATOM     33  C   UNL     1       2.159  -0.021  -3.863  0.00  0.00    +0.007 A 
ATOM     34  C   UNL     1       2.748  -0.416  -5.050  0.00  0.00    +0.038 A 
ATOM     35  C   UNL     1       3.903  -1.180  -5.029  0.00  0.00    +0.123 A 
ATOM     36  C   UNL     1       4.470  -1.542  -3.819  0.00  0.00    +0.038 A 
ATOM     37  C   UNL     1       3.882  -1.142  -2.633  0.00  0.00    +0.007 A 
ATOM     38  F   UNL     1       4.476  -1.571  -6.188  0.00  0.00    -0.205 F 
ENDBRANCH  28  32
ENDBRANCH  24  25
ENDBRANCH  23  24
ENDBRANCH  22  23
ENDBRANCH   3  22
TORSDOF 7
