REMARK  Name = ZINC36574194
REMARK  14 active torsions:
REMARK  status: ('A' for Active; 'I' for Inactive)
REMARK    1  A    between atoms: C_1  and  C_2
REMARK    2  A    between atoms: C_2  and  C_3
REMARK    3  A    between atoms: C_3  and  N_4
REMARK    4  A    between atoms: N_4  and  C_5
REMARK    5  A    between atoms: C_5  and  C_7
REMARK    6  A    between atoms: C_5  and  C_16
REMARK    7  A    between atoms: C_8  and  O_15
REMARK    8  A    between atoms: C_10  and  O_14
REMARK    9  A    between atoms: C_12  and  O_13
REMARK   10  A    between atoms: N_18  and  C_19
REMARK   11  A    between atoms: C_19  and  C_20
REMARK   12  A    between atoms: C_19  and  C_21
REMARK   13  A    between atoms: C_19  and  C_22
REMARK   14  A    between atoms: C_23  and  C_25
REMARK                            x       y       z     vdW  Elec       q    Type
REMARK                         _______ _______ _______ _____ _____    ______ ____
ROOT
ATOM      1  C   UNL     1      -1.439  -2.800   1.034  0.00  0.00    +0.199 C 
ENDROOT
BRANCH   1   2
ATOM      2  C   UNL     1      -0.337  -2.431   1.994  0.00  0.00    +0.065 A 
ATOM      3  C   UNL     1      -0.626  -2.219   3.334  0.00  0.00    +0.129 A 
ATOM      4  C   UNL     1       0.388  -1.879   4.217  0.00  0.00    +0.091 A 
ATOM      5  C   UNL     1       1.691  -1.752   3.760  0.00  0.00    +0.124 A 
ATOM      6  C   UNL     1       1.980  -1.964   2.421  0.00  0.00    +0.091 A 
ATOM      7  C   UNL     1       0.967  -2.308   1.538  0.00  0.00    +0.129 A 
BRANCH   7   8
ATOM      8  O   UNL     1       1.251  -2.522   0.227  0.00  0.00    -0.506 OA
ATOM      9  H   UNL     1       1.276  -1.715  -0.306  0.00  0.00    +0.292 HD
ENDBRANCH   7   8
BRANCH   5  10
ATOM     10  O   UNL     1       2.684  -1.418   4.625  0.00  0.00    -0.507 OA
ATOM     11  H   UNL     1       3.114  -2.177   5.042  0.00  0.00    +0.292 HD
ENDBRANCH   5  10
BRANCH   3  12
ATOM     12  O   UNL     1      -1.903  -2.344   3.781  0.00  0.00    -0.506 OA
ATOM     13  H   UNL     1      -2.103  -3.208   4.166  0.00  0.00    +0.292 HD
ENDBRANCH   3  12
ENDBRANCH   1   2
BRANCH   1  14
ATOM     14  C   UNL     1      -2.768  -2.721   1.741  0.00  0.00    +0.239 C 
ATOM     15  O   UNL     1      -3.476  -1.748   1.593  0.00  0.00    -0.273 OA
ATOM     16  N   UNL     1      -3.168  -3.732   2.538  0.00  0.00    -0.309 N 
ATOM     17  H   UNL     1      -2.602  -4.510   2.656  0.00  0.00    +0.149 HD
BRANCH  16  18
ATOM     18  C   UNL     1      -4.460  -3.655   3.224  0.00  0.00    +0.026 C 
ATOM     19  C   UNL     1      -5.581  -3.533   2.190  0.00  0.00    +0.031 C 
ATOM     20  C   UNL     1      -4.671  -4.921   4.057  0.00  0.00    +0.031 C 
ATOM     21  C   UNL     1      -4.478  -2.432   4.143  0.00  0.00    +0.031 C 
ENDBRANCH  16  18
ENDBRANCH   1  14
BRANCH   1  22
ATOM     22  N   UNL     1      -1.432  -1.870  -0.098  0.00  0.00    -0.285 N 
ATOM     23  C   UNL     1      -1.288  -2.339  -1.353  0.00  0.00    +0.231 C 
ATOM     24  O   UNL     1      -1.282  -1.569  -2.291  0.00  0.00    -0.274 OA
BRANCH  23  25
ATOM     25  C   UNL     1      -1.134  -3.819  -1.592  0.00  0.00    +0.204 C 
ATOM     26 CL   UNL     1      -0.963  -4.127  -3.361  0.00  0.00    -0.116 Cl
ENDBRANCH  23  25
BRANCH  22  27
ATOM     27  C   UNL     1      -1.582  -0.432   0.135  0.00  0.00    +0.108 C 
BRANCH  27  29
ATOM     28  C   UNL     1      -0.359   1.742   0.290  0.00  0.00    +0.005 C 
ATOM     29  C   UNL     1      -0.200   0.224   0.181  0.00  0.00    +0.016 C 
ENDBRANCH  27  29
ENDBRANCH  22  27
ENDBRANCH   1  22
TORSDOF 10
