REMARK  Name = ZINC35599395
REMARK  9 active torsions:
REMARK  status: ('A' for Active; 'I' for Inactive)
REMARK    1  A    between atoms: C_1  and  C_2
REMARK    2  A    between atoms: C_6  and  N_17
REMARK    3  A    between atoms: C_7  and  S_8
REMARK    4  A    between atoms: S_8  and  N_11
REMARK    5  A    between atoms: N_11  and  C_12
REMARK    6  A    between atoms: C_12  and  C_13
REMARK    7  A    between atoms: C_12  and  C_14
REMARK    8  A    between atoms: C_12  and  C_15
REMARK    9  A    between atoms: C_15  and  O_16
REMARK                            x       y       z     vdW  Elec       q    Type
REMARK                         _______ _______ _______ _____ _____    ______ ____
ROOT
ATOM      1  S   UNL     1      -0.266   0.545   2.957  0.00  0.00    +0.061 S 
ATOM      2  O   UNL     1       0.635  -0.409   3.502  0.00  0.00    -0.153 OA
ATOM      3  O   UNL     1      -0.139   1.939   3.200  0.00  0.00    -0.153 OA
ENDROOT
BRANCH   1  10
ATOM      4  C   UNL     1       1.406  -1.533   1.533  0.00  0.00    +0.046 C 
ATOM      5  C   UNL     1       0.569  -0.646   0.648  0.00  0.00    -0.022 A 
ATOM      6  C   UNL     1       0.596  -0.817  -0.724  0.00  0.00    +0.005 A 
ATOM      7  C   UNL     1      -0.170  -0.004  -1.540  0.00  0.00    +0.002 A 
ATOM      8  C   UNL     1      -0.965   0.980  -0.987  0.00  0.00    +0.025 A 
ATOM      9  C   UNL     1      -0.995   1.154   0.391  0.00  0.00    +0.051 A 
ATOM     10  C   UNL     1      -0.228   0.333   1.208  0.00  0.00    +0.129 A 
BRANCH   9  11
ATOM     11  N   UNL     1      -1.797   2.149   0.954  0.00  0.00    -0.356 N 
ATOM     12  H   UNL     1      -2.365   2.693   0.386  0.00  0.00    +0.142 HD
ATOM     13  H   UNL     1      -1.787   2.296   1.913  0.00  0.00    +0.142 HD
ENDBRANCH   9  11
ENDBRANCH   1  10
BRANCH   1  14
ATOM     14  N   UNL     1      -1.780   0.111   3.470  0.00  0.00    -0.182 NA
ATOM     15  H   UNL     1      -2.375   0.779   3.844  0.00  0.00    +0.149 HD
BRANCH  14  16
ATOM     16  C   UNL     1      -2.221  -1.282   3.357  0.00  0.00    +0.057 C 
ATOM     17  C   UNL     1      -2.054  -1.754   1.911  0.00  0.00    +0.031 C 
ATOM     18  C   UNL     1      -1.375  -2.161   4.281  0.00  0.00    +0.031 C 
BRANCH  16  19
ATOM     19  C   UNL     1      -3.693  -1.385   3.760  0.00  0.00    +0.179 C 
BRANCH  19  20
ATOM     20  O   UNL     1      -4.122  -2.744   3.650  0.00  0.00    -0.393 OA
ATOM     21  H   UNL     1      -5.048  -2.884   3.891  0.00  0.00    +0.209 HD
ENDBRANCH  19  20
ENDBRANCH  16  19
ENDBRANCH  14  16
ENDBRANCH   1  14
TORSDOF 6
