REMARK  Name = ZINC08312326
REMARK  5 active torsions:
REMARK  status: ('A' for Active; 'I' for Inactive)
REMARK    1  A    between atoms: C_4  and  C_7
REMARK    2  A    between atoms: C_7  and  C_8
REMARK    3  A    between atoms: C_8  and  C_9
REMARK    4  A    between atoms: N_13  and  C_17
REMARK    5  A    between atoms: C_17  and  C_18
REMARK                            x       y       z     vdW  Elec       q    Type
REMARK                         _______ _______ _______ _____ _____    ______ ____
ROOT
ATOM      1  C   UNL     1       2.164   0.734  -0.015  0.00  0.00    +0.161 C 
ATOM      2  C   UNL     1       1.261  -0.484  -0.013  0.00  0.00    +0.244 C 
ATOM      3  O   UNL     1       1.601  -1.648  -0.021  0.00  0.00    -0.273 OA
ATOM      4  N   UNL     1       0.002  -0.004   0.002  0.00  0.00    -0.215 N 
ATOM      5  C   UNL     1      -0.016   1.334   0.009  0.00  0.00    +0.310 C 
ATOM      6  O   UNL     1      -1.035   1.996   0.018  0.00  0.00    -0.252 OA
ATOM      7  N   UNL     1       1.220   1.865   0.000  0.00  0.00    -0.288 N 
ATOM      8  H   UNL     1       1.446   2.808   0.003  0.00  0.00    +0.151 HD
ENDROOT
BRANCH   1   9
ATOM      9  C   UNL     1       3.022   0.765  -1.281  0.00  0.00    +0.036 C 
BRANCH   9  10
ATOM     10  C   UNL     1       4.009   1.932  -1.199  0.00  0.00    +0.037 C 
BRANCH  10  14
ATOM     11  C   UNL     1       6.404   2.022  -4.735  0.00  0.00    +0.000 A 
ATOM     12  C   UNL     1       5.214   2.722  -4.689  0.00  0.00    +0.000 A 
ATOM     13  C   UNL     1       4.439   2.694  -3.545  0.00  0.00    +0.003 A 
ATOM     14  C   UNL     1       4.854   1.963  -2.447  0.00  0.00    -0.047 A 
ATOM     15  C   UNL     1       6.047   1.267  -2.491  0.00  0.00    +0.003 A 
ATOM     16  C   UNL     1       6.820   1.292  -3.637  0.00  0.00    +0.000 A 
ENDBRANCH  10  14
ENDBRANCH   9  10
ENDBRANCH   1   9
BRANCH   4  17
ATOM     17  C   UNL     1      -1.199  -0.844   0.010  0.00  0.00    +0.214 C 
BRANCH  17  18
ATOM     18  C   UNL     1      -1.624  -1.124  -1.408  0.00  0.00    +0.215 A 
ATOM     19  N   UNL     1      -1.223  -2.136  -2.117  0.00  0.00    -0.212 NA
ATOM     20  C   UNL     1      -1.809  -2.072  -3.344  0.00  0.00    +0.110 A 
ATOM     21  C   UNL     1      -1.749  -2.871  -4.487  0.00  0.00    +0.031 A 
ATOM     22  C   UNL     1      -2.483  -2.528  -5.599  0.00  0.00    +0.002 A 
ATOM     23  C   UNL     1      -3.280  -1.392  -5.593  0.00  0.00    +0.004 A 
ATOM     24  C   UNL     1      -3.349  -0.593  -4.471  0.00  0.00    +0.048 A 
ATOM     25  C   UNL     1      -2.616  -0.924  -3.341  0.00  0.00    +0.155 A 
ATOM     26  O   UNL     1      -2.477  -0.367  -2.118  0.00  0.00    -0.438 OA
ENDBRANCH  17  18
ENDBRANCH   4  17
TORSDOF 5
