REMARK  Name = ZINC37393010
REMARK  7 active torsions:
REMARK  status: ('A' for Active; 'I' for Inactive)
REMARK    1  A    between atoms: C_1  and  C_2
REMARK    2  A    between atoms: C_2  and  C_3
REMARK    3  A    between atoms: C_2  and  C_4
REMARK    4  A    between atoms: C_4  and  C_5
REMARK    5  A    between atoms: C_5  and  C_7
REMARK    6  A    between atoms: C_5  and  N_19
REMARK    7  A    between atoms: N_9  and  C_10
REMARK                            x       y       z     vdW  Elec       q    Type
REMARK                         _______ _______ _______ _____ _____    ______ ____
ROOT
ATOM      1  C   UNL     1      -2.713  -2.895  -0.313  0.00  0.00    +0.203 C 
ATOM      2  O   UNL     1      -3.310  -3.510   0.545  0.00  0.00    -0.277 OA
ATOM      3  N   UNL     1      -3.318  -2.610  -1.483  0.00  0.00    -0.284 N 
ATOM      4  H   UNL     1      -2.832  -2.141  -2.179  0.00  0.00    +0.155 HD
ENDROOT
BRANCH   3   5
ATOM      5  C   UNL     1      -4.650  -2.992  -1.694  0.00  0.00    +0.083 A 
ATOM      6  C   UNL     1      -5.566  -2.931  -0.649  0.00  0.00    +0.148 A 
ATOM      7  C   UNL     1      -6.880  -3.308  -0.860  0.00  0.00    +0.078 A 
ATOM      8  C   UNL     1      -7.282  -3.747  -2.110  0.00  0.00    +0.127 A 
ATOM      9  C   UNL     1      -6.372  -3.810  -3.151  0.00  0.00    +0.055 A 
ATOM     10  C   UNL     1      -5.059  -3.427  -2.947  0.00  0.00    +0.045 A 
ATOM     11 BR   UNL     1      -3.819  -3.504  -4.372  0.00  0.00    -0.048 Br
ATOM     12  F   UNL     1      -8.566  -4.116  -2.314  0.00  0.00    -0.205 F 
ATOM     13  F   UNL     1      -5.173  -2.503   0.571  0.00  0.00    -0.203 F 
ENDBRANCH   3   5
BRANCH   1  14
ATOM     14  C   UNL     1      -1.293  -2.450  -0.071  0.00  0.00    +0.013 C 
BRANCH  14  15
ATOM     15  N   UNL     1      -0.706  -3.252   1.010  0.00  0.00    +0.386 N 
ATOM     16  H   UNL     1      -0.789  -4.232   0.785  0.00  0.00    -0.089 HD
ATOM     17  H   UNL     1       0.269  -3.013   1.115  0.00  0.00    -0.089 HD
ATOM     18  H   UNL     1      -1.194  -3.062   1.873  0.00  0.00    -0.089 HD
ENDBRANCH  14  15
BRANCH  14  19
ATOM     19  C   UNL     1      -1.283  -0.972   0.327  0.00  0.00    -0.004 C 
BRANCH  19  21
ATOM     20  C   UNL     1       0.815  -0.515  -0.950  0.00  0.00    +0.007 C 
ATOM     21  C   UNL     1       0.162  -0.483   0.434  0.00  0.00    -0.018 C 
ATOM     22  C   UNL     1       0.177   0.950   0.972  0.00  0.00    +0.007 C 
ENDBRANCH  19  21
ENDBRANCH  14  19
ENDBRANCH   1  14
TORSDOF 5
