REMARK  Name = ZINC30260677
REMARK  5 active torsions:
REMARK  status: ('A' for Active; 'I' for Inactive)
REMARK    1  A    between atoms: C_3  and  C_9
REMARK    2  A    between atoms: N_14  and  C_17
REMARK    3  A    between atoms: C_17  and  C_18
REMARK    4  A    between atoms: N_20  and  C_21
REMARK    5  A    between atoms: C_22  and  C_26
REMARK                            x       y       z     vdW  Elec       q    Type
REMARK                         _______ _______ _______ _____ _____    ______ ____
ROOT
ATOM      1  C   UNL     1       5.534   6.396   1.435  0.00  0.00    +0.248 C 
ATOM      2  O   UNL     1       5.479   7.582   1.173  0.00  0.00    -0.270 OA
ATOM      3  N   UNL     1       4.961   5.497   0.610  0.00  0.00    -0.301 N 
ATOM      4  C   UNL     1       4.190   5.934  -0.564  0.00  0.00    +0.089 C 
ATOM      5  C   UNL     1       2.827   5.234  -0.539  0.00  0.00    -0.059 C 
ATOM      6  N   UNL     1       3.028   3.782  -0.433  0.00  0.00    +0.387 N 
ATOM      7  C   UNL     1       3.692   3.427   0.829  0.00  0.00    -0.059 C 
ATOM      8  C   UNL     1       5.090   4.053   0.860  0.00  0.00    +0.089 C 
ATOM      9  H   UNL     1       3.689   3.474  -1.256  0.00  0.00    -0.081 HD
ENDROOT
BRANCH   1  12
ATOM     10  C   UNL     1       7.868   4.542   3.717  0.00  0.00    +0.021 A 
ATOM     11  C   UNL     1       7.223   4.964   2.574  0.00  0.00    +0.016 A 
ATOM     12  C   UNL     1       6.229   5.940   2.656  0.00  0.00    +0.055 A 
ATOM     13  C   UNL     1       5.897   6.488   3.898  0.00  0.00    +0.054 A 
ATOM     14  C   UNL     1       6.546   6.053   5.036  0.00  0.00    +0.040 A 
ATOM     15  C   UNL     1       7.532   5.085   4.947  0.00  0.00    +0.042 A 
ATOM     16 CL   UNL     1       8.349   4.549   6.381  0.00  0.00    -0.083 Cl
ATOM     17 CL   UNL     1       4.666   7.708   4.011  0.00  0.00    -0.083 Cl
ENDBRANCH   1  12
BRANCH   6  18
ATOM     18  C   UNL     1       1.756   3.063  -0.579  0.00  0.00    +0.019 C 
BRANCH  18  19
ATOM     19  C   UNL     1       2.026   1.586  -0.710  0.00  0.00    +0.201 C 
ATOM     20  O   UNL     1       3.166   1.173  -0.685  0.00  0.00    -0.278 OA
ATOM     21  N   UNL     1       1.000   0.724  -0.856  0.00  0.00    -0.281 N 
ATOM     22  H   UNL     1      -0.034   1.098  -0.879  0.00  0.00    +0.155 HD
BRANCH  21  23
ATOM     23  C   UNL     1       1.249  -0.635  -0.977  0.00  0.00    +0.084 A 
ATOM     24  C   UNL     1       0.334  -1.670  -1.128  0.00  0.00    +0.065 A 
ATOM     25  C   UNL     1       0.874  -3.004  -1.235  0.00  0.00    +0.022 A 
ATOM     26  C   UNL     1       2.212  -3.132  -1.169  0.00  0.00    +0.048 A 
ATOM     27  S   UNL     1       2.774  -1.454  -0.969  0.00  0.00    -0.081 S 
BRANCH  24  28
ATOM     28  C   UNL     1      -1.110  -1.419  -1.179  0.00  0.00    +0.244 C 
ATOM     29  O   UNL     1      -1.533  -0.281  -1.089  0.00  0.00    -0.270 OA
ATOM     30  N   UNL     1      -1.968  -2.448  -1.326  0.00  0.00    -0.325 N 
ATOM     31  H   UNL     1      -3.051  -2.259  -1.365  0.00  0.00    +0.145 HD
ATOM     32  H   UNL     1      -1.586  -3.476  -1.408  0.00  0.00    +0.145 HD
ENDBRANCH  24  28
ENDBRANCH  21  23
ENDBRANCH  18  19
ENDBRANCH   6  18
TORSDOF 5
