REMARK  Name = ZINC00705610
REMARK  5 active torsions:
REMARK  status: ('A' for Active; 'I' for Inactive)
REMARK    1  A    between atoms: C_5  and  C_7
REMARK    2  A    between atoms: C_13  and  C_28
REMARK    3  A    between atoms: C_14  and  C_21
REMARK    4  A    between atoms: C_16  and  C_19
REMARK    5  A    between atoms: C_17  and  N_18
REMARK                            x       y       z     vdW  Elec       q    Type
REMARK                         _______ _______ _______ _____ _____    ______ ____
ROOT
ATOM      1  C   UNL     1      -3.750   7.547   2.081  0.00  0.00    +0.031 C 
ATOM      2  C   UNL     1      -2.650   6.846   1.706  0.00  0.00    +0.080 A 
ATOM      3  C   UNL     1      -1.967   6.806   0.408  0.00  0.00    +0.271 A 
ATOM      4  O   UNL     1      -2.375   7.465  -0.530  0.00  0.00    -0.266 OA
ATOM      5  N   UNL     1      -0.878   6.023   0.279  0.00  0.00    -0.256 N 
ATOM      6  C   UNL     1      -0.471   5.303   1.386  0.00  0.00    +0.104 A 
ATOM      7  C   UNL     1       0.603   4.475   1.407  0.00  0.00    +0.073 C 
ATOM      8  C   UNL     1       1.419   4.321   0.139  0.00  0.00    +0.108 C 
ATOM      9  C   UNL     1       0.941   5.127  -1.052  0.00  0.00    +0.080 C 
ATOM     10  C   UNL     1      -0.151   5.910  -0.912  0.00  0.00    +0.119 C 
ATOM     11  S   UNL     1      -1.642   5.724   2.661  0.00  0.00    -0.065 S 
ENDROOT
BRANCH   1  16
ATOM     12  C   UNL     1      -5.564   8.386  -1.091  0.00  0.00    +0.001 A 
ATOM     13  C   UNL     1      -5.998   9.673  -0.821  0.00  0.00    +0.003 A 
ATOM     14  C   UNL     1      -5.703  10.271   0.391  0.00  0.00    +0.039 A 
ATOM     15  C   UNL     1      -4.976   9.584   1.345  0.00  0.00    +0.131 A 
ATOM     16  C   UNL     1      -4.529   8.284   1.076  0.00  0.00    +0.011 A 
ATOM     17  C   UNL     1      -4.833   7.688  -0.154  0.00  0.00    +0.011 A 
ATOM     18  F   UNL     1      -4.693  10.167   2.531  0.00  0.00    -0.205 F 
ENDBRANCH   1  16
BRANCH   8  19
ATOM     19  C   UNL     1       1.421   2.865  -0.247  0.00  0.00    +0.001 A 
ATOM     20  C   UNL     1       0.228   2.219  -0.515  0.00  0.00    +0.007 A 
ATOM     21  C   UNL     1       0.229   0.883  -0.870  0.00  0.00    +0.000 A 
ATOM     22  C   UNL     1       1.423   0.191  -0.957  0.00  0.00    +0.003 A 
ATOM     23  C   UNL     1       2.616   0.834  -0.689  0.00  0.00    +0.038 A 
ATOM     24  C   UNL     1       2.616   2.173  -0.334  0.00  0.00    +0.127 A 
ATOM     25  F   UNL     1       3.783   2.802  -0.071  0.00  0.00    -0.205 F 
ENDBRANCH   8  19
BRANCH  10  26
ATOM     26  N   UNL     1      -0.573   6.635  -2.000  0.00  0.00    -0.343 N 
ATOM     27  H   UNL     1      -0.024   6.568  -2.952  0.00  0.00    +0.144 HD
ATOM     28  H   UNL     1      -1.459   7.282  -1.921  0.00  0.00    +0.144 HD
ENDBRANCH  10  26
BRANCH   9  29
ATOM     29  C   UNL     1       1.635   5.060  -2.303  0.00  0.00    +0.099 C 
ATOM     30  N   UNL     1       2.185   5.007  -3.295  0.00  0.00    -0.191 NA
ENDBRANCH   9  29
BRANCH   7  31
ATOM     31  C   UNL     1       0.958   3.764   2.599  0.00  0.00    +0.098 C 
ATOM     32  N   UNL     1       1.239   3.200   3.544  0.00  0.00    -0.191 NA
ENDBRANCH   7  31
TORSDOF 5
