REMARK  Name = ZINC05341225
REMARK  6 active torsions:
REMARK  status: ('A' for Active; 'I' for Inactive)
REMARK    1  A    between atoms: C_1  and  C_2
REMARK    2  A    between atoms: C_2  and  N_15
REMARK    3  A    between atoms: N_3  and  N_4
REMARK    4  A    between atoms: N_13  and  C_14
REMARK    5  A    between atoms: N_16  and  C_17
REMARK    6  A    between atoms: N_25  and  C_26
REMARK                            x       y       z     vdW  Elec       q    Type
REMARK                         _______ _______ _______ _____ _____    ______ ____
ROOT
ATOM      1  C   UNL     1      -4.767   1.347  -1.740  0.00  0.00    +0.091 C 
ATOM      2  C   UNL     1      -5.198   1.825  -0.377  0.00  0.00    +0.166 C 
ATOM      3  N   UNL     1      -4.315   1.963   0.576  0.00  0.00    -0.163 NA
ENDROOT
BRANCH   3   4
ATOM      4  N   UNL     1      -2.967   1.669   0.331  0.00  0.00    -0.205 N 
ATOM      5  C   UNL     1      -2.034   1.815   1.337  0.00  0.00    +0.216 A 
ATOM      6  N   UNL     1      -2.299   2.218   2.555  0.00  0.00    -0.213 NA
ATOM      7  C   UNL     1      -1.153   2.254   3.283  0.00  0.00    +0.091 A 
ATOM      8  C   UNL     1      -0.865   2.606   4.604  0.00  0.00    +0.030 A 
ATOM      9  C   UNL     1       0.431   2.537   5.063  0.00  0.00    +0.002 A 
ATOM     10  C   UNL     1       1.454   2.121   4.223  0.00  0.00    +0.002 A 
ATOM     11  C   UNL     1       1.187   1.770   2.916  0.00  0.00    +0.028 A 
ATOM     12  C   UNL     1      -0.113   1.833   2.437  0.00  0.00    +0.070 A 
ATOM     13  N   UNL     1      -0.698   1.558   1.213  0.00  0.00    -0.314 N 
ATOM     14  C   UNL     1      -0.013   1.086   0.008  0.00  0.00    +0.152 C 
ATOM     15  H   UNL     1      -2.690   1.361  -0.546  0.00  0.00    +0.177 HD
ENDBRANCH   3   4
BRANCH   2  16
ATOM     16  N   UNL     1      -6.488   2.107  -0.142  0.00  0.00    -0.130 NA
ATOM     17  N   UNL     1      -6.857   2.516   1.024  0.00  0.00    -0.109 NA
BRANCH  17  18
ATOM     18  C   UNL     1      -8.164   2.802   1.262  0.00  0.00    +0.251 A 
ATOM     19  N   UNL     1      -9.134   2.698   0.381  0.00  0.00    -0.209 NA
ATOM     20  C   UNL     1     -10.302   3.059   0.947  0.00  0.00    +0.091 A 
ATOM     21  C   UNL     1     -11.617   3.134   0.471  0.00  0.00    +0.030 A 
ATOM     22  C   UNL     1     -12.619   3.546   1.301  0.00  0.00    +0.002 A 
ATOM     23  C   UNL     1     -12.350   3.896   2.618  0.00  0.00    +0.002 A 
ATOM     24  C   UNL     1     -11.063   3.831   3.110  0.00  0.00    +0.028 A 
ATOM     25  C   UNL     1     -10.030   3.413   2.282  0.00  0.00    +0.070 A 
ATOM     26  N   UNL     1      -8.672   3.237   2.459  0.00  0.00    -0.310 N 
ATOM     27  C   UNL     1      -7.917   3.473   3.692  0.00  0.00    +0.152 C 
ENDBRANCH  17  18
ENDBRANCH   2  16
TORSDOF 3
