REMARK  Name = ZINC02889315
REMARK  9 active torsions:
REMARK  status: ('A' for Active; 'I' for Inactive)
REMARK    1  A    between atoms: C_1  and  C_2
REMARK    2  A    between atoms: C_5  and  C_30
REMARK    3  A    between atoms: C_6  and  S_8
REMARK    4  A    between atoms: S_8  and  N_11
REMARK    5  A    between atoms: N_11  and  C_12
REMARK    6  A    between atoms: C_12  and  C_13
REMARK    7  A    between atoms: N_15  and  C_16
REMARK    8  A    between atoms: C_17  and  C_27
REMARK    9  A    between atoms: C_22  and  C_26
REMARK                            x       y       z     vdW  Elec       q    Type
REMARK                         _______ _______ _______ _____ _____    ______ ____
ROOT
ATOM      1  C   UNL     1      -2.374  -5.924   0.901  0.00  0.00    +0.233 C 
ATOM      2  O   UNL     1      -3.109  -5.947   1.866  0.00  0.00    -0.274 OA
ATOM      3  N   UNL     1      -2.497  -6.859  -0.062  0.00  0.00    -0.278 N 
ATOM      4  H   UNL     1      -1.909  -6.841  -0.833  0.00  0.00    +0.155 HD
ENDROOT
BRANCH   3   5
ATOM      5  C   UNL     1      -3.463  -7.848   0.051  0.00  0.00    +0.084 A 
ATOM      6  C   UNL     1      -3.728  -8.884  -0.830  0.00  0.00    +0.068 A 
ATOM      7  C   UNL     1      -4.804  -9.795  -0.480  0.00  0.00    -0.023 A 
ATOM      8  C   UNL     1      -5.417  -9.502   0.687  0.00  0.00    -0.004 A 
ATOM      9  S   UNL     1      -4.576  -8.068   1.289  0.00  0.00    -0.077 S 
ATOM     10  C   UNL     1      -6.555 -10.245   1.316  0.00  0.00    +0.046 C 
ATOM     11  C   UNL     1      -7.172 -11.169   0.257  0.00  0.00    -0.009 C 
ATOM     12  C   UNL     1      -6.049 -11.939  -0.444  0.00  0.00    +0.008 C 
ATOM     13  C   UNL     1      -5.234 -10.987  -1.322  0.00  0.00    +0.037 C 
ATOM     14  C   UNL     1      -8.129 -12.155   0.930  0.00  0.00    +0.008 C 
BRANCH   6  15
ATOM     15  C   UNL     1      -2.955  -9.054  -2.064  0.00  0.00    +0.244 C 
ATOM     16  O   UNL     1      -1.948  -9.738  -2.063  0.00  0.00    -0.270 OA
ATOM     17  N   UNL     1      -3.360  -8.454  -3.201  0.00  0.00    -0.325 N 
ATOM     18  H   UNL     1      -4.162  -7.909  -3.203  0.00  0.00    +0.145 HD
ATOM     19  H   UNL     1      -2.848  -8.566  -4.018  0.00  0.00    +0.145 HD
ENDBRANCH   6  15
ENDBRANCH   3   5
BRANCH   1  20
ATOM     20  C   UNL     1      -1.324  -4.850   0.779  0.00  0.00    +0.201 C 
BRANCH  20  21
ATOM     21  N   UNL     1      -1.394  -3.964   1.943  0.00  0.00    -0.181 NA
ATOM     22  H   UNL     1      -2.167  -3.994   2.530  0.00  0.00    +0.149 HD
BRANCH  21  23
ATOM     23  S   UNL     1      -0.155  -2.911   2.259  0.00  0.00    +0.059 S 
ATOM     24  O   UNL     1       1.049  -3.658   2.151  0.00  0.00    -0.153 OA
ATOM     25  O   UNL     1      -0.512  -2.207   3.440  0.00  0.00    -0.153 OA
BRANCH  23  31
ATOM     26  C   UNL     1       2.191  -0.600  -1.800  0.00  0.00    +0.044 C 
ATOM     27  C   UNL     1       0.989  -0.703  -0.897  0.00  0.00    -0.049 A 
ATOM     28  C   UNL     1      -0.097   0.131  -1.093  0.00  0.00    +0.004 A 
ATOM     29  C   UNL     1      -1.199   0.036  -0.265  0.00  0.00    +0.005 A 
ATOM     30  C   UNL     1      -1.217  -0.893   0.759  0.00  0.00    -0.024 A 
ATOM     31  C   UNL     1      -0.133  -1.727   0.954  0.00  0.00    +0.108 A 
ATOM     32  C   UNL     1       0.968  -1.635   0.123  0.00  0.00    +0.032 A 
ATOM     33  C   UNL     1      -2.419  -0.996   1.662  0.00  0.00    +0.046 C 
ENDBRANCH  23  31
ENDBRANCH  21  23
ENDBRANCH  20  21
ENDBRANCH   1  20
TORSDOF 6
