REMARK  Name = ZINC33759834
REMARK  13 active torsions:
REMARK  status: ('A' for Active; 'I' for Inactive)
REMARK    1  A    between atoms: C_1  and  C_2
REMARK    2  A    between atoms: C_2  and  O_4
REMARK    3  A    between atoms: O_4  and  C_5
REMARK    4  A    between atoms: C_8  and  O_43
REMARK    5  A    between atoms: C_10  and  C_41
REMARK    6  A    between atoms: C_17  and  O_19
REMARK    7  A    between atoms: C_20  and  O_40
REMARK    8  A    between atoms: C_23  and  C_34
REMARK    9  A    between atoms: C_25  and  C_33
REMARK   10  A    between atoms: C_27  and  O_29
REMARK   11  A    between atoms: O_29  and  C_30
REMARK   12  A    between atoms: C_30  and  C_32
REMARK   13  A    between atoms: C_41  and  O_42
REMARK                            x       y       z     vdW  Elec       q    Type
REMARK                         _______ _______ _______ _____ _____    ______ ____
ROOT
ATOM      1  C   UNL     1      -7.449  -1.915  -1.462  0.00  0.00    +0.182 C 
ATOM      2  C   UNL     1      -7.267  -1.374  -0.047  0.00  0.00    +0.076 C 
ATOM      3  C   UNL     1      -6.112  -2.075   0.660  0.00  0.00    +0.129 C 
ATOM      4  C   UNL     1      -4.816  -1.915  -0.137  0.00  0.00    +0.055 C 
ATOM      5  C   UNL     1      -4.448  -0.433  -0.209  0.00  0.00    +0.049 C 
ATOM      6  C   UNL     1      -3.161  -0.226  -0.991  0.00  0.00    +0.029 C 
ATOM      7  C   UNL     1      -3.335  -0.797  -2.406  0.00  0.00    +0.009 C 
ATOM      8  C   UNL     1      -3.712  -2.272  -2.356  0.00  0.00    +0.036 C 
ATOM      9  C   UNL     1      -5.000  -2.471  -1.552  0.00  0.00    +0.080 C 
ATOM     10  C   UNL     1      -6.154  -1.767  -2.258  0.00  0.00    +0.080 C 
ATOM     11  C   UNL     1      -2.854   1.268  -1.143  0.00  0.00    +0.075 C 
ATOM     12  C   UNL     1      -1.395   1.375  -1.671  0.00  0.00    +0.036 C 
ATOM     13  C   UNL     1      -0.536   1.180  -0.404  0.00  0.00    +0.011 C 
ATOM     14  C   UNL     1      -1.370   1.764   0.758  0.00  0.00    +0.027 C 
ATOM     15  C   UNL     1      -2.782   1.975   0.218  0.00  0.00    +0.007 C 
ATOM     16  C   UNL     1      -3.915   1.646   1.144  0.00  0.00    +0.055 C 
ATOM     17  C   UNL     1      -4.420   0.217   1.159  0.00  0.00    +0.181 C 
ATOM     18  C   UNL     1      -2.905   3.495  -0.079  0.00  0.00    +0.015 C 
ENDROOT
BRANCH  14  19
ATOM     19  C   UNL     1      -1.297   0.854   1.956  0.00  0.00    -0.022 C 
ATOM     20  C   UNL     1      -0.933  -0.426   1.957  0.00  0.00    +0.094 C 
ATOM     21  C   UNL     1      -0.993  -0.951   3.324  0.00  0.00    +0.332 C 
ATOM     22  O   UNL     1      -0.714  -2.089   3.647  0.00  0.00    -0.246 OA
ATOM     23  O   UNL     1      -1.407   0.012   4.168  0.00  0.00    -0.457 OA
ATOM     24  C   UNL     1      -1.631   1.218   3.384  0.00  0.00    +0.264 C 
ENDBRANCH  14  19
BRANCH   9  25
ATOM     25  O   UNL     1      -5.266  -3.877  -1.478  0.00  0.00    -0.388 OA
ATOM     26  H   UNL     1      -5.427  -4.455  -2.400  0.00  0.00    +0.210 HD
ENDBRANCH   9  25
BRANCH  11  27
ATOM     27  O   UNL     1      -3.788   1.911  -2.022  0.00  0.00    -0.388 OA
ATOM     28  H   UNL     1      -3.695   2.988  -2.230  0.00  0.00    +0.210 HD
ENDBRANCH  11  27
BRANCH   3  29
ATOM     29  O   UNL     1      -6.408  -3.458   0.849  0.00  0.00    -0.391 OA
ATOM     30  H   UNL     1      -5.679  -4.114   1.346  0.00  0.00    +0.210 HD
ENDBRANCH   3  29
BRANCH   1  31
ATOM     31  O   UNL     1      -7.865  -3.303  -1.424  0.00  0.00    -0.461 OA
BRANCH  31  33
ATOM     32  C   UNL     1      -9.691  -4.960  -1.299  0.00  0.00    +0.136 C 
ATOM     33  C   UNL     1      -9.183  -3.542  -1.343  0.00  0.00    +0.304 C 
ATOM     34  O   UNL     1      -9.963  -2.620  -1.305  0.00  0.00    -0.251 OA
ENDBRANCH  31  33
ENDBRANCH   1  31
BRANCH  17  35
ATOM     35  O   UNL     1      -3.724  -0.559   2.162  0.00  0.00    -0.461 OA
BRANCH  35  36
ATOM     36  C   UNL     1      -4.272  -0.604   3.386  0.00  0.00    +0.304 C 
ATOM     37  O   UNL     1      -5.242   0.070   3.639  0.00  0.00    -0.251 OA
ATOM     38  C   UNL     1      -3.678  -1.496   4.446  0.00  0.00    +0.136 C 
ENDBRANCH  35  36
ENDBRANCH  17  35
BRANCH   4  39
ATOM     39  C   UNL     1      -3.718  -2.738   0.547  0.00  0.00    +0.168 C 
BRANCH  39  40
ATOM     40  O   UNL     1      -4.113  -4.110   0.599  0.00  0.00    -0.394 OA
ATOM     41  H   UNL     1      -3.449  -4.857   1.057  0.00  0.00    +0.209 HD
ENDBRANCH  39  40
ENDBRANCH   4  39
TORSDOF 10
