REMARK  Name = ZINC63488660
REMARK  6 active torsions:
REMARK  status: ('A' for Active; 'I' for Inactive)
REMARK    1  A    between atoms: C_1  and  C_2
REMARK    2  A    between atoms: C_2  and  C_3
REMARK    3  A    between atoms: C_2  and  N_15
REMARK    4  A    between atoms: C_7  and  C_9
REMARK    5  A    between atoms: C_16  and  C_18
REMARK    6  A    between atoms: C_19  and  C_20
REMARK                            x       y       z     vdW  Elec       q    Type
REMARK                         _______ _______ _______ _____ _____    ______ ____
ROOT
ATOM      1  N   UNL     1       0.688  -0.476  -1.203  0.00  0.00    -0.302 N 
ATOM      2  C   UNL     1       2.031  -0.587  -1.215  0.00  0.00    +0.237 C 
ATOM      3  O   UNL     1       2.674  -0.294  -0.224  0.00  0.00    -0.271 OA
ATOM      4  H   UNL     1       0.175  -0.710  -1.993  0.00  0.00    +0.150 HD
ENDROOT
BRANCH   1   6
ATOM      5  C   UNL     1      -0.019   1.526   0.010  0.00  0.00    +0.036 C 
ATOM      6  C   UNL     1       0.002  -0.004   0.002  0.00  0.00    +0.134 C 
BRANCH   6   7
ATOM      7  C   UNL     1      -1.412  -0.526   0.013  0.00  0.00    +0.105 A 
ATOM      8  N   UNL     1      -2.156  -0.797  -1.082  0.00  0.00    -0.348 N 
ATOM      9  H   UNL     1      -1.879  -0.692  -2.005  0.00  0.00    +0.167 HD
ATOM     10  C   UNL     1      -3.372  -1.247  -0.648  0.00  0.00    +0.110 A 
ATOM     11  C   UNL     1      -3.331  -1.236   0.710  0.00  0.00    +0.064 A 
ATOM     12  N   UNL     1      -2.112  -0.793   1.079  0.00  0.00    -0.342 N 
ATOM     13  H   UNL     1      -1.805  -0.689   1.994  0.00  0.00    +0.167 HD
BRANCH  11  14
ATOM     14  C   UNL     1      -4.428  -1.643   1.622  0.00  0.00    -0.000 A 
ATOM     15  C   UNL     1      -4.251  -1.576   3.002  0.00  0.00    +0.010 A 
ATOM     16  C   UNL     1      -5.274  -1.956   3.846  0.00  0.00    +0.001 A 
ATOM     17  C   UNL     1      -6.474  -2.405   3.324  0.00  0.00    +0.000 A 
ATOM     18  C   UNL     1      -6.655  -2.474   1.954  0.00  0.00    +0.001 A 
ATOM     19  C   UNL     1      -5.641  -2.090   1.101  0.00  0.00    +0.010 A 
ENDBRANCH  11  14
ENDBRANCH   6   7
ENDBRANCH   1   6
BRANCH   2  20
ATOM     20  C   UNL     1       2.716  -1.059  -2.418  0.00  0.00    +0.068 C 
ATOM     21  C   UNL     1       4.062  -1.169  -2.430  0.00  0.00    +0.015 C 
BRANCH  21  22
ATOM     22  C   UNL     1       4.749  -1.643  -3.637  0.00  0.00    +0.001 A 
ATOM     23  C   UNL     1       4.028  -1.976  -4.780  0.00  0.00    +0.010 A 
ATOM     24  C   UNL     1       4.678  -2.422  -5.921  0.00  0.00    +0.001 A 
ATOM     25  C   UNL     1       6.033  -2.552  -5.969  0.00  0.00    +0.010 A 
ATOM     26  C   UNL     1       6.823  -2.234  -4.853  0.00  0.00    +0.001 A 
ATOM     27  C   UNL     1       6.207  -1.768  -3.666  0.00  0.00    +0.078 A 
ATOM     28  N   UNL     1       6.949  -1.460  -2.604  0.00  0.00    -0.254 NA
ATOM     29  C   UNL     1       8.257  -1.573  -2.631  0.00  0.00    +0.111 A 
ATOM     30  C   UNL     1       8.929  -2.019  -3.765  0.00  0.00    +0.020 A 
ATOM     31  C   UNL     1       8.225  -2.363  -4.885  0.00  0.00    +0.011 A 
ENDBRANCH  21  22
ENDBRANCH   2  20
TORSDOF 5
