REMARK  Name = ZINC56195160
REMARK  10 active torsions:
REMARK  status: ('A' for Active; 'I' for Inactive)
REMARK    1  A    between atoms: C_1  and  C_2
REMARK    2  A    between atoms: C_2  and  N_3
REMARK    3  A    between atoms: C_7  and  C_9
REMARK    4  A    between atoms: C_9  and  C_11
REMARK    5  A    between atoms: C_9  and  N_12
REMARK    6  A    between atoms: N_12  and  C_13
REMARK    7  A    between atoms: C_17  and  C_19
REMARK    8  A    between atoms: C_19  and  O_20
REMARK    9  A    between atoms: O_20  and  C_21
REMARK   10  A    between atoms: C_21  and  C_22
REMARK                            x       y       z     vdW  Elec       q    Type
REMARK                         _______ _______ _______ _____ _____    ______ ____
ROOT
ATOM      1  C   UNL     1       3.404  -6.237   4.584  0.00  0.00    +0.028 A 
ATOM      2  C   UNL     1       4.384  -5.535   5.274  0.00  0.00    +0.023 A 
ATOM      3  C   UNL     1       5.378  -6.218   5.946  0.00  0.00    +0.002 A 
ATOM      4  C   UNL     1       5.399  -7.601   5.932  0.00  0.00    +0.006 A 
ATOM      5  C   UNL     1       4.425  -8.304   5.247  0.00  0.00    -0.020 A 
ATOM      6  C   UNL     1       3.425  -7.626   4.577  0.00  0.00    +0.028 A 
ENDROOT
BRANCH   1   7
ATOM      7  N   UNL     1       2.397  -5.549   3.903  0.00  0.00    -0.333 N 
ATOM      8  H   UNL     1       1.711  -6.040   3.425  0.00  0.00    +0.147 HD
BRANCH   7   9
ATOM      9  C   UNL     1       2.378  -4.084   3.911  0.00  0.00    +0.154 C 
ATOM     10  C   UNL     1       1.661  -3.590   5.170  0.00  0.00    +0.038 C 
BRANCH   9  15
ATOM     11  N   UNL     1       0.711  -0.489   1.189  0.00  0.00    -0.299 N 
ATOM     12  C   UNL     1       0.854  -1.814   1.394  0.00  0.00    +0.306 C 
ATOM     13  O   UNL     1       0.395  -2.606   0.594  0.00  0.00    -0.252 OA
ATOM     14  N   UNL     1       1.506  -2.260   2.486  0.00  0.00    -0.239 N 
ATOM     15  C   UNL     1       1.649  -3.585   2.690  0.00  0.00    +0.240 C 
ATOM     16  O   UNL     1       1.191  -4.374   1.893  0.00  0.00    -0.273 OA
ATOM     17  H   UNL     1       1.077   0.142   1.827  0.00  0.00    +0.150 HD
ATOM     18  H   UNL     1       1.872  -1.628   3.124  0.00  0.00    +0.159 HD
BRANCH  11  20
ATOM     19  C   UNL     1      -0.019   1.526   0.010  0.00  0.00    +0.024 C 
ATOM     20  C   UNL     1       0.002  -0.004   0.002  0.00  0.00    +0.102 C 
ENDBRANCH  11  20
ENDBRANCH   9  15
ENDBRANCH   7   9
ENDBRANCH   1   7
BRANCH   5  21
ATOM     21  C   UNL     1       4.452  -9.810   5.234  0.00  0.00    +0.195 C 
BRANCH  21  22
ATOM     22  O   UNL     1       3.696 -10.310   6.339  0.00  0.00    -0.373 OA
BRANCH  22  23
ATOM     23  C   UNL     1       3.657 -11.736   6.420  0.00  0.00    +0.191 C 
BRANCH  23  24
ATOM     24  C   UNL     1       2.825 -12.155   7.633  0.00  0.00    +0.144 C 
ATOM     25  C   UNL     1       2.680 -13.679   7.650  0.00  0.00    +0.034 C 
ATOM     26  C   UNL     1       1.898 -14.096   8.900  0.00  0.00    +0.005 C 
ATOM     27  C   UNL     1       2.621 -13.567  10.142  0.00  0.00    +0.028 C 
ATOM     28  C   UNL     1       2.769 -12.047  10.028  0.00  0.00    +0.160 C 
ATOM     29  O   UNL     1       3.478 -11.727   8.830  0.00  0.00    -0.374 OA
ENDBRANCH  23  24
ENDBRANCH  22  23
ENDBRANCH  21  22
ENDBRANCH   5  21
TORSDOF 8
