REMARK  Name = ZINC00619223
REMARK  8 active torsions:
REMARK  status: ('A' for Active; 'I' for Inactive)
REMARK    1  A    between atoms: C_1  and  C_2
REMARK    2  A    between atoms: C_5  and  O_24
REMARK    3  A    between atoms: C_6  and  N_8
REMARK    4  A    between atoms: C_9  and  C_11
REMARK    5  A    between atoms: C_11  and  N_12
REMARK    6  A    between atoms: C_13  and  C_23
REMARK    7  A    between atoms: C_14  and  C_21
REMARK    8  A    between atoms: O_24  and  C_25
REMARK                            x       y       z     vdW  Elec       q    Type
REMARK                         _______ _______ _______ _____ _____    ______ ____
ROOT
ATOM      1  N   UNL     1      -5.457   3.288   1.738  0.00  0.00    -0.281 N 
ATOM      2  C   UNL     1      -4.172   3.602   1.482  0.00  0.00    +0.237 C 
ATOM      3  O   UNL     1      -3.396   3.777   2.397  0.00  0.00    -0.274 OA
ATOM      4  H   UNL     1      -6.093   3.212   1.009  0.00  0.00    +0.155 HD
ENDROOT
BRANCH   1  10
ATOM      5  C   UNL     1      -5.121   4.385   6.519  0.00  0.00    +0.044 C 
ATOM      6  C   UNL     1      -5.730   3.588   5.395  0.00  0.00    -0.048 A 
ATOM      7  C   UNL     1      -6.702   2.643   5.667  0.00  0.00    +0.007 A 
ATOM      8  C   UNL     1      -7.265   1.909   4.639  0.00  0.00    +0.048 A 
ATOM      9  C   UNL     1      -6.859   2.123   3.332  0.00  0.00    +0.141 A 
ATOM     10  C   UNL     1      -5.876   3.071   3.058  0.00  0.00    +0.076 A 
ATOM     11  C   UNL     1      -5.316   3.803   4.094  0.00  0.00    +0.030 A 
BRANCH   9  12
ATOM     12  O   UNL     1      -7.415   1.406   2.319  0.00  0.00    -0.493 OA
ATOM     13  C   UNL     1      -8.417   0.451   2.674  0.00  0.00    +0.277 C 
ENDBRANCH   9  12
ENDBRANCH   1  10
BRANCH   2  14
ATOM     14  C   UNL     1      -3.699   3.737   0.057  0.00  0.00    +0.218 C 
BRANCH  14  15
ATOM     15  N   UNL     1      -2.275   4.082   0.046  0.00  0.00    -0.335 N 
ATOM     16  C   UNL     1      -1.792   5.339   0.055  0.00  0.00    +0.027 A 
ATOM     17  C   UNL     1      -0.413   5.304   0.040  0.00  0.00    +0.042 A 
ATOM     18  C   UNL     1      -0.037   3.877   0.019  0.00  0.00    +0.010 A 
ATOM     19  C   UNL     1      -1.246   3.163   0.024  0.00  0.00    +0.050 A 
ATOM     20  C   UNL     1      -1.215   1.772   0.001  0.00  0.00    +0.026 A 
ATOM     21  C   UNL     1      -0.005   1.111  -0.014  0.00  0.00    +0.002 A 
ATOM     22  C   UNL     1       1.187   1.819  -0.018  0.00  0.00    +0.001 A 
ATOM     23  C   UNL     1       1.177   3.198  -0.002  0.00  0.00    +0.011 A 
ATOM     24  C   UNL     1      -2.629   6.591   0.080  0.00  0.00    +0.064 C 
BRANCH  17  25
ATOM     25  C   UNL     1       0.466   6.416   0.044  0.00  0.00    +0.261 C 
ATOM     26  O   UNL     1       0.017   7.544   0.063  0.00  0.00    -0.296 OA
ENDBRANCH  17  25
ENDBRANCH  14  15
ENDBRANCH   2  14
TORSDOF 5
