REMARK  Name = ZINC03528253
REMARK  6 active torsions:
REMARK  status: ('A' for Active; 'I' for Inactive)
REMARK    1  A    between atoms: C_1  and  C_2
REMARK    2  A    between atoms: C_2  and  C_3
REMARK    3  A    between atoms: C_3  and  C_20
REMARK    4  A    between atoms: N_6  and  N_10
REMARK    5  A    between atoms: C_11  and  C_12
REMARK    6  A    between atoms: C_15  and  C_18
REMARK                            x       y       z     vdW  Elec       q    Type
REMARK                         _______ _______ _______ _____ _____    ______ ____
ROOT
ATOM      1  C   UNL     1       6.389   5.841  -0.272  0.00  0.00    +0.111 C 
ATOM      2  C   UNL     1       4.914   5.523  -0.131  0.00  0.00    +0.266 C 
ATOM      3  O   UNL     1       4.000   6.314  -0.038  0.00  0.00    -0.271 OA
ATOM      4  N   UNL     1       4.830   4.178  -0.129  0.00  0.00    -0.109 N 
ATOM      5  C   UNL     1       6.035   3.608  -0.243  0.00  0.00    +0.330 C 
ATOM      6  O   UNL     1       6.215   2.406  -0.260  0.00  0.00    -0.250 OA
ATOM      7  N   UNL     1       7.025   4.514  -0.340  0.00  0.00    -0.284 N 
ATOM      8  C   UNL     1       6.891   6.621   0.945  0.00  0.00    +0.041 C 
ATOM      9  H   UNL     1       7.973   4.329  -0.432  0.00  0.00    +0.151 HD
ENDROOT
BRANCH   1  11
ATOM     10  C   UNL     1       8.156   6.827  -1.739  0.00  0.00    +0.006 C 
ATOM     11  C   UNL     1       6.649   6.628  -1.558  0.00  0.00    +0.032 C 
ENDBRANCH   1  11
BRANCH   4  12
ATOM     12  N   UNL     1       3.630   3.465  -0.015  0.00  0.00    -0.176 NA
ATOM     13  C   UNL     1       2.497   4.098  -0.009  0.00  0.00    +0.139 C 
BRANCH  13  14
ATOM     14  C   UNL     1       1.231   3.343  -0.001  0.00  0.00    -0.005 A 
ATOM     15  C   UNL     1       1.251   1.945  -0.001  0.00  0.00    +0.011 A 
ATOM     16  C   UNL     1       0.073   1.243   0.007  0.00  0.00    +0.019 A 
ATOM     17  C   UNL     1      -1.147   1.925   0.013  0.00  0.00    +0.052 A 
ATOM     18  C   UNL     1      -1.167   3.323   0.013  0.00  0.00    +0.019 A 
ATOM     19  C   UNL     1       0.010   4.025   0.005  0.00  0.00    +0.011 A 
BRANCH  17  20
ATOM     20  C   UNL     1      -2.377   1.191   0.020  0.00  0.00    +0.099 C 
ATOM     21  N   UNL     1      -3.353   0.609   0.026  0.00  0.00    -0.191 NA
ENDBRANCH  17  20
ENDBRANCH  13  14
ENDBRANCH   4  12
TORSDOF 4
