REMARK  Name = ZINC18265313
REMARK  5 active torsions:
REMARK  status: ('A' for Active; 'I' for Inactive)
REMARK    1  A    between atoms: C_1  and  C_2
REMARK    2  A    between atoms: C_4  and  C_14
REMARK    3  A    between atoms: C_5  and  C_13
REMARK    4  A    between atoms: N_6  and  C_7
REMARK    5  A    between atoms: N_20  and  C_21
REMARK                            x       y       z     vdW  Elec       q    Type
REMARK                         _______ _______ _______ _____ _____    ______ ____
ROOT
ATOM      1  C   UNL     1       0.042  -3.377  -1.464  0.00  0.00    +0.030 C 
ATOM      2  C   UNL     1       0.035  -3.270  -2.819  0.00  0.00    +0.078 C 
ATOM      3  C   UNL     1       0.040  -4.330  -3.840  0.00  0.00    +0.256 C 
ATOM      4  O   UNL     1       0.050  -5.509  -3.533  0.00  0.00    -0.269 OA
ATOM      5  N   UNL     1       0.031  -3.947  -5.105  0.00  0.00    -0.260 N 
ATOM      6  C   UNL     1       0.019  -2.608  -5.433  0.00  0.00    +0.166 C 
ATOM      7  N   UNL     1       0.010  -2.059  -6.627  0.00  0.00    -0.226 NA
ATOM      8  S   UNL     1       0.011  -1.803  -3.839  0.00  0.00    -0.049 S 
ATOM      9  H   UNL     1       0.034  -4.614  -5.809  0.00  0.00    +0.157 HD
ENDROOT
BRANCH   1  13
ATOM     10  C   UNL     1      -0.018   1.503   0.010  0.00  0.00    +0.064 C 
ATOM     11  C   UNL     1       0.002  -0.004   0.002  0.00  0.00    +0.022 A 
ATOM     12  C   UNL     1       0.008  -0.777  -1.097  0.00  0.00    +0.031 A 
ATOM     13  C   UNL     1       0.029  -2.169  -0.632  0.00  0.00    -0.003 A 
ATOM     14  C   UNL     1       0.034  -2.111   0.747  0.00  0.00    +0.028 A 
ATOM     15  N   UNL     1       0.024  -0.802   1.112  0.00  0.00    -0.317 N 
ATOM     16  C   UNL     1       0.054  -3.291   1.683  0.00  0.00    +0.064 C 
BRANCH  15  17
ATOM     17  C   UNL     1       0.030  -0.339   2.431  0.00  0.00    +0.049 A 
ATOM     18  C   UNL     1       1.127  -0.559   3.261  0.00  0.00    +0.046 A 
ATOM     19  C   UNL     1       1.095  -0.085   4.556  0.00  0.00    +0.113 A 
ATOM     20  N   UNL     1       0.042   0.568   5.011  0.00  0.00    -0.263 NA
ATOM     21  C   UNL     1      -1.016   0.796   4.257  0.00  0.00    +0.113 A 
ATOM     22  C   UNL     1      -1.060   0.360   2.948  0.00  0.00    +0.046 A 
ENDBRANCH  15  17
ENDBRANCH   1  13
BRANCH   7  23
ATOM     23  C   UNL     1      -0.001  -0.696  -6.753  0.00  0.00    +0.067 A 
ATOM     24  C   UNL     1      -0.854   0.075  -5.959  0.00  0.00    +0.030 A 
ATOM     25  C   UNL     1      -0.860   1.448  -6.090  0.00  0.00    +0.040 A 
ATOM     26  C   UNL     1      -0.023   2.063  -7.007  0.00  0.00    +0.124 A 
ATOM     27  C   UNL     1       0.825   1.304  -7.797  0.00  0.00    +0.040 A 
ATOM     28  C   UNL     1       0.844  -0.070  -7.671  0.00  0.00    +0.030 A 
ATOM     29  F   UNL     1      -0.034   3.408  -7.132  0.00  0.00    -0.205 F 
ENDBRANCH   7  23
TORSDOF 3
