REMARK  Name = ZINC61637820
REMARK  6 active torsions:
REMARK  status: ('A' for Active; 'I' for Inactive)
REMARK    1  A    between atoms: N_3  and  C_25
REMARK    2  A    between atoms: C_8  and  C_10
REMARK    3  A    between atoms: C_10  and  C_11
REMARK    4  A    between atoms: C_11  and  C_12
REMARK    5  A    between atoms: C_12  and  C_13
REMARK    6  A    between atoms: N_19  and  C_22
REMARK                            x       y       z     vdW  Elec       q    Type
REMARK                         _______ _______ _______ _____ _____    ______ ____
ROOT
ATOM      1  C   UNL     1       2.510  -3.365   1.063  0.00  0.00    +0.018 C 
ENDROOT
BRANCH   1   2
ATOM      2  C   UNL     1       1.540  -2.200   0.853  0.00  0.00    +0.096 C 
BRANCH   2  10
ATOM      3  C   UNL     1      -0.019   1.535   0.011  0.00  0.00    +0.000 C 
ATOM      4  C   UNL     1       1.401   2.058  -0.000  0.00  0.00    -0.077 C 
ATOM      5  N   UNL     1       1.811   2.310  -1.380  0.00  0.00    +0.383 N 
ATOM      6  C   UNL     1       2.377   1.200  -2.045  0.00  0.00    -0.059 C 
ATOM      7  C   UNL     1       1.329   0.072  -2.189  0.00  0.00    +0.089 C 
ATOM      8  N   UNL     1       1.059  -0.516  -0.893  0.00  0.00    -0.303 N 
ATOM      9  C   UNL     1       0.002  -0.004   0.002  0.00  0.00    +0.106 C 
ATOM     10  C   UNL     1       1.799  -1.568  -0.490  0.00  0.00    +0.216 C 
ATOM     11  O   UNL     1       2.672  -2.006  -1.209  0.00  0.00    -0.276 OA
ATOM     12  H   UNL     1       1.003   2.616  -1.901  0.00  0.00    -0.081 HD
BRANCH   5  13
ATOM     13  C   UNL     1       2.795   3.401  -1.378  0.00  0.00    -0.069 C 
ATOM     14  C   UNL     1       2.371   4.736  -1.994  0.00  0.00    -0.017 C 
ATOM     15  C   UNL     1       3.368   3.837  -2.728  0.00  0.00    -0.017 C 
ENDBRANCH   5  13
ENDBRANCH   2  10
ENDBRANCH   1   2
BRANCH   1  16
ATOM     16  C   UNL     1       2.247  -4.007   2.427  0.00  0.00    +0.096 C 
BRANCH  16  17
ATOM     17  C   UNL     1       3.202  -5.155   2.634  0.00  0.00    +0.216 C 
ATOM     18  O   UNL     1       4.013  -5.432   1.775  0.00  0.00    -0.276 OA
ATOM     19  N   UNL     1       3.155  -5.873   3.773  0.00  0.00    -0.303 N 
ATOM     20  C   UNL     1       2.154  -5.517   4.799  0.00  0.00    +0.106 C 
ATOM     21  C   UNL     1       1.515  -6.777   5.410  0.00  0.00    +0.000 C 
ATOM     22  C   UNL     1       1.276  -7.799   4.320  0.00  0.00    -0.077 C 
ATOM     23  N   UNL     1       2.420  -8.705   4.250  0.00  0.00    +0.383 N 
ATOM     24  C   UNL     1       3.469  -8.276   3.407  0.00  0.00    -0.059 C 
ATOM     25  C   UNL     1       4.085  -6.970   3.946  0.00  0.00    +0.089 C 
ATOM     26  H   UNL     1       2.788  -8.825   5.181  0.00  0.00    -0.081 HD
BRANCH  23  27
ATOM     27  C   UNL     1       1.947 -10.012   3.773  0.00  0.00    -0.069 C 
ATOM     28  C   UNL     1       1.969 -11.176   4.766  0.00  0.00    -0.017 C 
ATOM     29  C   UNL     1       2.984 -11.126   3.622  0.00  0.00    -0.017 C 
ENDBRANCH  23  27
ENDBRANCH  16  17
ENDBRANCH   1  16
TORSDOF 6
