REMARK  Name = ZINC23154193
REMARK  6 active torsions:
REMARK  status: ('A' for Active; 'I' for Inactive)
REMARK    1  A    between atoms: C_3  and  N_32
REMARK    2  A    between atoms: C_4  and  N_29
REMARK    3  A    between atoms: C_6  and  C_7
REMARK    4  A    between atoms: N_12  and  S_15
REMARK    5  A    between atoms: S_15  and  C_18
REMARK    6  A    between atoms: C_22  and  C_24
REMARK                            x       y       z     vdW  Elec       q    Type
REMARK                         _______ _______ _______ _____ _____    ______ ____
ROOT
ATOM      1  C   UNL     1      -0.080   5.415   1.193  0.00  0.00    +0.247 C 
ATOM      2  O   UNL     1       0.945   5.999   1.486  0.00  0.00    -0.270 OA
ATOM      3  N   UNL     1      -0.053   4.091   0.942  0.00  0.00    -0.295 N 
ATOM      4  C   UNL     1       1.221   3.358   0.927  0.00  0.00    +0.125 C 
ATOM      5  C   UNL     1       1.355   2.637  -0.420  0.00  0.00    +0.128 C 
ATOM      6  N   UNL     1       0.111   1.900  -0.684  0.00  0.00    -0.174 NA
ATOM      7  C   UNL     1      -1.162   2.633  -0.674  0.00  0.00    +0.128 C 
ATOM      8  C   UNL     1      -1.297   3.354   0.678  0.00  0.00    +0.125 C 
ENDROOT
BRANCH   1  14
ATOM      9  C   UNL     1      -1.411   7.379   0.441  0.00  0.00    +0.015 A 
ATOM     10  C   UNL     1      -2.602   8.065   0.365  0.00  0.00    +0.026 A 
ATOM     11  C   UNL     1      -3.746   7.545   0.964  0.00  0.00    +0.055 A 
ATOM     12  C   UNL     1      -3.691   6.329   1.639  0.00  0.00    +0.147 A 
ATOM     13  C   UNL     1      -2.504   5.636   1.715  0.00  0.00    +0.047 A 
ATOM     14  C   UNL     1      -1.354   6.155   1.113  0.00  0.00    +0.039 A 
BRANCH  12  15
ATOM     15  N   UNL     1      -4.909   5.780   2.275  0.00  0.00    +0.058 N 
ATOM     16  O   UNL     1      -4.839   4.774   2.959  0.00  0.00    -0.126 OA
ATOM     17  O   UNL     1      -5.982   6.334   2.115  0.00  0.00    -0.126 OA
ENDBRANCH  12  15
BRANCH  11  18
ATOM     18  N   UNL     1      -4.947   8.243   0.889  0.00  0.00    -0.356 N 
ATOM     19  H   UNL     1      -5.851   7.834   1.363  0.00  0.00    +0.142 HD
ATOM     20  H   UNL     1      -4.992   9.204   0.357  0.00  0.00    +0.142 HD
ENDBRANCH  11  18
ENDBRANCH   1  14
BRANCH   6  21
ATOM     21  S   UNL     1       0.145   0.273  -0.993  0.00  0.00    +0.061 S 
ATOM     22  O   UNL     1      -1.034  -0.024  -1.730  0.00  0.00    -0.153 OA
ATOM     23  O   UNL     1       1.445  -0.020  -1.486  0.00  0.00    -0.153 OA
BRANCH  21  24
ATOM     24  C   UNL     1      -0.006  -0.555   0.555  0.00  0.00    +0.106 A 
ATOM     25  C   UNL     1       1.126  -0.883   1.276  0.00  0.00    +0.030 A 
ATOM     26  C   UNL     1       1.008  -1.527   2.493  0.00  0.00    +0.022 A 
ATOM     27  C   UNL     1      -0.243  -1.855   2.984  0.00  0.00    +0.053 A 
ATOM     28  C   UNL     1      -1.376  -1.531   2.259  0.00  0.00    +0.075 A 
ATOM     29  C   UNL     1      -1.257  -0.882   1.044  0.00  0.00    +0.042 A 
ATOM     30 CL   UNL     1      -0.392  -2.670   4.509  0.00  0.00    -0.083 Cl
BRANCH  28  31
ATOM     31  C   UNL     1      -2.740  -1.887   2.792  0.00  0.00    +0.419 C 
ATOM     32  F   UNL     1      -3.720  -1.461   1.889  0.00  0.00    -0.166 F 
ATOM     33  F   UNL     1      -2.829  -3.274   2.958  0.00  0.00    -0.166 F 
ATOM     34  F   UNL     1      -2.937  -1.257   4.026  0.00  0.00    -0.166 F 
ENDBRANCH  28  31
ENDBRANCH  21  24
ENDBRANCH   6  21
TORSDOF 6
