REMARK  Name = ZINC35813595
REMARK  7 active torsions:
REMARK  status: ('A' for Active; 'I' for Inactive)
REMARK    1  A    between atoms: C_1  and  C_2
REMARK    2  A    between atoms: C_2  and  C_3
REMARK    3  A    between atoms: C_2  and  N_4
REMARK    4  A    between atoms: C_9  and  C_21
REMARK    5  A    between atoms: C_13  and  C_15
REMARK    6  A    between atoms: N_23  and  C_24
REMARK    7  A    between atoms: C_24  and  C_25
REMARK                            x       y       z     vdW  Elec       q    Type
REMARK                         _______ _______ _______ _____ _____    ______ ____
ROOT
ATOM      1  N   UNL     1       0.989  -2.241  -0.523  0.00  0.00    -0.297 N 
ATOM      2  C   UNL     1       2.220  -1.747  -0.763  0.00  0.00    +0.303 C 
ATOM      3  O   UNL     1       2.873  -1.274   0.146  0.00  0.00    -0.253 OA
ATOM      4  N   UNL     1       2.726  -1.778  -2.012  0.00  0.00    -0.278 N 
ATOM      5  C   UNL     1       1.907  -2.240  -3.141  0.00  0.00    +0.122 C 
ATOM      6  C   UNL     1       1.920  -1.165  -4.232  0.00  0.00    +0.092 C 
ATOM      7  C   UNL     1       3.369  -0.835  -4.600  0.00  0.00    +0.016 C 
ATOM      8  C   UNL     1       4.096  -0.285  -3.371  0.00  0.00    +0.028 C 
ATOM      9  C   UNL     1       4.106  -1.344  -2.271  0.00  0.00    +0.108 C 
ATOM     10  H   UNL     1       0.439  -2.552  -1.259  0.00  0.00    +0.150 HD
ENDROOT
BRANCH   9  11
ATOM     11  C   UNL     1       4.696  -0.758  -1.014  0.00  0.00    -0.027 A 
ATOM     12  C   UNL     1       4.168   0.402  -0.478  0.00  0.00    +0.005 A 
ATOM     13  C   UNL     1       4.710   0.939   0.675  0.00  0.00    +0.000 A 
ATOM     14  C   UNL     1       5.778   0.316   1.292  0.00  0.00    +0.000 A 
ATOM     15  C   UNL     1       6.305  -0.845   0.757  0.00  0.00    +0.000 A 
ATOM     16  C   UNL     1       5.761  -1.385  -0.394  0.00  0.00    +0.005 A 
ENDBRANCH   9  11
BRANCH   6  17
ATOM     17  C   UNL     1       1.235   0.077  -3.723  0.00  0.00    +0.218 C 
ATOM     18  O   UNL     1       1.843   1.124  -3.663  0.00  0.00    -0.275 OA
ATOM     19  N   UNL     1      -0.055   0.024  -3.335  0.00  0.00    -0.312 N 
ATOM     20  H   UNL     1      -0.542  -0.814  -3.383  0.00  0.00    +0.149 HD
BRANCH  19  21
ATOM     21  C   UNL     1      -0.722   1.231  -2.841  0.00  0.00    +0.131 C 
BRANCH  21  22
ATOM     22  C   UNL     1      -2.147   0.904  -2.475  0.00  0.00    -0.016 C 
ATOM     23  C   UNL     1      -2.593   1.175  -1.274  0.00  0.00    +0.005 C 
ENDBRANCH  21  22
ENDBRANCH  19  21
ENDBRANCH   6  17
BRANCH   1  25
ATOM     24  C   UNL     1      -0.144  -0.964   1.229  0.00  0.00    +0.027 C 
ATOM     25  C   UNL     1       0.482  -2.308   0.850  0.00  0.00    +0.068 C 
ATOM     26  C   UNL     1      -0.576  -3.409   0.950  0.00  0.00    +0.027 C 
ENDBRANCH   1  25
TORSDOF 5
