REMARK  Name = ZINC55161949
REMARK  11 active torsions:
REMARK  status: ('A' for Active; 'I' for Inactive)
REMARK    1  A    between atoms: C_1  and  C_2
REMARK    2  A    between atoms: C_2  and  C_4
REMARK    3  A    between atoms: C_2  and  O_32
REMARK    4  A    between atoms: C_8  and  C_22
REMARK    5  A    between atoms: C_10  and  S_18
REMARK    6  A    between atoms: C_11  and  C_15
REMARK    7  A    between atoms: S_18  and  C_19
REMARK    8  A    between atoms: C_19  and  C_20
REMARK    9  A    between atoms: C_20  and  N_21
REMARK   10  A    between atoms: C_22  and  C_23
REMARK   11  A    between atoms: C_26  and  N_29
REMARK                            x       y       z     vdW  Elec       q    Type
REMARK                         _______ _______ _______ _____ _____    ______ ____
ROOT
ATOM      1  C   UNL     1       0.700  -0.475   1.334  0.00  0.00    +0.125 C 
ATOM      2  C   UNL     1       0.798  -2.001   1.333  0.00  0.00    +0.104 C 
ATOM      3  C   UNL     1      -0.042  -2.698   0.251  0.00  0.00    +0.053 C 
ATOM      4  C   UNL     1      -1.336  -3.054   0.946  0.00  0.00    +0.019 C 
ATOM      5  C   UNL     1      -1.291  -2.589   2.213  0.00  0.00    +0.135 C 
ATOM      6  N   UNL     1      -0.082  -1.908   2.509  0.00  0.00    -0.260 N 
ATOM      7  C   UNL     1      -0.111  -0.550   2.604  0.00  0.00    +0.228 C 
ATOM      8  O   UNL     1      -0.585   0.256   3.377  0.00  0.00    -0.275 OA
ENDROOT
BRANCH   5   9
ATOM      9  C   UNL     1      -2.332  -2.767   3.148  0.00  0.00    +0.401 C 
ATOM     10  O   UNL     1      -3.390  -3.513   2.833  0.00  0.00    -0.239 OA
ATOM     11  O   UNL     1      -2.256  -2.188   4.347  0.00  0.00    -0.239 OA
ENDBRANCH   5   9
BRANCH   1  13
ATOM     12  C   UNL     1      -0.142   1.607   0.239  0.00  0.00    +0.038 C 
ATOM     13  C   UNL     1      -0.088   0.081   0.145  0.00  0.00    +0.125 C 
BRANCH  13  14
ATOM     14  O   UNL     1       0.556  -0.299  -1.072  0.00  0.00    -0.391 OA
ATOM     15  H   UNL     1       1.464   0.024  -1.155  0.00  0.00    +0.210 HD
ENDBRANCH  13  14
ENDBRANCH   1  13
BRANCH   4  16
ATOM     16  S   UNL     1      -2.683  -3.930   0.222  0.00  0.00    -0.129 S 
BRANCH  16  17
ATOM     17  C   UNL     1      -3.296  -2.807  -1.065  0.00  0.00    +0.055 C 
BRANCH  17  18
ATOM     18  C   UNL     1      -4.559  -3.396  -1.695  0.00  0.00    -0.075 C 
BRANCH  18  19
ATOM     19  N   UNL     1      -5.055  -2.487  -2.737  0.00  0.00    +0.379 N 
ATOM     20  H   UNL     1      -5.270  -1.591  -2.327  0.00  0.00    -0.090 HD
ATOM     21  H   UNL     1      -4.348  -2.371  -3.447  0.00  0.00    -0.090 HD
ATOM     22  H   UNL     1      -5.888  -2.875  -3.153  0.00  0.00    -0.090 HD
ENDBRANCH  18  19
ENDBRANCH  17  18
ENDBRANCH  16  17
ENDBRANCH   4  16
BRANCH   3  23
ATOM     23  C   UNL     1       0.666  -3.961  -0.243  0.00  0.00    +0.045 C 
BRANCH  23  24
ATOM     24  C   UNL     1      -0.114  -4.559  -1.385  0.00  0.00    -0.047 A 
ATOM     25  C   UNL     1      -1.107  -5.487  -1.133  0.00  0.00    +0.006 A 
ATOM     26  C   UNL     1      -1.822  -6.036  -2.181  0.00  0.00    +0.033 A 
ATOM     27  C   UNL     1      -1.544  -5.657  -3.481  0.00  0.00    +0.126 A 
ATOM     28  C   UNL     1      -0.552  -4.728  -3.733  0.00  0.00    +0.033 A 
ATOM     29  C   UNL     1       0.160  -4.176  -2.685  0.00  0.00    +0.006 A 
BRANCH  27  30
ATOM     30  N   UNL     1      -2.309  -6.245  -4.603  0.00  0.00    +0.056 N 
ATOM     31  O   UNL     1      -3.177  -7.058  -4.383  0.00  0.00    -0.126 OA
ATOM     32  O   UNL     1      -2.067  -5.914  -5.740  0.00  0.00    -0.126 OA
ENDBRANCH  27  30
ENDBRANCH  23  24
ENDBRANCH   3  23
TORSDOF 10
