REMARK  Name = ZINC66929145
REMARK  8 active torsions:
REMARK  status: ('A' for Active; 'I' for Inactive)
REMARK    1  A    between atoms: C_10  and  C_11
REMARK    2  A    between atoms: C_10  and  O_27
REMARK    3  A    between atoms: C_11  and  N_12
REMARK    4  A    between atoms: C_13  and  C_15
REMARK    5  A    between atoms: C_15  and  C_16
REMARK    6  A    between atoms: C_16  and  N_17
REMARK    7  A    between atoms: N_17  and  C_18
REMARK    8  A    between atoms: C_23  and  N_24
REMARK                            x       y       z     vdW  Elec       q    Type
REMARK                         _______ _______ _______ _____ _____    ______ ____
ROOT
ATOM      1  N   UNL     1       4.768   1.465  -0.609  0.00  0.00    -0.312 N 
ATOM      2  C   UNL     1       5.416   2.341  -1.403  0.00  0.00    +0.215 C 
ATOM      3  O   UNL     1       5.889   1.969  -2.456  0.00  0.00    -0.276 OA
ATOM      4  H   UNL     1       4.390   1.762   0.233  0.00  0.00    +0.149 HD
ENDROOT
BRANCH   1   5
ATOM      5  C   UNL     1       4.636   0.065  -1.018  0.00  0.00    +0.143 C 
BRANCH   5  15
ATOM      6  C   UNL     1       3.718  -4.818  -1.112  0.00  0.00    +0.000 A 
ATOM      7  C   UNL     1       3.580  -3.819  -2.057  0.00  0.00    +0.000 A 
ATOM      8  C   UNL     1       3.617  -2.497  -1.667  0.00  0.00    +0.007 A 
ATOM      9  C   UNL     1       3.794  -2.160  -0.331  0.00  0.00    -0.011 A 
ATOM     10  C   UNL     1       3.937  -3.155   0.610  0.00  0.00    -0.041 A 
ATOM     11  C   UNL     1       3.895  -4.486   0.215  0.00  0.00    +0.004 A 
ATOM     12  C   UNL     1       4.149  -2.863   2.072  0.00  0.00    +0.035 C 
ATOM     13  C   UNL     1       3.745  -1.427   2.398  0.00  0.00    +0.008 C 
ATOM     14  C   UNL     1       4.444  -0.491   1.404  0.00  0.00    +0.041 C 
ATOM     15  C   UNL     1       3.818  -0.697   0.026  0.00  0.00    +0.107 C 
BRANCH  15  16
ATOM     16  O   UNL     1       2.481  -0.193   0.036  0.00  0.00    -0.382 OA
ATOM     17  H   UNL     1       2.024  -0.274  -0.812  0.00  0.00    +0.211 HD
ENDBRANCH  15  16
ENDBRANCH   5  15
ENDBRANCH   1   5
BRANCH   2  18
ATOM     18  C   UNL     1       5.552   3.781  -0.982  0.00  0.00    +0.114 C 
BRANCH  18  19
ATOM     19  C   UNL     1       6.323   4.555  -2.054  0.00  0.00    +0.111 C 
BRANCH  19  20
ATOM     20  N   UNL     1       6.455   5.955  -1.645  0.00  0.00    -0.342 N 
ATOM     21  H   UNL     1       6.077   6.253  -0.802  0.00  0.00    +0.146 HD
BRANCH  20  22
ATOM     22  C   UNL     1       7.126   6.863  -2.467  0.00  0.00    +0.058 A 
ATOM     23  C   UNL     1       7.682   6.436  -3.667  0.00  0.00    +0.025 A 
ATOM     24  C   UNL     1       8.344   7.336  -4.479  0.00  0.00    +0.002 A 
ATOM     25  C   UNL     1       8.455   8.661  -4.098  0.00  0.00    +0.002 A 
ATOM     26  C   UNL     1       7.904   9.089  -2.904  0.00  0.00    +0.034 A 
ATOM     27  C   UNL     1       7.235   8.195  -2.091  0.00  0.00    +0.147 A 
BRANCH  27  28
ATOM     28  N   UNL     1       6.641   8.656  -0.816  0.00  0.00    +0.058 N 
ATOM     29  O   UNL     1       5.584   8.202  -0.443  0.00  0.00    -0.126 OA
ATOM     30  O   UNL     1       7.212   9.486  -0.147  0.00  0.00    -0.126 OA
ENDBRANCH  27  28
ENDBRANCH  20  22
ENDBRANCH  19  20
ENDBRANCH  18  19
ENDBRANCH   2  18
TORSDOF 8
