REMARK  Name = ZINC39484946
REMARK  3 active torsions:
REMARK  status: ('A' for Active; 'I' for Inactive)
REMARK    1  A    between atoms: C_10  and  C_13
REMARK    2  A    between atoms: C_13  and  C_14
REMARK    3  A    between atoms: N_16  and  C_17
REMARK                            x       y       z     vdW  Elec       q    Type
REMARK                         _______ _______ _______ _____ _____    ______ ____
ROOT
ATOM      1  C   UNL     1       4.815  -1.713   2.840  0.00  0.00    +0.219 C 
ATOM      2  O   UNL     1       5.764  -1.657   2.087  0.00  0.00    -0.275 OA
ATOM      3  N   UNL     1       4.975  -1.431   4.148  0.00  0.00    -0.285 N 
ATOM      4  H   UNL     1       4.205  -1.411   4.737  0.00  0.00    +0.155 HD
ENDROOT
BRANCH   3   5
ATOM      5  C   UNL     1       6.254  -1.169   4.656  0.00  0.00    +0.035 A 
ATOM      6  C   UNL     1       7.184  -0.492   3.879  0.00  0.00    +0.027 A 
ATOM      7  C   UNL     1       8.447  -0.230   4.376  0.00  0.00    +0.049 A 
ATOM      8  C   UNL     1       8.787  -0.644   5.652  0.00  0.00    +0.142 A 
ATOM      9  C   UNL     1       7.855  -1.324   6.436  0.00  0.00    +0.077 A 
ATOM     10  C   UNL     1       6.589  -1.581   5.939  0.00  0.00    +0.050 A 
ATOM     11  N   UNL     1       8.216  -1.737   7.726  0.00  0.00    -0.280 N 
ATOM     12  C   UNL     1       9.318  -1.207   8.300  0.00  0.00    +0.255 C 
ATOM     13  O   UNL     1       9.666  -1.572   9.403  0.00  0.00    -0.272 OA
ATOM     14  C   UNL     1      10.114  -0.159   7.563  0.00  0.00    +0.325 C 
ATOM     15  O   UNL     1      10.026  -0.392   6.155  0.00  0.00    -0.481 OA
ATOM     16  H   UNL     1       7.682  -2.394   8.200  0.00  0.00    +0.155 HD
ENDBRANCH   3   5
BRANCH   1  17
ATOM     17  C   UNL     1       3.457  -2.098   2.313  0.00  0.00    +0.120 C 
BRANCH  17  27
ATOM     18  C   UNL     1       0.009   1.402  -0.004  0.00  0.00    +0.002 A 
ATOM     19  C   UNL     1       1.196   2.111  -0.011  0.00  0.00    +0.001 A 
ATOM     20  C   UNL     1       2.403   1.435  -0.028  0.00  0.00    +0.016 A 
ATOM     21  C   UNL     1       2.417   0.050  -0.034  0.00  0.00    +0.030 A 
ATOM     22  C   UNL     1       1.225  -0.672  -0.019  0.00  0.00    +0.047 A 
ATOM     23  C   UNL     1       0.018   0.021  -0.009  0.00  0.00    +0.024 A 
ATOM     24  N   UNL     1       1.208  -2.064  -0.002  0.00  0.00    -0.284 N 
ATOM     25  C   UNL     1       2.223  -2.866   0.301  0.00  0.00    +0.231 C 
ATOM     26  O   UNL     1       2.075  -4.062   0.160  0.00  0.00    -0.274 OA
ATOM     27  C   UNL     1       3.549  -2.363   0.809  0.00  0.00    +0.146 C 
ATOM     28  S   UNL     1       3.954  -0.820  -0.066  0.00  0.00    -0.110 S 
ATOM     29  H   UNL     1       0.369  -2.492  -0.234  0.00  0.00    +0.155 HD
ENDBRANCH  17  27
ENDBRANCH   1  17
TORSDOF 3
