REMARK  Name = ZINC37987098
REMARK  4 active torsions:
REMARK  status: ('A' for Active; 'I' for Inactive)
REMARK    1  A    between atoms: C_1  and  C_2
REMARK    2  A    between atoms: C_2  and  C_4
REMARK    3  A    between atoms: C_2  and  N_11
REMARK    4  A    between atoms: N_11  and  C_12
REMARK                            x       y       z     vdW  Elec       q    Type
REMARK                         _______ _______ _______ _____ _____    ______ ____
ROOT
ATOM      1  N   UNL     1       0.711  -0.489   1.189  0.00  0.00    -0.321 N 
ATOM      2  H   UNL     1       1.654  -0.707   1.135  0.00  0.00    +0.148 HD
ENDROOT
BRANCH   1   3
ATOM      3  C   UNL     1       0.034  -0.637   2.387  0.00  0.00    +0.150 A 
ATOM      4  C   UNL     1       0.697  -1.101   3.535  0.00  0.00    +0.147 A 
ATOM      5  C   UNL     1      -0.043  -1.231   4.722  0.00  0.00    +0.163 A 
ATOM      6  N   UNL     1       0.836  -1.695   5.668  0.00  0.00    -0.329 N 
ATOM      7  C   UNL     1       2.050  -1.835   5.063  0.00  0.00    +0.198 A 
ATOM      8  N   UNL     1       1.966  -1.486   3.812  0.00  0.00    -0.231 NA
ATOM      9  H   UNL     1       0.632  -1.887   6.596  0.00  0.00    +0.168 HD
ATOM     10  N   UNL     1      -1.333  -0.912   4.717  0.00  0.00    -0.216 NA
ATOM     11  C   UNL     1      -1.913  -0.481   3.617  0.00  0.00    +0.225 A 
ATOM     12  N   UNL     1      -1.258  -0.338   2.479  0.00  0.00    -0.219 NA
ENDBRANCH   1   3
BRANCH   1  14
ATOM     13  C   UNL     1      -0.019   1.526   0.010  0.00  0.00    +0.033 C 
ATOM     14  C   UNL     1       0.002  -0.004   0.002  0.00  0.00    +0.099 C 
BRANCH  14  15
ATOM     15  C   UNL     1       0.707  -0.490  -1.238  0.00  0.00    -0.026 A 
ATOM     16  C   UNL     1       2.089  -0.511  -1.284  0.00  0.00    +0.005 A 
ATOM     17  C   UNL     1       2.737  -0.957  -2.421  0.00  0.00    +0.001 A 
ATOM     18  C   UNL     1       2.003  -1.382  -3.513  0.00  0.00    +0.015 A 
ATOM     19  C   UNL     1       0.621  -1.361  -3.467  0.00  0.00    +0.018 A 
ATOM     20  C   UNL     1      -0.027  -0.920  -2.327  0.00  0.00    +0.020 A 
ATOM     21 BR   UNL     1      -0.383  -1.942  -4.960  0.00  0.00    -0.050 Br
ENDBRANCH  14  15
ENDBRANCH   1  14
TORSDOF 3
