REMARK  Name = ZINC00507381
REMARK  4 active torsions:
REMARK  status: ('A' for Active; 'I' for Inactive)
REMARK    1  A    between atoms: C_1  and  C_2
REMARK    2  A    between atoms: C_4  and  C_17
REMARK    3  A    between atoms: C_4  and  O_18
REMARK    4  A    between atoms: N_15  and  O_16
REMARK                            x       y       z     vdW  Elec       q    Type
REMARK                         _______ _______ _______ _____ _____    ______ ____
ROOT
ATOM      1  C   UNL     1       5.463   0.224   1.813  0.00  0.00    +0.050 C 
ATOM      2  C   UNL     1       4.096   0.326   1.125  0.00  0.00    +0.125 C 
ATOM      3  C   UNL     1       4.155  -0.185  -0.323  0.00  0.00    +0.108 C 
ATOM      4  C   UNL     1       3.577  -1.613  -0.265  0.00  0.00    +0.187 C 
ATOM      5  O   UNL     1       2.980  -1.770   1.030  0.00  0.00    -0.260 OA
ATOM      6  N   UNL     1       3.085  -0.530   1.790  0.00  0.00    -0.158 NA
ATOM      7  C   UNL     1       1.821   0.223   1.799  0.00  0.00    +0.106 C 
ATOM      8  C   UNL     1       0.671  -0.546   1.244  0.00  0.00    +0.023 C 
ATOM      9  C   UNL     1       0.002  -0.004   0.002  0.00  0.00    +0.002 C 
ATOM     10  C   UNL     1      -0.019   1.524   0.010  0.00  0.00    +0.002 C 
ATOM     11  C   UNL     1       1.435   2.004  -0.001  0.00  0.00    +0.023 C 
ATOM     12  C   UNL     1       2.120   1.610   1.287  0.00  0.00    +0.106 C 
ATOM     13  N   UNL     1       3.586   1.706   1.166  0.00  0.00    -0.164 NA
ATOM     14  C   UNL     1       4.696  -2.645  -0.468  0.00  0.00    +0.075 C 
ENDROOT
BRANCH  13  15
ATOM     15  O   UNL     1       3.998   2.479   0.000  0.00  0.00    -0.310 OA
ATOM     16  H   UNL     1       3.677   3.391  -0.000  0.00  0.00    +0.237 HD
ENDBRANCH  13  15
BRANCH   4  17
ATOM     17  O   UNL     1       2.590  -1.782  -1.294  0.00  0.00    -0.363 OA
ATOM     18  H   UNL     1       2.177  -2.656  -1.303  0.00  0.00    +0.213 HD
ENDBRANCH   4  17
TORSDOF 2
