REMARK  Name = ZINC43177669
REMARK  8 active torsions:
REMARK  status: ('A' for Active; 'I' for Inactive)
REMARK    1  A    between atoms: C_1  and  C_2
REMARK    2  A    between atoms: C_2  and  O_3
REMARK    3  A    between atoms: O_3  and  C_4
REMARK    4  A    between atoms: N_12  and  C_13
REMARK    5  A    between atoms: N_15  and  C_16
REMARK    6  A    between atoms: C_16  and  C_17
REMARK    7  A    between atoms: C_17  and  C_19
REMARK    8  A    between atoms: C_17  and  O_20
REMARK                            x       y       z     vdW  Elec       q    Type
REMARK                         _______ _______ _______ _____ _____    ______ ____
ROOT
ATOM      1  C   UNL     1       0.802  -1.825   1.306  0.00  0.00    +0.122 A 
ATOM      2  C   UNL     1       0.262  -2.683   0.355  0.00  0.00    +0.048 A 
ATOM      3  C   UNL     1       0.363  -4.046   0.489  0.00  0.00    +0.030 A 
ATOM      4  C   UNL     1       1.018  -4.619   1.593  0.00  0.00    +0.055 A 
ATOM      5  C   UNL     1       1.553  -3.728   2.535  0.00  0.00    +0.042 A 
ATOM      6  C   UNL     1       1.459  -2.364   2.403  0.00  0.00    +0.062 A 
ATOM      7  S   UNL     1       2.281  -4.803   3.749  0.00  0.00    -0.052 S 
ATOM      8  C   UNL     1       1.861  -6.360   2.984  0.00  0.00    +0.165 A 
ATOM      9  N   UNL     1       2.127  -7.591   3.404  0.00  0.00    -0.139 NA
ATOM     10  N   UNL     1       1.198  -5.966   1.861  0.00  0.00    -0.335 N 
ATOM     11  H   UNL     1       0.850  -6.631   1.247  0.00  0.00    +0.168 HD
ENDROOT
BRANCH   9  12
ATOM     12  C   UNL     1       2.798  -7.779   4.546  0.00  0.00    +0.325 C 
ATOM     13  O   UNL     1       3.165  -6.819   5.201  0.00  0.00    -0.251 OA
ATOM     14  N   UNL     1       3.069  -9.028   4.971  0.00  0.00    -0.295 N 
ATOM     15  H   UNL     1       2.777  -9.792   4.450  0.00  0.00    +0.150 HD
BRANCH  14  16
ATOM     16  C   UNL     1       3.804  -9.233   6.222  0.00  0.00    +0.136 C 
BRANCH  16  17
ATOM     17  C   UNL     1       3.976 -10.733   6.473  0.00  0.00    +0.129 C 
ATOM     18  C   UNL     1       4.632 -10.950   7.838  0.00  0.00    +0.039 C 
BRANCH  17  19
ATOM     19  O   UNL     1       4.803 -11.294   5.452  0.00  0.00    -0.391 OA
ATOM     20  H   UNL     1       4.956 -12.244   5.547  0.00  0.00    +0.210 HD
ENDBRANCH  17  19
ENDBRANCH  16  17
ENDBRANCH  14  16
ENDBRANCH   9  12
BRANCH   1  21
ATOM     21  O   UNL     1       0.693  -0.477   1.160  0.00  0.00    -0.492 OA
BRANCH  21  23
ATOM     22  C   UNL     1      -0.019   1.526   0.010  0.00  0.00    +0.048 C 
ATOM     23  C   UNL     1       0.002  -0.004   0.002  0.00  0.00    +0.225 C 
ENDBRANCH  21  23
ENDBRANCH   1  21
TORSDOF 6
