REMARK  Name = ZINC63541375
REMARK  5 active torsions:
REMARK  status: ('A' for Active; 'I' for Inactive)
REMARK    1  A    between atoms: C_1  and  C_2
REMARK    2  A    between atoms: C_3  and  C_20
REMARK    3  A    between atoms: N_22  and  C_23
REMARK    4  A    between atoms: C_23  and  C_24
REMARK    5  A    between atoms: C_24  and  C_25
REMARK                            x       y       z     vdW  Elec       q    Type
REMARK                         _______ _______ _______ _____ _____    ______ ____
ROOT
ATOM      1  C   UNL     1      -0.018   1.503   0.010  0.00  0.00    +0.041 C 
ATOM      2  C   UNL     1       0.002  -0.004   0.002  0.00  0.00    -0.040 C 
ATOM      3  C   UNL     1       0.006  -0.676  -1.155  0.00  0.00    +0.071 C 
ATOM      4  S   UNL     1       0.045  -2.404  -0.698  0.00  0.00    -0.100 S 
ATOM      5  C   UNL     1       0.598  -2.191   1.052  0.00  0.00    +0.134 C 
ATOM      6  C   UNL     1       0.025  -0.770   1.289  0.00  0.00    +0.129 C 
ATOM      7  C   UNL     1       0.815  -0.055   2.333  0.00  0.00    +0.226 C 
ATOM      8  O   UNL     1       0.362   0.982   2.769  0.00  0.00    -0.275 OA
ATOM      9  N   UNL     1       1.995  -0.476   2.825  0.00  0.00    -0.285 N 
ATOM     10  C   UNL     1       2.649   0.402   3.820  0.00  0.00    +0.109 C 
ATOM     11  C   UNL     1       3.207  -0.376   4.985  0.00  0.00    +0.019 C 
ATOM     12  C   UNL     1       4.637  -0.865   4.679  0.00  0.00    +0.002 C 
ATOM     13  C   UNL     1       4.631  -2.007   3.760  0.00  0.00    +0.003 C 
ATOM     14  C   UNL     1       4.077  -1.674   2.374  0.00  0.00    +0.038 C 
ATOM     15  C   UNL     1       2.569  -1.755   2.382  0.00  0.00    +0.145 C 
ATOM     16  N   UNL     1       2.064  -2.121   1.059  0.00  0.00    -0.286 NA
ATOM     17  H   UNL     1       2.469  -2.985   0.731  0.00  0.00    +0.125 HD
ENDROOT
BRANCH   3  18
ATOM     18  C   UNL     1      -0.018  -0.111  -2.518  0.00  0.00    +0.250 C 
ATOM     19  O   UNL     1      -0.044   1.094  -2.676  0.00  0.00    -0.270 OA
ATOM     20  N   UNL     1      -0.010  -0.931  -3.587  0.00  0.00    -0.311 N 
ATOM     21  H   UNL     1       0.011  -1.893  -3.461  0.00  0.00    +0.149 HD
BRANCH  20  22
ATOM     22  C   UNL     1      -0.034  -0.371  -4.941  0.00  0.00    +0.109 C 
BRANCH  22  23
ATOM     23  C   UNL     1      -0.019  -1.508  -5.964  0.00  0.00    +0.052 C 
BRANCH  23  24
ATOM     24  C   UNL     1      -0.043  -0.931  -7.356  0.00  0.00    -0.040 C 
ATOM     25  C   UNL     1       1.021  -0.690  -8.155  0.00  0.00    -0.001 A 
ATOM     26  C   UNL     1       2.465  -0.883  -7.973  0.00  0.00    +0.010 A 
ATOM     27  C   UNL     1       3.304  -0.538  -8.976  0.00  0.00    +0.001 A 
ATOM     28  C   UNL     1       2.831  -0.002 -10.182  0.00  0.00    +0.002 A 
ATOM     29  C   UNL     1       1.519   0.205 -10.422  0.00  0.00    +0.026 A 
ATOM     30  C   UNL     1       0.547  -0.122  -9.437  0.00  0.00    +0.043 A 
ATOM     31  N   UNL     1      -0.759  -0.016  -9.431  0.00  0.00    -0.380 N 
ATOM     32  C   UNL     1      -1.263  -0.512  -8.146  0.00  0.00    +0.144 C 
ATOM     33  H   UNL     1      -1.303   0.328 -10.158  0.00  0.00    +0.160 HD
ENDBRANCH  23  24
ENDBRANCH  22  23
ENDBRANCH  20  22
ENDBRANCH   3  18
TORSDOF 4
