REMARK  Name = ZINC33140035
REMARK  6 active torsions:
REMARK  status: ('A' for Active; 'I' for Inactive)
REMARK    1  A    between atoms: C_1  and  C_2
REMARK    2  A    between atoms: C_4  and  C_25
REMARK    3  A    between atoms: C_6  and  N_8
REMARK    4  A    between atoms: N_11  and  C_12
REMARK    5  A    between atoms: N_20  and  S_21
REMARK    6  A    between atoms: S_21  and  C_24
REMARK                            x       y       z     vdW  Elec       q    Type
REMARK                         _______ _______ _______ _____ _____    ______ ____
ROOT
ATOM      1  N   UNL     1      -0.030   5.492  -0.173  0.00  0.00    -0.269 N 
ATOM      2  C   UNL     1      -0.017   4.148  -0.076  0.00  0.00    +0.308 C 
ATOM      3  O   UNL     1      -1.064   3.530  -0.061  0.00  0.00    -0.252 OA
ATOM      4  N   UNL     1       1.156   3.489   0.004  0.00  0.00    -0.269 N 
ATOM      5  H   UNL     1       0.916   6.046  -0.263  0.00  0.00    +0.156 HD
ATOM      6  H   UNL     1       2.099   4.051   0.067  0.00  0.00    +0.156 HD
ENDROOT
BRANCH   4   7
ATOM      7  C   UNL     1       1.174   2.087   0.006  0.00  0.00    +0.035 A 
ATOM      8  C   UNL     1       2.209   1.402  -0.615  0.00  0.00    +0.025 A 
ATOM      9  C   UNL     1       2.227   0.024  -0.612  0.00  0.00    +0.027 A 
ATOM     10  C   UNL     1       1.205  -0.694   0.013  0.00  0.00    +0.054 A 
ATOM     11  C   UNL     1       0.175  -0.003   0.630  0.00  0.00    -0.021 A 
ATOM     12  C   UNL     1       0.156   1.378   0.629  0.00  0.00    +0.029 A 
ATOM     13  C   UNL     1      -0.789  -1.006   1.224  0.00  0.00    +0.058 C 
ATOM     14  C   UNL     1      -0.188  -2.376   0.872  0.00  0.00    +0.136 C 
ATOM     15  N   UNL     1       1.038  -2.078   0.127  0.00  0.00    -0.207 N 
BRANCH  15  16
ATOM     16  S   UNL     1       2.074  -3.213  -0.490  0.00  0.00    +0.043 S 
ATOM     17  O   UNL     1       1.268  -4.365  -0.697  0.00  0.00    -0.155 OA
ATOM     18  O   UNL     1       2.710  -2.568  -1.585  0.00  0.00    -0.155 OA
ATOM     19  C   UNL     1       3.274  -3.519   0.836  0.00  0.00    +0.218 C 
ENDBRANCH  15  16
ENDBRANCH   4   7
BRANCH   1  25
ATOM     20  C   UNL     1      -2.628   9.460   1.122  0.00  0.00    +0.044 C 
ATOM     21  C   UNL     1      -2.534   8.108   0.463  0.00  0.00    -0.048 A 
ATOM     22  C   UNL     1      -3.652   7.550  -0.129  0.00  0.00    +0.006 A 
ATOM     23  C   UNL     1      -3.571   6.309  -0.735  0.00  0.00    -0.048 A 
ATOM     24  C   UNL     1      -2.371   5.625  -0.752  0.00  0.00    +0.026 A 
ATOM     25  C   UNL     1      -1.246   6.183  -0.158  0.00  0.00    +0.035 A 
ATOM     26  C   UNL     1      -1.333   7.426   0.455  0.00  0.00    +0.026 A 
ATOM     27  C   UNL     1      -4.791   5.705  -1.379  0.00  0.00    +0.044 C 
ENDBRANCH   1  25
TORSDOF 3
