REMARK  Name = ZINC39659948
REMARK  4 active torsions:
REMARK  status: ('A' for Active; 'I' for Inactive)
REMARK    1  A    between atoms: C_1  and  C_2
REMARK    2  A    between atoms: C_6  and  C_7
REMARK    3  A    between atoms: C_11  and  C_20
REMARK    4  A    between atoms: N_22  and  C_23
REMARK                            x       y       z     vdW  Elec       q    Type
REMARK                         _______ _______ _______ _____ _____    ______ ____
ROOT
ATOM      1  C   UNL     1       0.032  -0.278   2.568  0.00  0.00    +0.254 C 
ATOM      2  O   UNL     1       0.122   0.910   2.814  0.00  0.00    -0.269 OA
ATOM      3  N   UNL     1      -0.049  -1.170   3.575  0.00  0.00    -0.296 N 
ATOM      4  C   UNL     1      -0.041  -2.649   3.480  0.00  0.00    +0.121 C 
ATOM      5  C   UNL     1       0.813  -3.113   4.682  0.00  0.00    +0.100 C 
ATOM      6  C   UNL     1       0.726  -1.958   5.694  0.00  0.00    -0.004 C 
ATOM      7  C   UNL     1      -0.159  -0.894   5.027  0.00  0.00    +0.115 C 
ATOM      8  C   UNL     1       0.087  -2.440   6.992  0.00  0.00    -0.010 C 
ATOM      9  C   UNL     1       0.064  -1.289   8.003  0.00  0.00    -0.082 C 
ATOM     10  N   UNL     1       1.435  -0.827   8.251  0.00  0.00    +0.379 N 
ATOM     11  C   UNL     1       2.010  -0.279   7.016  0.00  0.00    -0.082 C 
ATOM     12  C   UNL     1       2.115  -1.387   5.964  0.00  0.00    -0.010 C 
ATOM     13  H   UNL     1       1.423  -0.111   8.961  0.00  0.00    -0.086 HD
ATOM     14  H   UNL     1       1.998  -1.602   8.567  0.00  0.00    -0.086 HD
ENDROOT
BRANCH   1  20
ATOM     15  C   UNL     1      -0.011   1.515   0.021  0.00  0.00    +0.045 C 
ATOM     16  C   UNL     1      -0.009   0.008   0.009  0.00  0.00    -0.031 A 
ATOM     17  C   UNL     1      -0.020  -0.713  -1.161  0.00  0.00    +0.011 A 
ATOM     18  C   UNL     1      -0.016  -2.068  -1.100  0.00  0.00    +0.046 A 
ATOM     19  S   UNL     1       0.003  -2.406   0.545  0.00  0.00    -0.092 S 
ATOM     20  C   UNL     1       0.011  -0.739   1.177  0.00  0.00    +0.077 A 
ENDBRANCH   1  20
BRANCH   5  21
ATOM     21  C   UNL     1       2.241  -3.334   4.256  0.00  0.00    +0.218 C 
ATOM     22  O   UNL     1       2.739  -2.622   3.410  0.00  0.00    -0.275 OA
ATOM     23  N   UNL     1       2.966  -4.323   4.816  0.00  0.00    -0.312 N 
ATOM     24  H   UNL     1       2.568  -4.892   5.492  0.00  0.00    +0.149 HD
BRANCH  23  25
ATOM     25  C   UNL     1       4.355  -4.538   4.402  0.00  0.00    +0.073 C 
ATOM     26  C   UNL     1       4.384  -5.422   3.153  0.00  0.00    +0.022 C 
ATOM     27  C   UNL     1       5.761  -5.326   2.493  0.00  0.00    +0.002 C 
ATOM     28  C   UNL     1       6.209  -3.864   2.457  0.00  0.00    +0.000 C 
ATOM     29  C   UNL     1       7.417  -3.679   3.379  0.00  0.00    +0.000 C 
ATOM     30  C   UNL     1       6.949  -3.668   4.835  0.00  0.00    +0.000 C 
ATOM     31  C   UNL     1       6.627  -5.096   5.279  0.00  0.00    +0.002 C 
ATOM     32  C   UNL     1       5.123  -5.226   5.532  0.00  0.00    +0.022 C 
ENDBRANCH  23  25
ENDBRANCH   5  21
TORSDOF 3
