REMARK  Name = ZINC35023285
REMARK  5 active torsions:
REMARK  status: ('A' for Active; 'I' for Inactive)
REMARK    1  A    between atoms: C_5  and  C_7
REMARK    2  A    between atoms: C_9  and  C_21
REMARK    3  A    between atoms: C_11  and  C_16
REMARK    4  A    between atoms: C_11  and  O_20
REMARK    5  A    between atoms: C_21  and  C_23
REMARK                            x       y       z     vdW  Elec       q    Type
REMARK                         _______ _______ _______ _____ _____    ______ ____
ROOT
ATOM      1  C   UNL     1       1.616  -2.482   0.450  0.00  0.00    +0.136 C 
ATOM      2  C   UNL     1       1.964  -2.589  -1.038  0.00  0.00    +0.146 C 
ATOM      3  C   UNL     1       1.723  -4.032  -1.494  0.00  0.00    +0.241 C 
ATOM      4  N   UNL     1       0.343  -4.410  -1.181  0.00  0.00    -0.291 N 
ATOM      5  C   UNL     1      -0.311  -3.865  -0.145  0.00  0.00    +0.133 C 
ATOM      6  S   UNL     1      -1.918  -4.367   0.168  0.00  0.00    -0.019 S 
ATOM      7  N   UNL     1       0.243  -2.944   0.658  0.00  0.00    -0.317 N 
ATOM      8  H   UNL     1      -0.106  -5.067  -1.735  0.00  0.00    +0.151 HD
ATOM      9  H   UNL     1      -0.276  -2.577   1.391  0.00  0.00    +0.148 HD
ENDROOT
BRANCH   1  14
ATOM     10  C   UNL     1       0.799   1.137   1.114  0.00  0.00    +0.003 A 
ATOM     11  C   UNL     1       1.988   1.537   1.705  0.00  0.00    +0.020 A 
ATOM     12  C   UNL     1       3.004   0.615   1.864  0.00  0.00    +0.111 A 
ATOM     13  N   UNL     1       2.853  -0.632   1.461  0.00  0.00    -0.258 NA
ATOM     14  C   UNL     1       1.737  -1.047   0.894  0.00  0.00    +0.062 A 
ATOM     15  C   UNL     1       0.677  -0.181   0.703  0.00  0.00    +0.025 A 
ENDBRANCH   1  14
BRANCH   3  16
ATOM     16  C   UNL     1       1.953  -4.137  -3.002  0.00  0.00    +0.436 C 
ATOM     17  F   UNL     1       3.269  -3.769  -3.300  0.00  0.00    -0.166 F 
ATOM     18  F   UNL     1       1.732  -5.455  -3.417  0.00  0.00    -0.166 F 
ATOM     19  F   UNL     1       1.067  -3.284  -3.670  0.00  0.00    -0.166 F 
ENDBRANCH   3  16
BRANCH   3  20
ATOM     20  O   UNL     1       2.624  -4.905  -0.810  0.00  0.00    -0.364 OA
ATOM     21  H   UNL     1       2.526  -5.837  -1.050  0.00  0.00    +0.212 HD
ENDBRANCH   3  20
BRANCH   2  22
ATOM     22  C   UNL     1       3.411  -2.223  -1.247  0.00  0.00    +0.180 C 
ATOM     23  O   UNL     1       4.276  -3.064  -1.109  0.00  0.00    -0.291 OA
BRANCH  22  24
ATOM     24  C   UNL     1       3.761  -0.902  -1.605  0.00  0.00    +0.055 A 
ATOM     25  C   UNL     1       5.025  -0.334  -1.733  0.00  0.00    +0.019 A 
ATOM     26  C   UNL     1       5.048   0.988  -2.098  0.00  0.00    +0.008 A 
ATOM     27  C   UNL     1       3.873   1.637  -2.304  0.00  0.00    +0.046 A 
ATOM     28  S   UNL     1       2.700   0.469  -2.017  0.00  0.00    -0.094 S 
ENDBRANCH  22  24
ENDBRANCH   2  22
TORSDOF 5
