REMARK  Name = ZINC66811442
REMARK  3 active torsions:
REMARK  status: ('A' for Active; 'I' for Inactive)
REMARK    1  A    between atoms: C_6  and  C_7
REMARK    2  A    between atoms: C_11  and  N_13
REMARK    3  A    between atoms: C_16  and  C_19
REMARK                            x       y       z     vdW  Elec       q    Type
REMARK                         _______ _______ _______ _____ _____    ______ ____
ROOT
ATOM      1  C   UNL     1      -1.265  -0.784  -0.077  0.00  0.00    +0.162 A 
ATOM      2  N   UNL     1      -2.418  -0.138   0.018  0.00  0.00    -0.232 NA
ATOM      3  C   UNL     1      -3.563  -0.798   0.115  0.00  0.00    +0.050 A 
ATOM      4  C   UNL     1      -3.545  -2.179   0.116  0.00  0.00    +0.014 A 
ATOM      5  C   UNL     1      -2.315  -2.833   0.015  0.00  0.00    +0.129 A 
ATOM      6  N   UNL     1      -1.206  -2.108  -0.084  0.00  0.00    -0.212 NA
ATOM      7  C   UNL     1      -4.954  -2.712   0.235  0.00  0.00    +0.041 C 
ATOM      8  C   UNL     1      -5.795  -1.520   0.741  0.00  0.00    +0.011 C 
ATOM      9  C   UNL     1      -4.988  -0.305   0.233  0.00  0.00    +0.056 C 
ENDROOT
BRANCH   1  15
ATOM     10  C   UNL     1      -0.025   1.393  -0.179  0.00  0.00    +0.031 A 
ATOM     11  C   UNL     1       1.169   2.079  -0.280  0.00  0.00    +0.111 A 
ATOM     12  N   UNL     1       2.314   1.433  -0.380  0.00  0.00    -0.263 NA
ATOM     13  C   UNL     1       2.376   0.116  -0.388  0.00  0.00    +0.111 A 
ATOM     14  C   UNL     1       1.230  -0.647  -0.291  0.00  0.00    +0.031 A 
ATOM     15  C   UNL     1      -0.006  -0.004  -0.184  0.00  0.00    +0.022 A 
ENDBRANCH   1  15
BRANCH   5  16
ATOM     16  N   UNL     1      -2.253  -4.217   0.013  0.00  0.00    -0.315 N 
ATOM     17  C   UNL     1      -2.333  -4.968  -1.248  0.00  0.00    +0.107 C 
ATOM     18  C   UNL     1      -1.125  -5.906  -1.340  0.00  0.00    +0.030 C 
ATOM     19  C   UNL     1      -1.070  -6.784  -0.088  0.00  0.00    +0.056 C 
ATOM     20  C   UNL     1      -0.901  -5.900   1.150  0.00  0.00    +0.030 C 
ATOM     21  C   UNL     1      -2.100  -4.962   1.270  0.00  0.00    +0.107 C 
BRANCH  19  22
ATOM     22  C   UNL     1       0.097  -7.732  -0.191  0.00  0.00    +0.088 A 
ATOM     23  N   UNL     1       1.266  -7.457  -0.749  0.00  0.00    -0.350 N 
ATOM     24  H   UNL     1       1.515  -6.615  -1.160  0.00  0.00    +0.166 HD
ATOM     25  C   UNL     1       2.050  -8.551  -0.647  0.00  0.00    +0.101 A 
ATOM     26  C   UNL     1       1.334  -9.501  -0.013  0.00  0.00    +0.101 A 
ATOM     27  N   UNL     1       0.124  -8.973   0.267  0.00  0.00    -0.350 N 
ATOM     28  H   UNL     1      -0.602  -9.426   0.724  0.00  0.00    +0.166 HD
ENDBRANCH  19  22
ENDBRANCH   5  16
TORSDOF 3
