REMARK  Name = ZINC29496308
REMARK  8 active torsions:
REMARK  status: ('A' for Active; 'I' for Inactive)
REMARK    1  A    between atoms: C_1  and  C_2
REMARK    2  A    between atoms: C_15  and  C_17
REMARK    3  A    between atoms: C_17  and  S_18
REMARK    4  A    between atoms: S_18  and  C_19
REMARK    5  A    between atoms: N_20  and  C_21
REMARK    6  A    between atoms: C_21  and  C_22
REMARK    7  A    between atoms: C_22  and  C_23
REMARK    8  A    between atoms: C_22  and  C_24
REMARK                            x       y       z     vdW  Elec       q    Type
REMARK                         _______ _______ _______ _____ _____    ______ ____
ROOT
ATOM      1  C   UNL     1      -0.447   5.989  -2.221  0.00  0.00    +0.029 C 
ATOM      2  C   UNL     1       0.633   6.140  -1.148  0.00  0.00    +0.087 C 
ATOM      3  C   UNL     1       1.952   5.566  -1.669  0.00  0.00    +0.118 C 
ATOM      4  C   UNL     1       2.905   5.338  -0.526  0.00  0.00    +0.219 C 
ATOM      5  O   UNL     1       3.833   6.101  -0.355  0.00  0.00    -0.275 OA
ATOM      6  N   UNL     1       2.734   4.291   0.310  0.00  0.00    -0.284 N 
ATOM      7  C   UNL     1       1.618   3.455   0.184  0.00  0.00    +0.055 A 
ATOM      8  C   UNL     1       1.759   2.078   0.175  0.00  0.00    +0.025 A 
ATOM      9  C   UNL     1       0.639   1.272   0.083  0.00  0.00    +0.002 A 
ATOM     10  C   UNL     1      -0.621   1.838   0.001  0.00  0.00    +0.002 A 
ATOM     11  C   UNL     1      -0.770   3.213   0.012  0.00  0.00    +0.025 A 
ATOM     12  C   UNL     1       0.349   4.027   0.091  0.00  0.00    +0.058 A 
ATOM     13  N   UNL     1       0.221   5.422   0.059  0.00  0.00    -0.266 N 
ATOM     14  C   UNL     1      -0.272   6.091   1.121  0.00  0.00    +0.230 C 
ATOM     15  O   UNL     1      -0.377   7.298   1.081  0.00  0.00    -0.274 OA
ATOM     16  H   UNL     1       3.475   4.089   1.098  0.00  0.00    +0.155 HD
ENDROOT
BRANCH  14  17
ATOM     17  C   UNL     1      -0.692   5.338   2.357  0.00  0.00    +0.173 C 
BRANCH  17  18
ATOM     18  S   UNL     1      -1.306   6.506   3.596  0.00  0.00    -0.084 S 
BRANCH  18  19
ATOM     19  C   UNL     1      -1.714   5.388   4.895  0.00  0.00    +0.126 C 
ATOM     20  N   UNL     1      -1.522   4.107   4.737  0.00  0.00    -0.368 N 
ATOM     21  N   UNL     1      -2.235   5.865   6.075  0.00  0.00    -0.339 N 
ATOM     22  H   UNL     1      -2.490   5.167   6.886  0.00  0.00    +0.144 HD
ATOM     23  H   UNL     1      -2.397   6.945   6.207  0.00  0.00    +0.144 HD
ATOM     24  H   UNL     1      -1.048   3.731   3.819  0.00  0.00    +0.161 HD
BRANCH  20  25
ATOM     25  C   UNL     1      -1.939   3.170   5.783  0.00  0.00    +0.117 C 
BRANCH  25  26
ATOM     26  C   UNL     1      -3.065   2.281   5.253  0.00  0.00    +0.002 C 
ATOM     27  C   UNL     1      -2.533   1.407   4.116  0.00  0.00    +0.009 C 
ATOM     28  C   UNL     1      -3.585   1.388   6.381  0.00  0.00    +0.009 C 
ENDBRANCH  25  26
ENDBRANCH  20  25
ENDBRANCH  18  19
ENDBRANCH  17  18
ENDBRANCH  14  17
TORSDOF 5
