REMARK  Name = ZINC22115360
REMARK  4 active torsions:
REMARK  status: ('A' for Active; 'I' for Inactive)
REMARK    1  A    between atoms: C_1  and  C_2
REMARK    2  A    between atoms: C_5  and  S_8
REMARK    3  A    between atoms: S_8  and  N_11
REMARK    4  A    between atoms: C_15  and  C_18
REMARK                            x       y       z     vdW  Elec       q    Type
REMARK                         _______ _______ _______ _____ _____    ______ ____
ROOT
ATOM      1  N   UNL     1      -3.146   0.590   1.602  0.00  0.00    -0.174 NA
ATOM      2  C   UNL     1      -2.693  -0.616   2.313  0.00  0.00    +0.124 C 
ATOM      3  C   UNL     1      -3.902  -1.283   2.967  0.00  0.00    +0.098 C 
ATOM      4  N   UNL     1      -4.612  -0.301   3.798  0.00  0.00    -0.307 NA
ATOM      5  C   UNL     1      -5.143   0.800   2.985  0.00  0.00    +0.100 C 
ATOM      6  C   UNL     1      -3.980   1.556   2.333  0.00  0.00    +0.133 C 
ATOM      7  H   UNL     1      -5.451  -0.794   4.312  0.00  0.00    +0.123 HD
ENDROOT
BRANCH   5   8
ATOM      8  C   UNL     1      -5.926   1.743   3.863  0.00  0.00    -0.029 A 
ATOM      9  C   UNL     1      -5.466   2.049   5.130  0.00  0.00    +0.005 A 
ATOM     10  C   UNL     1      -6.182   2.917   5.934  0.00  0.00    +0.000 A 
ATOM     11  C   UNL     1      -7.362   3.470   5.473  0.00  0.00    +0.000 A 
ATOM     12  C   UNL     1      -7.824   3.160   4.208  0.00  0.00    +0.000 A 
ATOM     13  C   UNL     1      -7.106   2.296   3.403  0.00  0.00    +0.005 A 
ENDBRANCH   5   8
BRANCH   1  14
ATOM     14  S   UNL     1      -2.733   0.849   0.020  0.00  0.00    +0.061 S 
ATOM     15  O   UNL     1      -3.722   1.714  -0.522  0.00  0.00    -0.153 OA
ATOM     16  O   UNL     1      -2.447  -0.426  -0.539  0.00  0.00    -0.153 OA
BRANCH  14  21
ATOM     17  C   UNL     1       2.451   3.937  -0.001  0.00  0.00    +0.044 C 
ATOM     18  C   UNL     1       1.156   3.165   0.008  0.00  0.00    -0.050 A 
ATOM     19  C   UNL     1       1.175   1.783   0.000  0.00  0.00    +0.005 A 
ATOM     20  C   UNL     1      -0.013   1.076   0.008  0.00  0.00    +0.029 A 
ATOM     21  C   UNL     1      -1.219   1.751   0.017  0.00  0.00    +0.105 A 
ATOM     22  C   UNL     1      -1.238   3.133   0.030  0.00  0.00    +0.029 A 
ATOM     23  C   UNL     1      -0.050   3.840   0.023  0.00  0.00    +0.005 A 
ENDBRANCH  14  21
ENDBRANCH   1  14
TORSDOF 3
