REMARK  Name = ZINC07499706
REMARK  13 active torsions:
REMARK  status: ('A' for Active; 'I' for Inactive)
REMARK    1  A    between atoms: C_1  and  C_2
REMARK    2  A    between atoms: C_2  and  C_3
REMARK    3  A    between atoms: C_3  and  C_4
REMARK    4  A    between atoms: C_4  and  N_5
REMARK    5  A    between atoms: C_6  and  N_30
REMARK    6  A    between atoms: C_7  and  N_14
REMARK    7  A    between atoms: N_14  and  C_15
REMARK    8  A    between atoms: C_15  and  C_16
REMARK    9  A    between atoms: C_17  and  C_19
REMARK   10  A    between atoms: C_19  and  N_56
REMARK   11  A    between atoms: C_20  and  C_22
REMARK   12  A    between atoms: C_20  and  C_23
REMARK   13  A    between atoms: C_20  and  N_56
REMARK                            x       y       z     vdW  Elec       q    Type
REMARK                         _______ _______ _______ _____ _____    ______ ____
ROOT
ATOM      1  N   UNL     1       6.644   3.551  -2.379  0.00  0.00    -0.266 N 
ATOM      2  C   UNL     1       5.500   2.943  -2.000  0.00  0.00    +0.203 C 
ATOM      3  O   UNL     1       5.359   1.751  -2.176  0.00  0.00    -0.277 OA
ENDROOT
BRANCH   1   6
ATOM      4  N   UNL     1       9.380   1.111  -2.632  0.00  0.00    -0.280 N 
ATOM      5  C   UNL     1       8.341   1.842  -2.104  0.00  0.00    +0.127 A 
ATOM      6  C   UNL     1       7.713   2.785  -2.891  0.00  0.00    +0.140 A 
ATOM      7  C   UNL     1       8.153   2.966  -4.216  0.00  0.00    +0.277 A 
ATOM      8  O   UNL     1       7.612   3.790  -4.935  0.00  0.00    -0.266 OA
ATOM      9  N   UNL     1       9.178   2.228  -4.683  0.00  0.00    -0.273 N 
ATOM     10  H   UNL     1       9.497   2.361  -5.621  0.00  0.00    +0.173 HD
ATOM     11  C   UNL     1       9.779   1.313  -3.901  0.00  0.00    +0.331 A 
ATOM     12  O   UNL     1      10.699   0.657  -4.349  0.00  0.00    -0.246 OA
BRANCH   5  13
ATOM     13  N   UNL     1       7.934   1.636  -0.808  0.00  0.00    -0.343 N 
ATOM     14  H   UNL     1       7.278   2.226  -0.406  0.00  0.00    +0.144 HD
ATOM     15  H   UNL     1       8.303   0.899  -0.295  0.00  0.00    +0.144 HD
ENDBRANCH   5  13
BRANCH   4  16
ATOM     16  C   UNL     1      10.056   0.106  -1.808  0.00  0.00    +0.128 C 
BRANCH  16  17
ATOM     17  C   UNL     1       9.356  -1.245  -1.974  0.00  0.00    +0.021 C 
BRANCH  17  19
ATOM     18  C   UNL     1       9.362  -3.645  -1.280  0.00  0.00    +0.004 C 
ATOM     19  C   UNL     1      10.062  -2.294  -1.114  0.00  0.00    -0.002 C 
ENDBRANCH  17  19
ENDBRANCH  16  17
ENDBRANCH   4  16
ENDBRANCH   1   6
BRANCH   1  20
ATOM     20  C   UNL     1       6.776   5.005  -2.259  0.00  0.00    +0.110 C 
ATOM     21  C   UNL     1       7.404   5.350  -0.907  0.00  0.00    +0.025 C 
ENDBRANCH   1  20
BRANCH   2  22
ATOM     22  C   UNL     1       4.399   3.746  -1.357  0.00  0.00    +0.016 C 
BRANCH  22  23
ATOM     23  N   UNL     1       3.269   2.851  -1.042  0.00  0.00    +0.389 N 
ATOM     24  H   UNL     1       3.588   2.117  -0.397  0.00  0.00    -0.084 HD
ATOM     25  H   UNL     1       2.927   2.419  -1.908  0.00  0.00    -0.084 HD
BRANCH  23  26
ATOM     26  C   UNL     1       2.174   3.611  -0.410  0.00  0.00    -0.042 C 
ATOM     27  C   UNL     1       2.428   3.718   1.095  0.00  0.00    -0.009 C 
BRANCH  26  28
ATOM     28  C   UNL     1       0.871   2.892  -0.650  0.00  0.00    -0.043 A 
ATOM     29  C   UNL     1       0.866   1.530  -0.886  0.00  0.00    +0.003 A 
ATOM     30  C   UNL     1      -0.329   0.871  -1.106  0.00  0.00    +0.000 A 
ATOM     31  C   UNL     1      -1.519   1.575  -1.096  0.00  0.00    +0.001 A 
ATOM     32  C   UNL     1      -1.516   2.935  -0.854  0.00  0.00    +0.020 A 
ATOM     33  C   UNL     1      -0.320   3.595  -0.634  0.00  0.00    +0.043 A 
ATOM     34 CL   UNL     1      -0.314   5.306  -0.336  0.00  0.00    -0.083 Cl
ENDBRANCH  26  28
ENDBRANCH  23  26
ENDBRANCH  22  23
ENDBRANCH   2  22
TORSDOF 10
