REMARK  Name = ZINC42014301
REMARK  3 active torsions:
REMARK  status: ('A' for Active; 'I' for Inactive)
REMARK    1  A    between atoms: C_4  and  N_19
REMARK    2  A    between atoms: C_5  and  C_7
REMARK    3  A    between atoms: N_11  and  C_12
REMARK                            x       y       z     vdW  Elec       q    Type
REMARK                         _______ _______ _______ _____ _____    ______ ____
ROOT
ATOM      1  C   UNL     1       1.243  -2.162  -0.063  0.00  0.00    +0.189 A 
ATOM      2  N   UNL     1       2.312  -2.927  -0.146  0.00  0.00    -0.108 NA
ATOM      3  N   UNL     1       1.986  -4.166  -0.073  0.00  0.00    -0.022 NA
ATOM      4  N   UNL     1       0.711  -4.292   0.060  0.00  0.00    -0.039 NA
ATOM      5  N   UNL     1       0.171  -2.994   0.079  0.00  0.00    -0.193 N 
ENDROOT
BRANCH   5   6
ATOM      6  C   UNL     1      -1.177  -2.633   0.212  0.00  0.00    +0.069 A 
ATOM      7  C   UNL     1      -1.980  -3.275   1.145  0.00  0.00    +0.029 A 
ATOM      8  C   UNL     1      -3.308  -2.918   1.274  0.00  0.00    +0.017 A 
ATOM      9  C   UNL     1      -3.838  -1.921   0.473  0.00  0.00    +0.018 A 
ATOM     10  C   UNL     1      -3.040  -1.281  -0.458  0.00  0.00    +0.017 A 
ATOM     11  C   UNL     1      -1.710  -1.630  -0.586  0.00  0.00    +0.029 A 
ATOM     12 BR   UNL     1      -5.657  -1.435   0.652  0.00  0.00    -0.050 Br
ENDBRANCH   5   6
BRANCH   1  17
ATOM     13  C   UNL     1       0.465   1.408   0.804  0.00  0.00    +0.001 A 
ATOM     14  C   UNL     1       1.149   2.087  -0.190  0.00  0.00    +0.002 A 
ATOM     15  C   UNL     1       1.865   1.392  -1.145  0.00  0.00    +0.023 A 
ATOM     16  C   UNL     1       1.903   0.005  -1.112  0.00  0.00    +0.035 A 
ATOM     17  C   UNL     1       1.211  -0.685  -0.107  0.00  0.00    +0.042 A 
ATOM     18  C   UNL     1       0.492   0.030   0.851  0.00  0.00    +0.013 A 
BRANCH  16  19
ATOM     19  N   UNL     1       2.623  -0.698  -2.075  0.00  0.00    -0.357 N 
ATOM     20  H   UNL     1       3.101  -0.219  -2.769  0.00  0.00    +0.142 HD
ATOM     21  H   UNL     1       2.648  -1.668  -2.050  0.00  0.00    +0.142 HD
ENDBRANCH  16  19
ENDBRANCH   1  17
TORSDOF 3
