REMARK  Name = ZINC04262779
REMARK  5 active torsions:
REMARK  status: ('A' for Active; 'I' for Inactive)
REMARK    1  A    between atoms: C_1  and  C_2
REMARK    2  A    between atoms: C_10  and  C_18
REMARK    3  A    between atoms: C_12  and  C_16
REMARK    4  A    between atoms: C_13  and  N_15
REMARK    5  A    between atoms: C_21  and  N_24
REMARK                            x       y       z     vdW  Elec       q    Type
REMARK                         _______ _______ _______ _____ _____    ______ ____
ROOT
ATOM      1  C   UNL     1       5.461   2.391   4.732  0.00  0.00    +0.063 C 
ATOM      2  C   UNL     1       4.694   2.049   3.481  0.00  0.00    +0.019 A 
ATOM      3  C   UNL     1       5.056   2.596   2.311  0.00  0.00    +0.067 A 
ATOM      4  C   UNL     1       4.343   2.283   1.135  0.00  0.00    +0.141 A 
ATOM      5  C   UNL     1       3.280   1.412   1.211  0.00  0.00    +0.072 A 
ATOM      6  C   UNL     1       2.939   0.862   2.454  0.00  0.00    +0.257 A 
ATOM      7  O   UNL     1       2.000   0.086   2.540  0.00  0.00    -0.267 OA
ATOM      8  N   UNL     1       3.645   1.188   3.552  0.00  0.00    -0.326 N 
ATOM      9  H   UNL     1       3.401   0.802   4.408  0.00  0.00    +0.169 HD
ATOM     10  C   UNL     1       2.490   1.048  -0.016  0.00  0.00    +0.103 C 
ATOM     11  C   UNL     1       3.257   1.424  -1.253  0.00  0.00    +0.098 C 
ATOM     12  C   UNL     1       4.302   2.283  -1.197  0.00  0.00    +0.199 C 
ATOM     13  O   UNL     1       4.706   2.837  -0.041  0.00  0.00    -0.441 OA
ENDROOT
BRANCH  10  14
ATOM     14  C   UNL     1       1.175   1.783   0.000  0.00  0.00    -0.034 A 
ATOM     15  C   UNL     1      -0.013   1.076   0.008  0.00  0.00    +0.007 A 
ATOM     16  C   UNL     1      -1.219   1.751   0.017  0.00  0.00    +0.033 A 
ATOM     17  C   UNL     1      -1.238   3.133   0.029  0.00  0.00    +0.126 A 
ATOM     18  C   UNL     1      -0.050   3.840   0.022  0.00  0.00    +0.033 A 
ATOM     19  C   UNL     1       1.156   3.165   0.008  0.00  0.00    +0.007 A 
BRANCH  17  20
ATOM     20  N   UNL     1      -2.529   3.855   0.044  0.00  0.00    +0.056 N 
ATOM     21  O   UNL     1      -2.546   5.073   0.050  0.00  0.00    -0.126 OA
ATOM     22  O   UNL     1      -3.576   3.232   0.050  0.00  0.00    -0.126 OA
ENDBRANCH  17  20
ENDBRANCH  10  14
BRANCH  12  23
ATOM     23  N   UNL     1       4.970   2.596  -2.355  0.00  0.00    -0.328 N 
ATOM     24  H   UNL     1       4.691   2.203  -3.197  0.00  0.00    +0.145 HD
ATOM     25  H   UNL     1       5.721   3.209  -2.331  0.00  0.00    +0.145 HD
ENDBRANCH  12  23
BRANCH  11  26
ATOM     26  C   UNL     1       2.874   0.865  -2.514  0.00  0.00    +0.101 C 
ATOM     27  N   UNL     1       2.570   0.421  -3.515  0.00  0.00    -0.191 NA
ENDBRANCH  11  26
TORSDOF 4
