REMARK  Name = ZINC08615349
REMARK  5 active torsions:
REMARK  status: ('A' for Active; 'I' for Inactive)
REMARK    1  A    between atoms: C_1  and  C_2
REMARK    2  A    between atoms: C_2  and  S_3
REMARK    3  A    between atoms: S_3  and  C_4
REMARK    4  A    between atoms: C_8  and  S_10
REMARK    5  A    between atoms: S_10  and  C_11
REMARK                            x       y       z     vdW  Elec       q    Type
REMARK                         _______ _______ _______ _____ _____    ______ ____
ROOT
ATOM      1  C   UNL     1      -0.953   3.925   0.028  0.00  0.00    +0.136 A 
ATOM      2  C   UNL     1      -1.849   5.008   0.038  0.00  0.00    +0.140 A 
ATOM      3  C   UNL     1      -1.319   6.310   0.043  0.00  0.00    +0.164 A 
ATOM      4  N   UNL     1      -2.398   7.157   0.052  0.00  0.00    -0.329 N 
ATOM      5  H   UNL     1      -2.366   8.157   0.058  0.00  0.00    +0.168 HD
ATOM      6  C   UNL     1      -3.524   6.386   0.054  0.00  0.00    +0.198 A 
ATOM      7  N   UNL     1      -3.199   5.126   0.045  0.00  0.00    -0.232 NA
ATOM      8  N   UNL     1      -0.000   6.472   0.037  0.00  0.00    -0.195 NA
ATOM      9  C   UNL     1       0.807   5.424   0.027  0.00  0.00    +0.216 A 
ATOM     10  N   UNL     1       0.351   4.178   0.029  0.00  0.00    -0.206 NA
ATOM     11  N   UNL     1       2.177   5.635   0.021  0.00  0.00    -0.327 N 
ATOM     12  H   UNL     1       2.528   6.539   0.024  0.00  0.00    +0.145 HD
ATOM     13  H   UNL     1       2.784   4.879   0.014  0.00  0.00    +0.145 HD
ENDROOT
BRANCH   1  14
ATOM     14  S   UNL     1      -1.547   2.266   0.022  0.00  0.00    -0.047 S 
BRANCH  14  19
ATOM     15  C   UNL     1       2.289   1.400  -0.012  0.00  0.00    +0.189 A 
ATOM     16  N   UNL     1       2.337   0.075  -0.020  0.00  0.00    -0.229 NA
ATOM     17  C   UNL     1       1.226  -0.647  -0.013  0.00  0.00    +0.131 A 
ATOM     18  C   UNL     1       0.002  -0.004   0.002  0.00  0.00    +0.068 A 
ATOM     19  C   UNL     1      -0.017   1.393   0.010  0.00  0.00    +0.121 A 
ATOM     20  N   UNL     1       1.137   2.054   0.002  0.00  0.00    -0.214 NA
ATOM     21 BR   UNL     1      -1.610  -0.993   0.013  0.00  0.00    -0.046 Br
BRANCH  15  22
ATOM     22  S   UNL     1       3.795   2.314  -0.022  0.00  0.00    -0.086 S 
BRANCH  22  24
ATOM     23  C   UNL     1       6.409   1.521  -0.051  0.00  0.00    +0.016 C 
ATOM     24  C   UNL     1       4.988   0.953  -0.041  0.00  0.00    +0.074 C 
ENDBRANCH  22  24
ENDBRANCH  15  22
ENDBRANCH  14  19
ENDBRANCH   1  14
TORSDOF 4
