REMARK  Name = ZINC39678889
REMARK  13 active torsions:
REMARK  status: ('A' for Active; 'I' for Inactive)
REMARK    1  A    between atoms: C_1  and  N_2
REMARK    2  A    between atoms: N_2  and  C_3
REMARK    3  A    between atoms: N_2  and  C_4
REMARK    4  A    between atoms: C_4  and  C_5
REMARK    5  A    between atoms: C_5  and  C_6
REMARK    6  A    between atoms: C_6  and  C_7
REMARK    7  A    between atoms: C_7  and  N_8
REMARK    8  A    between atoms: C_9  and  C_11
REMARK    9  A    between atoms: C_22  and  C_24
REMARK   10  A    between atoms: C_26  and  O_32
REMARK   11  A    between atoms: C_28  and  O_30
REMARK   12  A    between atoms: O_30  and  C_31
REMARK   13  A    between atoms: O_32  and  C_33
REMARK                            x       y       z     vdW  Elec       q    Type
REMARK                         _______ _______ _______ _____ _____    ______ ____
ROOT
ATOM      1  C   UNL     1      -6.483  -6.423  -0.284  0.00  0.00    +0.100 C 
ATOM      2  C   UNL     1      -6.975  -5.715  -1.566  0.00  0.00    +0.121 C 
ATOM      3  N   UNL     1      -6.807  -6.724  -2.639  0.00  0.00    -0.296 N 
ATOM      4  C   UNL     1      -7.209  -8.003  -2.007  0.00  0.00    +0.115 C 
ATOM      5  C   UNL     1      -6.642  -7.924  -0.576  0.00  0.00    -0.004 C 
ATOM      6  C   UNL     1      -7.616  -8.555   0.414  0.00  0.00    -0.010 C 
ATOM      7  C   UNL     1      -7.713 -10.059   0.141  0.00  0.00    -0.082 C 
ATOM      8  N   UNL     1      -6.385 -10.669   0.275  0.00  0.00    +0.379 N 
ATOM      9  C   UNL     1      -5.478 -10.123  -0.743  0.00  0.00    -0.082 C 
ATOM     10  C   UNL     1      -5.287  -8.622  -0.507  0.00  0.00    -0.010 C 
ATOM     11  C   UNL     1      -6.385  -6.523  -3.903  0.00  0.00    +0.247 C 
ATOM     12  O   UNL     1      -5.969  -5.431  -4.239  0.00  0.00    -0.270 OA
ATOM     13  H   UNL     1      -6.016 -10.470   1.193  0.00  0.00    -0.086 HD
ATOM     14  H   UNL     1      -6.461 -11.668   0.154  0.00  0.00    -0.086 HD
ENDROOT
BRANCH  11  15
ATOM     15  C   UNL     1      -6.427  -7.631  -4.881  0.00  0.00    +0.044 A 
ATOM     16  C   UNL     1      -7.273  -8.720  -4.668  0.00  0.00    +0.059 A 
ATOM     17  C   UNL     1      -7.310  -9.756  -5.587  0.00  0.00    +0.124 A 
ATOM     18  C   UNL     1      -6.507  -9.712  -6.718  0.00  0.00    +0.091 A 
ATOM     19  C   UNL     1      -5.665  -8.630  -6.933  0.00  0.00    +0.124 A 
ATOM     20  C   UNL     1      -5.626  -7.588  -6.022  0.00  0.00    +0.059 A 
BRANCH  19  21
ATOM     21  O   UNL     1      -4.881  -8.592  -8.043  0.00  0.00    -0.495 OA
ATOM     22  C   UNL     1      -4.975  -9.698  -8.943  0.00  0.00    +0.277 C 
ENDBRANCH  19  21
BRANCH  17  23
ATOM     23  O   UNL     1      -8.133 -10.818  -5.380  0.00  0.00    -0.495 OA
ATOM     24  C   UNL     1      -8.121 -11.850  -6.369  0.00  0.00    +0.277 C 
ENDBRANCH  17  23
ENDBRANCH  11  15
BRANCH   1  26
ATOM     25  N   UNL     1      -4.539  -6.180   1.227  0.00  0.00    -0.315 N 
ATOM     26  C   UNL     1      -5.036  -6.089  -0.022  0.00  0.00    +0.218 C 
ATOM     27  O   UNL     1      -4.320  -5.739  -0.936  0.00  0.00    -0.275 OA
ATOM     28  H   UNL     1      -5.112  -6.460   1.958  0.00  0.00    +0.149 HD
BRANCH  25  29
ATOM     29  C   UNL     1      -3.133  -5.856   1.481  0.00  0.00    +0.104 C 
BRANCH  29  30
ATOM     30  C   UNL     1      -2.828  -6.040   2.969  0.00  0.00    +0.017 C 
BRANCH  30  31
ATOM     31  C   UNL     1      -1.360  -5.701   3.234  0.00  0.00    -0.017 C 
BRANCH  31  32
ATOM     32  C   UNL     1      -1.055  -5.884   4.722  0.00  0.00    -0.080 C 
BRANCH  32  34
ATOM     33  C   UNL     1       0.618  -5.620   6.421  0.00  0.00    -0.097 C 
ATOM     34  N   UNL     1       0.355  -5.559   4.977  0.00  0.00    +0.376 N 
ATOM     35  C   UNL     1       1.214  -6.527   4.282  0.00  0.00    -0.097 C 
ATOM     36  H   UNL     1       0.552  -4.630   4.638  0.00  0.00    -0.083 HD
ENDBRANCH  32  34
ENDBRANCH  31  32
ENDBRANCH  30  31
ENDBRANCH  29  30
ENDBRANCH  25  29
ENDBRANCH   1  26
TORSDOF 9
