REMARK  Name = ZINC03360392
REMARK  15 active torsions:
REMARK  status: ('A' for Active; 'I' for Inactive)
REMARK    1  A    between atoms: C_1  and  C_2
REMARK    2  A    between atoms: C_2  and  N_3
REMARK    3  A    between atoms: C_7  and  C_9
REMARK    4  A    between atoms: C_9  and  C_11
REMARK    5  A    between atoms: C_9  and  O_12
REMARK    6  A    between atoms: O_12  and  C_13
REMARK    7  A    between atoms: C_13  and  C_15
REMARK    8  A    between atoms: C_15  and  C_17
REMARK    9  A    between atoms: C_15  and  N_18
REMARK   10  A    between atoms: N_18  and  S_19
REMARK   11  A    between atoms: S_19  and  C_22
REMARK   12  A    between atoms: C_23  and  C_31
REMARK   13  A    between atoms: C_24  and  C_30
REMARK   14  A    between atoms: C_26  and  C_29
REMARK   15  A    between atoms: C_27  and  C_28
REMARK                            x       y       z     vdW  Elec       q    Type
REMARK                         _______ _______ _______ _____ _____    ______ ____
ROOT
ATOM      1  C   UNL     1       2.749  -7.711  -4.410  0.00  0.00    +0.182 C 
ATOM      2  C   UNL     1       2.830  -8.279  -2.992  0.00  0.00    +0.037 C 
ENDROOT
BRANCH   1   3
ATOM      3  C   UNL     1       2.138  -6.334  -4.365  0.00  0.00    +0.326 C 
ATOM      4  O   UNL     1       2.763  -5.382  -4.769  0.00  0.00    -0.249 OA
BRANCH   3   5
ATOM      5  O   UNL     1       0.899  -6.166  -3.877  0.00  0.00    -0.451 OA
BRANCH   5   6
ATOM      6  C   UNL     1       0.382  -4.834  -3.864  0.00  0.00    +0.259 C 
ATOM      7  C   UNL     1      -0.350  -4.558  -5.179  0.00  0.00    +0.062 C 
BRANCH   6  12
ATOM      8  N   UNL     1      -2.510  -2.127  -1.141  0.00  0.00    -0.299 N 
ATOM      9  C   UNL     1      -1.974  -3.333  -1.412  0.00  0.00    +0.306 C 
ATOM     10  O   UNL     1      -2.264  -4.295  -0.729  0.00  0.00    -0.252 OA
ATOM     11  N   UNL     1      -1.115  -3.472  -2.442  0.00  0.00    -0.237 N 
ATOM     12  C   UNL     1      -0.578  -4.678  -2.713  0.00  0.00    +0.261 C 
ATOM     13  O   UNL     1      -0.868  -5.638  -2.031  0.00  0.00    -0.271 OA
ATOM     14  H   UNL     1      -2.279  -1.359  -1.686  0.00  0.00    +0.150 HD
ATOM     15  H   UNL     1      -0.883  -2.704  -2.987  0.00  0.00    +0.159 HD
BRANCH   8  17
ATOM     16  C   UNL     1      -3.901  -0.518   0.067  0.00  0.00    +0.024 C 
ATOM     17  C   UNL     1      -3.444  -1.976  -0.022  0.00  0.00    +0.102 C 
ENDBRANCH   8  17
ENDBRANCH   6  12
ENDBRANCH   5   6
ENDBRANCH   3   5
ENDBRANCH   1   3
BRANCH   1  18
ATOM     18  N   UNL     1       4.096  -7.629  -4.981  0.00  0.00    -0.176 NA
ATOM     19  H   UNL     1       4.652  -6.854  -4.802  0.00  0.00    +0.149 HD
BRANCH  18  20
ATOM     20  S   UNL     1       4.669  -8.858  -5.931  0.00  0.00    +0.060 S 
ATOM     21  O   UNL     1       5.972  -8.475  -6.348  0.00  0.00    -0.153 OA
ATOM     22  O   UNL     1       4.418 -10.066  -5.227  0.00  0.00    -0.153 OA
BRANCH  20  23
ATOM     23  C   UNL     1       3.670  -8.903  -7.382  0.00  0.00    +0.112 A 
ATOM     24  C   UNL     1       3.964  -8.076  -8.450  0.00  0.00    -0.021 A 
ATOM     25  C   UNL     1       3.180  -8.112  -9.588  0.00  0.00    -0.045 A 
ATOM     26  C   UNL     1       2.103  -8.976  -9.658  0.00  0.00    +0.007 A 
ATOM     27  C   UNL     1       1.809  -9.803  -8.591  0.00  0.00    -0.045 A 
ATOM     28  C   UNL     1       2.595  -9.770  -7.454  0.00  0.00    -0.021 A 
ATOM     29  C   UNL     1       2.279 -10.676  -6.292  0.00  0.00    +0.046 C 
ATOM     30  C   UNL     1       0.634 -10.744  -8.667  0.00  0.00    +0.044 C 
ATOM     31  C   UNL     1       3.500  -7.210 -10.752  0.00  0.00    +0.044 C 
ATOM     32  C   UNL     1       5.138  -7.136  -8.373  0.00  0.00    +0.046 C 
ENDBRANCH  20  23
ENDBRANCH  18  20
ENDBRANCH   1  18
TORSDOF 8
