REMARK  Name = ZINC35354902
REMARK  6 active torsions:
REMARK  status: ('A' for Active; 'I' for Inactive)
REMARK    1  A    between atoms: C_1  and  C_2
REMARK    2  A    between atoms: C_7  and  N_10
REMARK    3  A    between atoms: N_10  and  S_11
REMARK    4  A    between atoms: S_11  and  C_14
REMARK    5  A    between atoms: C_19  and  N_20
REMARK    6  A    between atoms: N_20  and  N_21
REMARK                            x       y       z     vdW  Elec       q    Type
REMARK                         _______ _______ _______ _____ _____    ______ ____
ROOT
ATOM      1  S   UNL     1      -0.965  -4.022   1.960  0.00  0.00    +0.060 S 
ATOM      2  O   UNL     1      -2.318  -4.403   1.749  0.00  0.00    -0.153 OA
ATOM      3  O   UNL     1       0.127  -4.822   1.529  0.00  0.00    -0.153 OA
ENDROOT
BRANCH   1   4
ATOM      4  C   UNL     1      -0.770  -3.797   3.697  0.00  0.00    +0.127 A 
ATOM      5  C   UNL     1       0.284  -4.397   4.357  0.00  0.00    +0.030 A 
ATOM      6  C   UNL     1       0.438  -4.221   5.720  0.00  0.00    +0.002 A 
ATOM      7  C   UNL     1      -0.462  -3.444   6.426  0.00  0.00    +0.002 A 
ATOM      8  C   UNL     1      -1.518  -2.841   5.772  0.00  0.00    +0.026 A 
ATOM      9  C   UNL     1      -1.673  -3.012   4.402  0.00  0.00    +0.067 A 
BRANCH   9  10
ATOM     10  N   UNL     1      -2.736  -2.399   3.736  0.00  0.00    -0.281 N 
ATOM     11  H   UNL     1      -2.801  -2.456   2.769  0.00  0.00    +0.166 HD
BRANCH  10  12
ATOM     12  N   UNL     1      -3.686  -1.720   4.445  0.00  0.00    -0.256 NA
ATOM     13  H   UNL     1      -3.267  -1.000   5.014  0.00  0.00    +0.140 HD
ATOM     14  H   UNL     1      -4.388  -1.334   3.832  0.00  0.00    +0.140 HD
ENDBRANCH  10  12
ENDBRANCH   9  10
ENDBRANCH   1   4
BRANCH   1  15
ATOM     15  N   UNL     1      -0.775  -2.539   1.249  0.00  0.00    -0.187 NA
ATOM     16  H   UNL     1      -1.519  -2.124   0.786  0.00  0.00    +0.148 HD
BRANCH  15  22
ATOM     17  C   UNL     1      -0.714   1.661   0.344  0.00  0.00    +0.007 C 
ATOM     18  C   UNL     1      -0.486   0.154   0.222  0.00  0.00    -0.013 C 
ATOM     19  C   UNL     1       0.317  -0.140  -1.048  0.00  0.00    +0.003 C 
ATOM     20  C   UNL     1       0.545  -1.647  -1.170  0.00  0.00    +0.002 C 
ATOM     21  C   UNL     1       1.321  -2.146   0.051  0.00  0.00    +0.020 C 
ATOM     22  C   UNL     1       0.518  -1.853   1.320  0.00  0.00    +0.077 C 
ATOM     23  C   UNL     1       0.290  -0.345   1.442  0.00  0.00    +0.023 C 
ENDBRANCH  15  22
ENDBRANCH   1  15
TORSDOF 5
