REMARK  Name = ZINC49477409
REMARK  4 active torsions:
REMARK  status: ('A' for Active; 'I' for Inactive)
REMARK    1  A    between atoms: C_1  and  N_2
REMARK    2  A    between atoms: C_3  and  C_5
REMARK    3  A    between atoms: C_8  and  N_11
REMARK    4  A    between atoms: N_14  and  C_15
REMARK                            x       y       z     vdW  Elec       q    Type
REMARK                         _______ _______ _______ _____ _____    ______ ____
ROOT
ATOM      1  N   UNL     1      -2.542  -4.268  -2.442  0.00  0.00    -0.297 N 
ATOM      2  C   UNL     1      -3.595  -4.957  -2.927  0.00  0.00    +0.300 C 
ATOM      3  O   UNL     1      -3.956  -5.981  -2.380  0.00  0.00    -0.253 OA
ATOM      4  N   UNL     1      -4.247  -4.510  -4.019  0.00  0.00    -0.297 N 
ATOM      5  H   UNL     1      -2.254  -3.451  -2.879  0.00  0.00    +0.151 HD
ATOM      6  H   UNL     1      -3.958  -3.693  -4.456  0.00  0.00    +0.151 HD
ENDROOT
BRANCH   1  10
ATOM      7  C   UNL     1      -1.135  -2.201   0.001  0.00  0.00    +0.075 C 
ATOM      8  C   UNL     1      -0.419  -2.694  -1.258  0.00  0.00    +0.014 C 
ATOM      9  C   UNL     1      -0.399  -4.224  -1.266  0.00  0.00    +0.023 C 
ATOM     10  C   UNL     1      -1.834  -4.753  -1.255  0.00  0.00    +0.074 C 
ATOM     11  C   UNL     1      -2.550  -4.260   0.004  0.00  0.00    +0.023 C 
ATOM     12  C   UNL     1      -2.571  -2.730   0.012  0.00  0.00    +0.014 C 
BRANCH   7  15
ATOM     13  C   UNL     1      -0.018   1.461   0.010  0.00  0.00    +0.128 C 
ATOM     14  N   UNL     1       0.002  -0.004   0.002  0.00  0.00    -0.318 N 
ATOM     15  C   UNL     1      -1.156  -0.694   0.009  0.00  0.00    +0.216 C 
ATOM     16  O   UNL     1      -2.214  -0.102   0.023  0.00  0.00    -0.276 OA
ATOM     17  H   UNL     1       0.849  -0.478  -0.009  0.00  0.00    +0.148 HD
ENDBRANCH   7  15
ENDBRANCH   1  10
BRANCH   4  18
ATOM     18  C   UNL     1      -5.390  -5.258  -4.547  0.00  0.00    +0.074 C 
ATOM     19  C   UNL     1      -6.659  -4.844  -3.800  0.00  0.00    +0.022 C 
ATOM     20  C   UNL     1      -7.854  -5.625  -4.350  0.00  0.00    +0.002 C 
ATOM     21  C   UNL     1      -8.018  -5.323  -5.841  0.00  0.00    +0.000 C 
ATOM     22  C   UNL     1      -6.748  -5.738  -6.588  0.00  0.00    +0.002 C 
ATOM     23  C   UNL     1      -5.554  -4.956  -6.037  0.00  0.00    +0.022 C 
ENDBRANCH   4  18
TORSDOF 3
