REMARK  Name = ZINC39683998
REMARK  7 active torsions:
REMARK  status: ('A' for Active; 'I' for Inactive)
REMARK    1  A    between atoms: C_1  and  C_2
REMARK    2  A    between atoms: C_2  and  C_4
REMARK    3  A    between atoms: C_2  and  N_8
REMARK    4  A    between atoms: N_6  and  C_7
REMARK    5  A    between atoms: C_9  and  C_11
REMARK    6  A    between atoms: C_22  and  C_24
REMARK    7  A    between atoms: C_27  and  C_29
REMARK                            x       y       z     vdW  Elec       q    Type
REMARK                         _______ _______ _______ _____ _____    ______ ____
ROOT
ATOM      1  C   UNL     1      -3.465  -1.164  -1.134  0.00  0.00    +0.100 C 
ATOM      2  C   UNL     1      -4.361  -0.271  -0.248  0.00  0.00    +0.121 C 
ATOM      3  N   UNL     1      -4.986   0.686  -1.192  0.00  0.00    -0.294 N 
ATOM      4  C   UNL     1      -5.291  -0.128  -2.393  0.00  0.00    +0.115 C 
ATOM      5  C   UNL     1      -4.080  -1.071  -2.540  0.00  0.00    -0.004 C 
ATOM      6  C   UNL     1      -4.538  -2.449  -3.009  0.00  0.00    -0.010 C 
ATOM      7  C   UNL     1      -5.093  -2.341  -4.432  0.00  0.00    -0.082 C 
ATOM      8  N   UNL     1      -4.053  -1.817  -5.326  0.00  0.00    +0.379 N 
ATOM      9  C   UNL     1      -3.685  -0.455  -4.923  0.00  0.00    -0.082 C 
ATOM     10  C   UNL     1      -3.071  -0.483  -3.521  0.00  0.00    -0.010 C 
ATOM     11  C   UNL     1      -5.223   1.999  -1.002  0.00  0.00    +0.282 C 
ATOM     12  O   UNL     1      -5.749   2.656  -1.881  0.00  0.00    -0.267 OA
ATOM     13  H   UNL     1      -3.240  -2.412  -5.278  0.00  0.00    -0.086 HD
ATOM     14  H   UNL     1      -4.401  -1.804  -6.273  0.00  0.00    -0.086 HD
ENDROOT
BRANCH  11  15
ATOM     15  C   UNL     1      -4.848   2.635   0.263  0.00  0.00    +0.190 A 
ATOM     16  C   UNL     1      -5.038   3.960   0.590  0.00  0.00    +0.055 A 
ATOM     17  C   UNL     1      -4.537   4.132   1.884  0.00  0.00    +0.051 A 
ATOM     18  C   UNL     1      -4.065   2.919   2.297  0.00  0.00    +0.139 A 
ATOM     19  O   UNL     1      -4.262   2.024   1.315  0.00  0.00    -0.450 OA
BRANCH  18  20
ATOM     20  C   UNL     1      -3.445   2.637   3.607  0.00  0.00    +0.052 A 
ATOM     21  C   UNL     1      -2.419   3.454   4.088  0.00  0.00    +0.014 A 
ATOM     22  C   UNL     1      -1.845   3.185   5.313  0.00  0.00    +0.001 A 
ATOM     23  C   UNL     1      -2.281   2.108   6.066  0.00  0.00    +0.003 A 
ATOM     24  C   UNL     1      -3.296   1.294   5.597  0.00  0.00    +0.039 A 
ATOM     25  C   UNL     1      -3.886   1.554   4.374  0.00  0.00    +0.134 A 
ATOM     26  F   UNL     1      -4.881   0.762   3.920  0.00  0.00    -0.205 F 
ENDBRANCH  18  20
ENDBRANCH  11  15
BRANCH   1  28
ATOM     27  N   UNL     1      -1.021  -1.491  -1.337  0.00  0.00    -0.304 N 
ATOM     28  C   UNL     1      -2.051  -0.643  -1.145  0.00  0.00    +0.219 C 
ATOM     29  O   UNL     1      -1.840   0.540  -0.980  0.00  0.00    -0.275 OA
ATOM     30  H   UNL     1      -1.190  -2.437  -1.468  0.00  0.00    +0.149 HD
BRANCH  27  32
ATOM     31  C   UNL     1       0.878  -0.904   0.087  0.00  0.00    +0.038 C 
ATOM     32  C   UNL     1       0.353  -0.984  -1.347  0.00  0.00    +0.156 C 
BRANCH  32  33
ATOM     33  C   UNL     1       1.226  -1.914  -2.151  0.00  0.00    +0.233 C 
ATOM     34  O   UNL     1       0.747  -2.903  -2.664  0.00  0.00    -0.274 OA
ATOM     35  N   UNL     1       2.538  -1.646  -2.299  0.00  0.00    -0.317 N 
ATOM     36  C   UNL     1       3.387  -2.550  -3.079  0.00  0.00    +0.128 C 
ATOM     37  H   UNL     1       2.922  -0.855  -1.888  0.00  0.00    +0.148 HD
ENDBRANCH  32  33
ENDBRANCH  27  32
ENDBRANCH   1  28
TORSDOF 5
