REMARK  Name = ZINC11782952
REMARK  6 active torsions:
REMARK  status: ('A' for Active; 'I' for Inactive)
REMARK    1  A    between atoms: C_4  and  C_7
REMARK    2  A    between atoms: C_7  and  N_8
REMARK    3  A    between atoms: C_19  and  N_58
REMARK    4  A    between atoms: C_23  and  C_24
REMARK    5  A    between atoms: C_23  and  N_58
REMARK    6  A    between atoms: C_24  and  C_25
REMARK                            x       y       z     vdW  Elec       q    Type
REMARK                         _______ _______ _______ _____ _____    ______ ____
ROOT
ATOM      1  N   UNL     1      -0.698   1.558   1.213  0.00  0.00    -0.294 N 
ATOM      2  C   UNL     1      -0.336   2.746   1.762  0.00  0.00    +0.203 A 
ATOM      3  N   UNL     1      -0.926   3.204   2.834  0.00  0.00    -0.230 NA
ATOM      4  C   UNL     1      -1.896   2.514   3.427  0.00  0.00    +0.116 A 
ATOM      5  C   UNL     1      -2.336   1.275   2.937  0.00  0.00    +0.076 A 
ATOM      6  C   UNL     1      -1.671   0.804   1.757  0.00  0.00    +0.263 A 
ATOM      7  O   UNL     1      -1.982  -0.263   1.255  0.00  0.00    -0.267 OA
ATOM      8  C   UNL     1      -3.410   0.631   3.692  0.00  0.00    -0.023 A 
ATOM      9  C   UNL     1      -3.870   1.285   4.779  0.00  0.00    -0.006 A 
ATOM     10  S   UNL     1      -2.914   2.776   4.858  0.00  0.00    -0.073 S 
ATOM     11  C   UNL     1      -4.955   0.843   5.713  0.00  0.00    +0.027 C 
ATOM     12  C   UNL     1      -5.223  -0.650   5.471  0.00  0.00    -0.067 C 
ATOM     13  C   UNL     1      -5.358  -0.886   3.963  0.00  0.00    -0.011 C 
ATOM     14  C   UNL     1      -3.997  -0.718   3.287  0.00  0.00    +0.035 C 
ENDROOT
BRANCH  12  15
ATOM     15  N   UNL     1      -6.478  -1.043   6.139  0.00  0.00    +0.381 N 
ATOM     16  H   UNL     1      -6.875  -1.861   5.662  0.00  0.00    -0.086 HD
ATOM     17  H   UNL     1      -7.145  -0.263   6.094  0.00  0.00    -0.086 HD
BRANCH  15  18
ATOM     18  C   UNL     1      -6.221  -1.381   7.552  0.00  0.00    -0.078 C 
BRANCH  18  19
ATOM     19  C   UNL     1      -7.538  -1.784   8.219  0.00  0.00    +0.011 C 
BRANCH  19  20
ATOM     20  C   UNL     1      -7.284  -2.132   9.663  0.00  0.00    -0.075 C 
ATOM     21  C   UNL     1      -7.462  -1.207  10.550  0.00  0.00    -0.028 C 
ATOM     22  C   UNL     1      -7.240  -1.399  12.022  0.00  0.00    +0.027 C 
ATOM     23  C   UNL     1      -7.200  -2.892  12.358  0.00  0.00    +0.004 C 
ATOM     24  C   UNL     1      -6.235  -3.582  11.387  0.00  0.00    +0.005 C 
ATOM     25  C   UNL     1      -6.846  -3.531   9.983  0.00  0.00    +0.030 C 
ENDBRANCH  19  20
ENDBRANCH  18  19
ENDBRANCH  15  18
ENDBRANCH  12  15
BRANCH   1  26
ATOM     26  C   UNL     1      -0.013   1.086   0.008  0.00  0.00    +0.161 C 
BRANCH  26  30
ATOM     27  C   UNL     1      -2.078   2.501  -3.453  0.00  0.00    +0.000 A 
ATOM     28  C   UNL     1      -1.066   3.259  -2.894  0.00  0.00    +0.000 A 
ATOM     29  C   UNL     1      -0.398   2.801  -1.774  0.00  0.00    +0.005 A 
ATOM     30  C   UNL     1      -0.742   1.585  -1.213  0.00  0.00    -0.028 A 
ATOM     31  C   UNL     1      -1.750   0.825  -1.775  0.00  0.00    +0.005 A 
ATOM     32  C   UNL     1      -2.422   1.285  -2.892  0.00  0.00    +0.000 A 
ENDBRANCH  26  30
ENDBRANCH   1  26
TORSDOF 6
