REMARK  Name = ZINC07128510
REMARK  4 active torsions:
REMARK  status: ('A' for Active; 'I' for Inactive)
REMARK    1  A    between atoms: C_1  and  C_2
REMARK    2  A    between atoms: C_15  and  C_17
REMARK    3  A    between atoms: C_17  and  S_18
REMARK    4  A    between atoms: S_18  and  C_19
REMARK                            x       y       z     vdW  Elec       q    Type
REMARK                         _______ _______ _______ _____ _____    ______ ____
ROOT
ATOM      1  C   UNL     1      -0.868   5.851  -2.271  0.00  0.00    +0.029 C 
ATOM      2  C   UNL     1       0.303   5.916  -1.289  0.00  0.00    +0.087 C 
ATOM      3  C   UNL     1       1.521   5.225  -1.904  0.00  0.00    +0.118 C 
ATOM      4  C   UNL     1       2.540   4.924  -0.836  0.00  0.00    +0.219 C 
ATOM      5  O   UNL     1       3.541   5.604  -0.750  0.00  0.00    -0.275 OA
ATOM      6  N   UNL     1       2.347   3.902   0.026  0.00  0.00    -0.284 N 
ATOM      7  C   UNL     1       1.157   3.166   0.000  0.00  0.00    +0.055 A 
ATOM      8  C   UNL     1       1.177   1.781   0.000  0.00  0.00    +0.025 A 
ATOM      9  C   UNL     1      -0.013   1.076   0.008  0.00  0.00    +0.002 A 
ATOM     10  C   UNL     1      -1.221   1.748   0.017  0.00  0.00    +0.002 A 
ATOM     11  C   UNL     1      -1.249   3.131   0.021  0.00  0.00    +0.025 A 
ATOM     12  C   UNL     1      -0.062   3.845  -0.001  0.00  0.00    +0.058 A 
ATOM     13  N   UNL     1      -0.072   5.246  -0.042  0.00  0.00    -0.266 N 
ATOM     14  C   UNL     1      -0.420   5.962   1.045  0.00  0.00    +0.230 C 
ATOM     15  O   UNL     1      -0.424   7.174   0.996  0.00  0.00    -0.274 OA
ATOM     16  H   UNL     1       3.039   3.676   0.667  0.00  0.00    +0.155 HD
ENDROOT
BRANCH  14  17
ATOM     17  C   UNL     1      -0.803   5.258   2.321  0.00  0.00    +0.172 C 
BRANCH  17  18
ATOM     18  S   UNL     1      -1.216   6.487   3.589  0.00  0.00    -0.088 S 
BRANCH  18  19
ATOM     19  C   UNL     1      -1.636   5.519   5.000  0.00  0.00    +0.160 A 
ATOM     20  N   UNL     1      -1.657   4.207   5.137  0.00  0.00    -0.133 NA
ATOM     21  N   UNL     1      -2.020   3.651   6.342  0.00  0.00    -0.125 NA
ATOM     22  C   UNL     1      -2.346   4.431   7.354  0.00  0.00    +0.180 A 
ATOM     23  S   UNL     1      -2.141   6.051   6.629  0.00  0.00    -0.025 S 
ATOM     24  N   UNL     1      -2.738   4.086   8.642  0.00  0.00    -0.336 N 
ATOM     25  H   UNL     1      -2.801   3.152   8.896  0.00  0.00    +0.144 HD
ATOM     26  H   UNL     1      -2.949   4.779   9.287  0.00  0.00    +0.144 HD
ENDBRANCH  18  19
ENDBRANCH  17  18
ENDBRANCH  14  17
TORSDOF 3
