REMARK  Name = ZINC14671827
REMARK  4 active torsions:
REMARK  status: ('A' for Active; 'I' for Inactive)
REMARK    1  A    between atoms: C_1  and  C_2
REMARK    2  A    between atoms: C_5  and  C_31
REMARK    3  A    between atoms: C_5  and  C_32
REMARK    4  A    between atoms: N_16  and  C_21
REMARK                            x       y       z     vdW  Elec       q    Type
REMARK                         _______ _______ _______ _____ _____    ______ ____
ROOT
ATOM      1  C   UNL     1      -1.778  -0.361   2.251  0.00  0.00    +0.012 C 
ATOM      2  C   UNL     1      -0.728   0.631   1.748  0.00  0.00    +0.020 C 
ATOM      3  C   UNL     1       0.382   0.772   2.795  0.00  0.00    +0.033 C 
ATOM      4  C   UNL     1       1.446   1.790   2.369  0.00  0.00    +0.037 C 
ATOM      5  N   UNL     1       0.780   3.077   2.107  0.00  0.00    -0.262 N 
ATOM      6  C   UNL     1      -0.567   3.088   1.706  0.00  0.00    +0.047 A 
ATOM      7  C   UNL     1      -1.376   1.969   1.511  0.00  0.00    -0.023 A 
ATOM      8  C   UNL     1      -2.679   2.148   1.123  0.00  0.00    +0.006 A 
ATOM      9  C   UNL     1      -3.162   3.435   0.930  0.00  0.00    +0.001 A 
ATOM     10  C   UNL     1      -2.349   4.541   1.120  0.00  0.00    +0.009 A 
ATOM     11  C   UNL     1      -1.038   4.370   1.509  0.00  0.00    +0.017 A 
ATOM     12  C   UNL     1       0.134   5.249   1.810  0.00  0.00    +0.193 C 
ATOM     13  C   UNL     1       1.260   4.326   2.190  0.00  0.00    +0.259 C 
ATOM     14  O   UNL     1       2.385   4.649   2.510  0.00  0.00    -0.272 OA
ATOM     15  N   UNL     1       0.481   6.154   0.720  0.00  0.00    -0.243 N 
ATOM     16  C   UNL     1       0.187   7.447   0.840  0.00  0.00    +0.231 C 
ATOM     17  O   UNL     1       0.466   8.241  -0.034  0.00  0.00    -0.274 OA
ATOM     18  C   UNL     1      -0.512   7.892   2.117  0.00  0.00    +0.168 C 
ATOM     19  S   UNL     1      -0.243   6.407   3.182  0.00  0.00    -0.111 S 
ATOM     20  C   UNL     1       2.145   1.304   1.098  0.00  0.00    +0.032 C 
ATOM     21  C   UNL     1       2.474   1.961   3.489  0.00  0.00    +0.032 C 
ENDROOT
BRANCH  15  22
ATOM     22  C   UNL     1       1.113   5.671  -0.434  0.00  0.00    +0.042 A 
ATOM     23  C   UNL     1       0.356   5.134  -1.467  0.00  0.00    +0.027 A 
ATOM     24  C   UNL     1       0.978   4.660  -2.606  0.00  0.00    +0.051 A 
ATOM     25  C   UNL     1       2.360   4.711  -2.718  0.00  0.00    +0.162 A 
ATOM     26  C   UNL     1       3.120   5.246  -1.685  0.00  0.00    +0.164 A 
ATOM     27  C   UNL     1       2.495   5.724  -0.543  0.00  0.00    +0.073 A 
ATOM     28  O   UNL     1       4.476   5.312  -1.780  0.00  0.00    -0.485 OA
ATOM     29  C   UNL     1       5.093   4.487  -2.774  0.00  0.00    +0.270 C 
ATOM     30  C   UNL     1       4.306   4.641  -4.083  0.00  0.00    +0.270 C 
ATOM     31  O   UNL     1       2.955   4.231  -3.844  0.00  0.00    -0.485 OA
ENDBRANCH  15  22
TORSDOF 1
