REMARK  Name = ZINC09583947
REMARK  13 active torsions:
REMARK  status: ('A' for Active; 'I' for Inactive)
REMARK    1  A    between atoms: C_1  and  C_2
REMARK    2  A    between atoms: C_2  and  C_3
REMARK    3  A    between atoms: C_3  and  N_4
REMARK    4  A    between atoms: C_7  and  O_37
REMARK    5  A    between atoms: C_8  and  O_35
REMARK    6  A    between atoms: N_13  and  C_14
REMARK    7  A    between atoms: C_14  and  C_16
REMARK    8  A    between atoms: C_19  and  S_22
REMARK    9  A    between atoms: S_22  and  N_25
REMARK   10  A    between atoms: C_27  and  C_34
REMARK   11  A    between atoms: C_30  and  C_33
REMARK   12  A    between atoms: O_35  and  C_36
REMARK   13  A    between atoms: O_37  and  C_38
REMARK                            x       y       z     vdW  Elec       q    Type
REMARK                         _______ _______ _______ _____ _____    ______ ____
ROOT
ATOM      1  C   UNL     1      -7.630   1.421   0.101  0.00  0.00    +0.269 C 
ATOM      2  O   UNL     1      -8.152   1.103   1.155  0.00  0.00    -0.268 OA
ENDROOT
BRANCH   1  12
ATOM      3  N   UNL     1     -10.095   0.014  -2.127  0.00  0.00    -0.321 N 
ATOM      4  C   UNL     1     -11.274  -0.684  -1.930  0.00  0.00    +0.061 A 
ATOM      5  C   UNL     1     -12.157  -1.188  -2.898  0.00  0.00    +0.076 A 
ATOM      6  C   UNL     1     -13.300  -1.862  -2.527  0.00  0.00    +0.164 A 
ATOM      7  C   UNL     1     -13.613  -2.061  -1.183  0.00  0.00    +0.163 A 
ATOM      8  C   UNL     1     -12.755  -1.571  -0.211  0.00  0.00    +0.066 A 
ATOM      9  C   UNL     1     -11.614  -0.900  -0.587  0.00  0.00    +0.043 A 
ATOM     10  S   UNL     1     -10.282  -0.132   0.300  0.00  0.00    -0.052 S 
ATOM     11  C   UNL     1      -9.360   0.424  -1.059  0.00  0.00    +0.167 A 
ATOM     12  N   UNL     1      -8.212   1.095  -1.057  0.00  0.00    -0.152 NA
BRANCH   7  13
ATOM     13  O   UNL     1     -14.746  -2.727  -0.831  0.00  0.00    -0.491 OA
ATOM     14  C   UNL     1     -14.995  -2.889   0.567  0.00  0.00    +0.277 C 
ENDBRANCH   7  13
BRANCH   6  15
ATOM     15  O   UNL     1     -14.138  -2.339  -3.487  0.00  0.00    -0.491 OA
ATOM     16  C   UNL     1     -13.766  -2.105  -4.847  0.00  0.00    +0.277 C 
ENDBRANCH   6  15
BRANCH   3  17
ATOM     17  C   UNL     1      -9.637   0.308  -3.487  0.00  0.00    +0.124 C 
BRANCH  17  19
ATOM     18  C   UNL     1      -8.638   2.060  -4.962  0.00  0.00    +0.005 C 
ATOM     19  C   UNL     1      -8.987   1.693  -3.518  0.00  0.00    +0.018 C 
ENDBRANCH  17  19
ENDBRANCH   3  17
ENDBRANCH   1  12
BRANCH   1  20
ATOM     20  C   UNL     1      -6.352   2.169   0.103  0.00  0.00    +0.039 A 
ATOM     21  C   UNL     1      -5.742   2.510   1.310  0.00  0.00    +0.015 A 
ATOM     22  C   UNL     1      -4.551   3.206   1.305  0.00  0.00    +0.029 A 
ATOM     23  C   UNL     1      -3.961   3.566   0.106  0.00  0.00    +0.106 A 
ATOM     24  C   UNL     1      -4.564   3.235  -1.094  0.00  0.00    +0.029 A 
ATOM     25  C   UNL     1      -5.753   2.534  -1.103  0.00  0.00    +0.015 A 
BRANCH  23  26
ATOM     26  S   UNL     1      -2.440   4.456   0.109  0.00  0.00    +0.061 S 
ATOM     27  O   UNL     1      -2.362   5.124   1.360  0.00  0.00    -0.153 OA
ATOM     28  O   UNL     1      -2.373   5.148  -1.130  0.00  0.00    -0.153 OA
BRANCH  26  29
ATOM     29  N   UNL     1      -1.219   3.337   0.092  0.00  0.00    -0.176 NA
ATOM     30  C   UNL     1      -0.672   2.844  -1.179  0.00  0.00    +0.112 C 
ATOM     31  C   UNL     1      -0.730   1.314  -1.180  0.00  0.00    +0.002 C 
ATOM     32  C   UNL     1      -0.012   0.779   0.062  0.00  0.00    +0.009 C 
ATOM     33  C   UNL     1      -0.720   1.288   1.320  0.00  0.00    +0.002 C 
ATOM     34  C   UNL     1      -0.662   2.819   1.349  0.00  0.00    +0.112 C 
ATOM     35  C   UNL     1      -2.180   0.833   1.304  0.00  0.00    +0.009 C 
ATOM     36  C   UNL     1      -0.042   0.777  -2.437  0.00  0.00    +0.009 C 
ENDBRANCH  26  29
ENDBRANCH  23  26
ENDBRANCH   1  20
TORSDOF 8
