REMARK  Name = ZINC35378947
REMARK  9 active torsions:
REMARK  status: ('A' for Active; 'I' for Inactive)
REMARK    1  A    between atoms: C_1  and  C_2
REMARK    2  A    between atoms: C_7  and  S_8
REMARK    3  A    between atoms: S_8  and  N_11
REMARK    4  A    between atoms: C_15  and  C_18
REMARK    5  A    between atoms: N_20  and  C_21
REMARK    6  A    between atoms: C_22  and  O_30
REMARK    7  A    between atoms: C_24  and  O_28
REMARK    8  A    between atoms: O_28  and  C_29
REMARK    9  A    between atoms: O_30  and  C_31
REMARK                            x       y       z     vdW  Elec       q    Type
REMARK                         _______ _______ _______ _____ _____    ______ ____
ROOT
ATOM      1  N   UNL     1       4.090   0.969   4.163  0.00  0.00    -0.176 NA
ATOM      2  C   UNL     1       4.166   1.012   5.629  0.00  0.00    +0.109 C 
ATOM      3  C   UNL     1       3.186   2.072   6.143  0.00  0.00    +0.018 C 
ATOM      4  C   UNL     1       3.482   3.408   5.459  0.00  0.00    +0.015 C 
ATOM      5  C   UNL     1       3.289   3.264   3.947  0.00  0.00    +0.091 C 
ATOM      6  C   UNL     1       4.276   2.216   3.409  0.00  0.00    +0.122 C 
ENDROOT
BRANCH   5   7
ATOM      7  C   UNL     1       3.549   4.589   3.278  0.00  0.00    +0.222 C 
ATOM      8  O   UNL     1       4.430   4.688   2.450  0.00  0.00    -0.275 OA
ATOM      9  N   UNL     1       2.803   5.664   3.600  0.00  0.00    -0.281 N 
ATOM     10  H   UNL     1       2.054   5.570   4.209  0.00  0.00    +0.155 HD
BRANCH   9  11
ATOM     11  C   UNL     1       3.110   6.920   3.054  0.00  0.00    +0.094 A 
ATOM     12  C   UNL     1       2.542   7.311   1.843  0.00  0.00    +0.146 A 
ATOM     13  C   UNL     1       2.847   8.551   1.307  0.00  0.00    +0.093 A 
ATOM     14  C   UNL     1       3.715   9.402   1.975  0.00  0.00    +0.125 A 
ATOM     15  C   UNL     1       4.279   9.011   3.180  0.00  0.00    +0.067 A 
ATOM     16  C   UNL     1       3.974   7.776   3.722  0.00  0.00    +0.069 A 
ATOM     17 CL   UNL     1       4.677   7.293   5.234  0.00  0.00    -0.081 Cl
BRANCH  14  18
ATOM     18  O   UNL     1       4.014  10.619   1.448  0.00  0.00    -0.495 OA
ATOM     19  C   UNL     1       4.915  11.443   2.189  0.00  0.00    +0.277 C 
ENDBRANCH  14  18
BRANCH  12  20
ATOM     20  O   UNL     1       1.692   6.476   1.189  0.00  0.00    -0.493 OA
ATOM     21  C   UNL     1       1.148   6.943  -0.047  0.00  0.00    +0.277 C 
ENDBRANCH  12  20
ENDBRANCH   9  11
ENDBRANCH   5   7
BRANCH   1  22
ATOM     22  S   UNL     1       3.808  -0.460   3.374  0.00  0.00    +0.061 S 
ATOM     23  O   UNL     1       3.254  -0.123   2.109  0.00  0.00    -0.153 OA
ATOM     24  O   UNL     1       3.140  -1.308   4.297  0.00  0.00    -0.153 OA
BRANCH  22  31
ATOM     25  C   UNL     1       5.898   0.728   1.546  0.00  0.00    +0.046 C 
ATOM     26  C   UNL     1       6.269  -0.577   2.202  0.00  0.00    -0.022 A 
ATOM     27  C   UNL     1       7.505  -1.147   1.953  0.00  0.00    +0.032 A 
ATOM     28  C   UNL     1       7.844  -2.346   2.556  0.00  0.00    +0.076 A 
ATOM     29  C   UNL     1       6.941  -2.975   3.413  0.00  0.00    +0.144 A 
ATOM     30  C   UNL     1       5.708  -2.398   3.659  0.00  0.00    +0.076 A 
ATOM     31  C   UNL     1       5.377  -1.198   3.056  0.00  0.00    +0.112 A 
ATOM     32  O   UNL     1       7.284  -4.154   3.997  0.00  0.00    -0.481 OA
ATOM     33  C   UNL     1       8.129  -5.025   3.240  0.00  0.00    +0.325 C 
ATOM     34  C   UNL     1       9.273  -4.237   2.653  0.00  0.00    +0.255 C 
ATOM     35  O   UNL     1      10.352  -4.764   2.484  0.00  0.00    -0.272 OA
ATOM     36  N   UNL     1       9.091  -2.941   2.317  0.00  0.00    -0.280 N 
ATOM     37  H   UNL     1       9.811  -2.431   1.916  0.00  0.00    +0.155 HD
ENDBRANCH  22  31
ENDBRANCH   1  22
TORSDOF 6
