REMARK  Name = ZINC17086539
REMARK  2 active torsions:
REMARK  status: ('A' for Active; 'I' for Inactive)
REMARK    1  A    between atoms: C_7  and  C_12
REMARK    2  A    between atoms: N_19  and  C_22
REMARK                            x       y       z     vdW  Elec       q    Type
REMARK                         _______ _______ _______ _____ _____    ______ ____
ROOT
ATOM      1  C   UNL     1       0.763   4.322   1.407  0.00  0.00    +0.126 A 
ATOM      2  C   UNL     1       0.977   3.516   2.539  0.00  0.00    +0.265 A 
ATOM      3  O   UNL     1       0.363   2.471   2.673  0.00  0.00    -0.267 OA
ATOM      4  N   UNL     1       1.864   3.906   3.475  0.00  0.00    -0.274 N 
ATOM      5  H   UNL     1       2.030   3.275   4.361  0.00  0.00    +0.173 HD
ATOM      6  C   UNL     1       2.544   5.058   3.333  0.00  0.00    +0.337 A 
ATOM      7  O   UNL     1       3.341   5.393   4.189  0.00  0.00    -0.246 OA
ATOM      8  N   UNL     1       2.357   5.845   2.258  0.00  0.00    -0.229 N 
ATOM      9  C   UNL     1       1.465   5.483   1.278  0.00  0.00    +0.272 A 
ATOM     10  O   UNL     1       1.283   6.272   0.198  0.00  0.00    -0.267 OA
ENDROOT
BRANCH   1  17
ATOM     11  C   UNL     1      -3.697   4.445   1.941  0.00  0.00    +0.000 A 
ATOM     12  C   UNL     1      -4.141   3.141   1.806  0.00  0.00    +0.001 A 
ATOM     13  C   UNL     1      -3.330   2.185   1.230  0.00  0.00    +0.015 A 
ATOM     14  C   UNL     1      -2.055   2.536   0.782  0.00  0.00    +0.066 A 
ATOM     15  C   UNL     1      -1.615   3.855   0.927  0.00  0.00    +0.012 A 
ATOM     16  C   UNL     1      -2.431   4.799   1.507  0.00  0.00    +0.008 A 
ATOM     17  C   UNL     1      -0.224   3.904   0.347  0.00  0.00    +0.248 C 
ATOM     18  O   UNL     1       0.077   2.558  -0.113  0.00  0.00    -0.448 OA
ATOM     19  C   UNL     1      -0.977   1.764   0.139  0.00  0.00    +0.340 C 
ATOM     20  O   UNL     1      -1.034   0.580  -0.129  0.00  0.00    -0.245 OA
ENDBRANCH   1  17
BRANCH   8  21
ATOM     21  C   UNL     1       3.079   7.040   2.135  0.00  0.00    +0.054 A 
ATOM     22  C   UNL     1       2.557   8.223   2.642  0.00  0.00    +0.027 A 
ATOM     23  C   UNL     1       3.273   9.398   2.524  0.00  0.00    +0.017 A 
ATOM     24  C   UNL     1       4.504   9.399   1.893  0.00  0.00    +0.018 A 
ATOM     25  C   UNL     1       5.024   8.223   1.382  0.00  0.00    +0.017 A 
ATOM     26  C   UNL     1       4.314   7.044   1.502  0.00  0.00    +0.027 A 
ATOM     27 BR   UNL     1       5.479  11.011   1.728  0.00  0.00    -0.050 Br
ENDBRANCH   8  21
TORSDOF 2
