REMARK  Name = ZINC67388296
REMARK  10 active torsions:
REMARK  status: ('A' for Active; 'I' for Inactive)
REMARK    1  A    between atoms: C_1  and  C_2
REMARK    2  A    between atoms: N_5  and  C_11
REMARK    3  A    between atoms: C_7  and  C_10
REMARK    4  A    between atoms: C_11  and  C_12
REMARK    5  A    between atoms: C_12  and  C_13
REMARK    6  A    between atoms: C_13  and  N_14
REMARK    7  A    between atoms: N_17  and  N_18
REMARK    8  A    between atoms: C_19  and  C_21
REMARK    9  A    between atoms: C_21  and  C_22
REMARK   10  A    between atoms: C_22  and  C_23
REMARK                            x       y       z     vdW  Elec       q    Type
REMARK                         _______ _______ _______ _____ _____    ______ ____
ROOT
ATOM      1  N   UNL     1       6.245   0.471  -3.806  0.00  0.00    -0.298 N 
ATOM      2  C   UNL     1       7.078   0.246  -4.841  0.00  0.00    +0.316 C 
ATOM      3  O   UNL     1       6.744  -0.505  -5.738  0.00  0.00    -0.251 OA
ATOM      4  N   UNL     1       8.280   0.853  -4.883  0.00  0.00    -0.218 N 
ATOM      5  H   UNL     1       6.511   1.069  -3.090  0.00  0.00    +0.150 HD
ATOM      6  H   UNL     1       8.880   0.692  -5.628  0.00  0.00    +0.174 HD
ENDROOT
BRANCH   4   7
ATOM      7  N   UNL     1       8.664   1.718  -3.850  0.00  0.00    -0.233 N 
ATOM      8  C   UNL     1       9.867   2.325  -3.892  0.00  0.00    +0.229 C 
ATOM      9  O   UNL     1      10.616   2.123  -4.824  0.00  0.00    -0.274 OA
ATOM     10  H   UNL     1       8.065   1.880  -3.105  0.00  0.00    +0.173 HD
BRANCH   8  11
ATOM     11  C   UNL     1      10.280   3.256  -2.780  0.00  0.00    +0.097 C 
BRANCH  11  12
ATOM     12  C   UNL     1      11.678   3.807  -3.070  0.00  0.00    +0.013 C 
BRANCH  12  13
ATOM     13  C   UNL     1      12.097   4.752  -1.942  0.00  0.00    -0.011 C 
ATOM     14  C   UNL     1      11.175   5.972  -1.929  0.00  0.00    +0.003 C 
ATOM     15  C   UNL     1      11.595   6.917  -0.801  0.00  0.00    +0.000 C 
ATOM     16  C   UNL     1      13.039   7.371  -1.026  0.00  0.00    +0.000 C 
ATOM     17  C   UNL     1      13.961   6.150  -1.039  0.00  0.00    +0.000 C 
ATOM     18  C   UNL     1      13.541   5.205  -2.167  0.00  0.00    +0.003 C 
ENDBRANCH  12  13
ENDBRANCH  11  12
ENDBRANCH   8  11
ENDBRANCH   4   7
BRANCH   1  19
ATOM     19  C   UNL     1       4.938  -0.190  -3.760  0.00  0.00    +0.107 C 
BRANCH  19  20
ATOM     20  C   UNL     1       4.197   0.234  -2.490  0.00  0.00    +0.034 C 
BRANCH  20  21
ATOM     21  C   UNL     1       2.832  -0.456  -2.443  0.00  0.00    +0.086 C 
BRANCH  21  25
ATOM     22  C   UNL     1      -0.019   1.526   0.010  0.00  0.00    +0.039 C 
ATOM     23  C   UNL     1       0.002  -0.004   0.002  0.00  0.00    +0.130 C 
ATOM     24  C   UNL     1       0.720  -0.499  -1.256  0.00  0.00    +0.115 C 
ATOM     25  N   UNL     1       2.120  -0.050  -1.224  0.00  0.00    -0.297 NA
ATOM     26  C   UNL     1       2.801  -0.554  -0.023  0.00  0.00    +0.115 C 
ATOM     27  C   UNL     1       2.062  -0.059   1.223  0.00  0.00    +0.130 C 
ATOM     28  O   UNL     1       0.695  -0.479   1.159  0.00  0.00    -0.371 OA
ATOM     29  C   UNL     1       2.719  -0.646   2.474  0.00  0.00    +0.039 C 
ENDBRANCH  21  25
ENDBRANCH  20  21
ENDBRANCH  19  20
ENDBRANCH   1  19
TORSDOF 8
