REMARK  Name = ZINC56649142
REMARK  9 active torsions:
REMARK  status: ('A' for Active; 'I' for Inactive)
REMARK    1  A    between atoms: C_1  and  C_2
REMARK    2  A    between atoms: C_5  and  N_23
REMARK    3  A    between atoms: C_7  and  N_8
REMARK    4  A    between atoms: N_11  and  C_12
REMARK    5  A    between atoms: C_12  and  C_14
REMARK    6  A    between atoms: C_12  and  C_15
REMARK    7  A    between atoms: C_24  and  C_26
REMARK    8  A    between atoms: C_26  and  C_27
REMARK    9  A    between atoms: C_26  and  C_28
REMARK                            x       y       z     vdW  Elec       q    Type
REMARK                         _______ _______ _______ _____ _____    ______ ____
ROOT
ATOM      1  N   UNL     1       0.299  -0.393   2.445  0.00  0.00    -0.269 N 
ATOM      2  C   UNL     1       0.056  -1.128   3.548  0.00  0.00    +0.304 C 
ATOM      3  O   UNL     1      -0.215  -2.308   3.445  0.00  0.00    -0.252 OA
ATOM      4  N   UNL     1       0.113  -0.553   4.766  0.00  0.00    -0.293 N 
ATOM      5  H   UNL     1       0.575   0.533   2.530  0.00  0.00    +0.156 HD
ATOM      6  H   UNL     1       0.329   0.389   4.849  0.00  0.00    +0.151 HD
ENDROOT
BRANCH   1  13
ATOM      7  C   UNL     1      -0.386   1.312   0.275  0.00  0.00    +0.045 C 
ATOM      8  C   UNL     1      -0.182  -0.169   0.088  0.00  0.00    -0.029 A 
ATOM      9  C   UNL     1      -0.322  -0.733  -1.165  0.00  0.00    +0.007 A 
ATOM     10  C   UNL     1      -0.136  -2.091  -1.340  0.00  0.00    +0.024 A 
ATOM     11  C   UNL     1       0.191  -2.894  -0.255  0.00  0.00    +0.035 A 
ATOM     12  C   UNL     1       0.332  -2.331   1.005  0.00  0.00    +0.047 A 
ATOM     13  C   UNL     1       0.151  -0.966   1.176  0.00  0.00    +0.039 A 
BRANCH  11  14
ATOM     14  N   UNL     1       0.378  -4.269  -0.432  0.00  0.00    -0.285 N 
ATOM     15  C   UNL     1       0.949  -4.731  -1.562  0.00  0.00    +0.220 C 
ATOM     16  O   UNL     1       1.225  -3.963  -2.460  0.00  0.00    -0.275 OA
ATOM     17  H   UNL     1       0.098  -4.890   0.258  0.00  0.00    +0.155 HD
BRANCH  15  18
ATOM     18  C   UNL     1       1.243  -6.201  -1.711  0.00  0.00    +0.069 C 
ATOM     19  C   UNL     1       1.885  -6.458  -3.076  0.00  0.00    +0.017 C 
ATOM     20  C   UNL     1       2.204  -6.643  -0.605  0.00  0.00    +0.017 C 
ENDBRANCH  15  18
ENDBRANCH  11  14
ENDBRANCH   1  13
BRANCH   4  21
ATOM     21  C   UNL     1      -0.150  -1.352   5.966  0.00  0.00    +0.102 C 
ATOM     22  C   UNL     1      -1.658  -1.404   6.223  0.00  0.00    +0.033 C 
BRANCH  21  23
ATOM     23  C   UNL     1       0.540  -0.724   7.149  0.00  0.00    -0.026 A 
ATOM     24  C   UNL     1       0.546   0.651   7.295  0.00  0.00    +0.008 A 
ATOM     25  C   UNL     1       1.179   1.229   8.380  0.00  0.00    +0.040 A 
ATOM     26  C   UNL     1       1.805   0.430   9.321  0.00  0.00    +0.142 A 
ATOM     27  C   UNL     1       1.798  -0.948   9.175  0.00  0.00    +0.076 A 
ATOM     28  C   UNL     1       1.160  -1.523   8.091  0.00  0.00    +0.028 A 
ATOM     29 CL   UNL     1       2.583  -1.951  10.354  0.00  0.00    -0.081 Cl
ATOM     30  F   UNL     1       2.424   0.994  10.382  0.00  0.00    -0.204 F 
ENDBRANCH  21  23
ENDBRANCH   4  21
TORSDOF 5
