REMARK  Name = ZINC25459448
REMARK  6 active torsions:
REMARK  status: ('A' for Active; 'I' for Inactive)
REMARK    1  A    between atoms: C_1  and  C_2
REMARK    2  A    between atoms: C_2  and  C_3
REMARK    3  A    between atoms: C_2  and  C_4
REMARK    4  A    between atoms: C_2  and  N_15
REMARK    5  A    between atoms: C_4  and  N_5
REMARK    6  A    between atoms: C_6  and  C_8
REMARK                            x       y       z     vdW  Elec       q    Type
REMARK                         _______ _______ _______ _____ _____    ______ ____
ROOT
ATOM      1  C   UNL     1      -0.759   2.033  -1.229  0.00  0.00    -0.008 C 
ATOM      2  C   UNL     1      -0.019   1.526   0.010  0.00  0.00    -0.055 C 
ATOM      3  C   UNL     1      -0.735   2.019   1.269  0.00  0.00    -0.008 C 
ENDROOT
BRANCH   2   4
ATOM      4  N   UNL     1       1.359   2.034   0.000  0.00  0.00    +0.387 N 
ATOM      5  C   UNL     1       1.379   3.506   0.008  0.00  0.00    -0.073 C 
ATOM      6  C   UNL     1       2.791   3.971   0.365  0.00  0.00    +0.017 C 
ATOM      7  C   UNL     1       3.800   3.268  -0.507  0.00  0.00    -0.048 A 
ATOM      8  C   UNL     1       5.081   3.793  -0.591  0.00  0.00    +0.004 A 
ATOM      9  C   UNL     1       6.036   3.178  -1.374  0.00  0.00    +0.000 A 
ATOM     10  C   UNL     1       5.715   2.033  -2.079  0.00  0.00    +0.000 A 
ATOM     11  C   UNL     1       4.440   1.511  -1.998  0.00  0.00    +0.002 A 
ATOM     12  C   UNL     1       3.478   2.128  -1.212  0.00  0.00    -0.061 A 
ATOM     13  C   UNL     1       2.099   1.523  -1.158  0.00  0.00    -0.042 C 
ATOM     14  H   UNL     1       1.855   1.672   0.913  0.00  0.00    -0.080 HD
ENDBRANCH   2   4
BRANCH   2  15
ATOM     15  C   UNL     1       0.002  -0.004   0.002  0.00  0.00    +0.092 C 
BRANCH  15  16
ATOM     16  N   UNL     1       0.711  -0.489   1.189  0.00  0.00    -0.311 N 
ATOM     17  C   UNL     1       0.854  -1.814   1.394  0.00  0.00    +0.264 C 
ATOM     18  O   UNL     1       0.395  -2.606   0.594  0.00  0.00    -0.268 OA
ATOM     19  H   UNL     1       1.126   0.227   1.913  0.00  0.00    +0.149 HD
BRANCH  17  20
ATOM     20  C   UNL     1       1.569  -2.304   2.592  0.00  0.00    +0.148 A 
ATOM     21  C   UNL     1       1.718  -3.695   2.805  0.00  0.00    +0.040 A 
ATOM     22  C   UNL     1       2.383  -4.110   3.920  0.00  0.00    +0.076 A 
ATOM     23  C   UNL     1       2.884  -3.122   4.797  0.00  0.00    +0.288 A 
ATOM     24  O   UNL     1       3.486  -3.446   5.808  0.00  0.00    -0.264 OA
ATOM     25  N   UNL     1       2.693  -1.821   4.510  0.00  0.00    -0.106 NA
ATOM     26  N   UNL     1       2.069  -1.446   3.453  0.00  0.00    -0.141 NA
ENDBRANCH  17  20
ENDBRANCH  15  16
ENDBRANCH   2  15
TORSDOF 4
