REMARK  Name = ZINC24224802
REMARK  8 active torsions:
REMARK  status: ('A' for Active; 'I' for Inactive)
REMARK    1  A    between atoms: C_1  and  C_2
REMARK    2  A    between atoms: C_2  and  C_3
REMARK    3  A    between atoms: C_3  and  C_4
REMARK    4  A    between atoms: C_4  and  N_5
REMARK    5  A    between atoms: C_9  and  C_11
REMARK    6  A    between atoms: C_11  and  N_12
REMARK    7  A    between atoms: C_15  and  C_19
REMARK    8  A    between atoms: C_15  and  C_20
REMARK                            x       y       z     vdW  Elec       q    Type
REMARK                         _______ _______ _______ _____ _____    ______ ____
ROOT
ATOM      1  N   UNL     1      -0.392   1.337  -8.408  0.00  0.00    -0.215 N 
ATOM      2  C   UNL     1      -0.127   2.506  -9.023  0.00  0.00    +0.251 C 
ATOM      3  O   UNL     1       0.710   3.325  -8.709  0.00  0.00    -0.272 OA
ATOM      4  C   UNL     1      -1.094   2.586 -10.187  0.00  0.00    +0.136 C 
ATOM      5  N   UNL     1      -1.864   1.334 -10.084  0.00  0.00    -0.281 N 
ATOM      6  C   UNL     1      -1.379   0.671  -9.019  0.00  0.00    +0.310 C 
ATOM      7  O   UNL     1      -1.792  -0.411  -8.652  0.00  0.00    -0.252 OA
ATOM      8  C   UNL     1      -2.013   3.800 -10.042  0.00  0.00    +0.047 C 
ATOM      9  H   UNL     1      -2.659   1.116 -10.813  0.00  0.00    +0.152 HD
ENDROOT
BRANCH   4  10
ATOM     10  C   UNL     1      -0.346   2.642 -11.494  0.00  0.00    +0.003 A 
ATOM     11  C   UNL     1      -0.541   1.658 -12.445  0.00  0.00    +0.009 A 
ATOM     12  C   UNL     1       0.144   1.709 -13.644  0.00  0.00    +0.020 A 
ATOM     13  C   UNL     1       1.027   2.745 -13.893  0.00  0.00    +0.042 A 
ATOM     14  C   UNL     1       1.222   3.730 -12.942  0.00  0.00    +0.040 A 
ATOM     15  C   UNL     1       0.531   3.682 -11.745  0.00  0.00    +0.048 A 
ATOM     16 CL   UNL     1       0.771   4.922 -10.554  0.00  0.00    -0.083 Cl
ATOM     17 CL   UNL     1       1.888   2.809 -15.399  0.00  0.00    -0.083 Cl
ENDBRANCH   4  10
BRANCH   1  18
ATOM     18  C   UNL     1       0.316   0.851  -7.221  0.00  0.00    +0.214 C 
BRANCH  18  23
ATOM     19  N   UNL     1      -0.067   1.120  -2.437  0.00  0.00    -0.299 N 
ATOM     20  C   UNL     1      -0.543   1.446  -3.655  0.00  0.00    +0.306 C 
ATOM     21  O   UNL     1      -1.542   2.132  -3.753  0.00  0.00    -0.252 OA
ATOM     22  N   UNL     1       0.087   1.011  -4.764  0.00  0.00    -0.239 N 
ATOM     23  C   UNL     1      -0.389   1.337  -5.981  0.00  0.00    +0.238 C 
ATOM     24  O   UNL     1      -1.385   2.021  -6.080  0.00  0.00    -0.274 OA
ATOM     25  H   UNL     1       0.837   0.499  -2.348  0.00  0.00    +0.150 HD
ATOM     26  H   UNL     1       0.991   0.391  -4.675  0.00  0.00    +0.159 HD
BRANCH  19  27
ATOM     27  C   UNL     1      -0.753   1.593  -1.232  0.00  0.00    +0.106 C 
BRANCH  27  28
ATOM     28  C   UNL     1      -0.013   1.086   0.008  0.00  0.00    +0.018 C 
BRANCH  28  30
ATOM     29  C   UNL     1       0.011   1.072   2.506  0.00  0.00    +0.004 C 
ATOM     30  C   UNL     1      -0.729   1.579   1.267  0.00  0.00    -0.002 C 
ENDBRANCH  28  30
ENDBRANCH  27  28
ENDBRANCH  19  27
ENDBRANCH  18  23
ENDBRANCH   1  18
TORSDOF 6
