REMARK  Name = ZINC05223151
REMARK  8 active torsions:
REMARK  status: ('A' for Active; 'I' for Inactive)
REMARK    1  A    between atoms: C_1  and  C_2
REMARK    2  A    between atoms: C_2  and  C_5
REMARK    3  A    between atoms: N_3  and  O_4
REMARK    4  A    between atoms: C_10  and  C_33
REMARK    5  A    between atoms: C_22  and  C_32
REMARK    6  A    between atoms: C_25  and  O_28
REMARK    7  A    between atoms: O_28  and  C_29
REMARK    8  A    between atoms: C_29  and  C_31
REMARK                            x       y       z     vdW  Elec       q    Type
REMARK                         _______ _______ _______ _____ _____    ______ ____
ROOT
ATOM      1  C   UNL     1      -0.000  -0.732  -1.274  0.00  0.00    -0.021 C 
ATOM      2  C   UNL     1      -0.013  -0.169  -2.486  0.00  0.00    -0.021 C 
ATOM      3  C   UNL     1      -0.015  -1.245  -3.557  0.00  0.00    +0.032 C 
ATOM      4  C   UNL     1      -0.611  -2.483  -2.810  0.00  0.00    +0.007 C 
ATOM      5  C   UNL     1       0.019  -2.229  -1.424  0.00  0.00    +0.004 C 
ATOM      6  C   UNL     1      -0.653  -2.968  -0.295  0.00  0.00    +0.086 C 
ATOM      7  C   UNL     1      -2.157  -2.860  -0.394  0.00  0.00    +0.138 C 
ATOM      8  O   UNL     1      -2.831  -2.530   0.552  0.00  0.00    -0.297 OA
ATOM      9  C   UNL     1      -2.778  -3.184  -1.737  0.00  0.00    +0.065 C 
ATOM     10  C   UNL     1      -2.126  -2.276  -2.800  0.00  0.00    +0.004 C 
ATOM     11  C   UNL     1      -2.704  -2.570  -4.185  0.00  0.00    +0.005 C 
ATOM     12  C   UNL     1      -4.212  -2.301  -4.167  0.00  0.00    +0.004 C 
ATOM     13  C   UNL     1      -4.626  -1.817  -2.776  0.00  0.00    -0.001 C 
ATOM     14  C   UNL     1      -4.282  -2.910  -1.683  0.00  0.00    -0.019 C 
ATOM     15  C   UNL     1      -4.667  -2.435  -0.280  0.00  0.00    +0.011 C 
ATOM     16  C   UNL     1      -6.172  -2.162  -0.231  0.00  0.00    +0.045 C 
ATOM     17  C   UNL     1      -6.528  -1.080  -1.252  0.00  0.00    +0.177 C 
ATOM     18  C   UNL     1      -6.129  -1.537  -2.756  0.00  0.00    +0.048 C 
ATOM     19  C   UNL     1      -5.046  -4.192  -2.016  0.00  0.00    +0.012 C 
ATOM     20  C   UNL     1       1.479  -2.683  -1.472  0.00  0.00    +0.017 C 
ENDROOT
BRANCH   1  22
ATOM     21  C   UNL     1      -0.018   1.503   0.010  0.00  0.00    +0.069 C 
ATOM     22  C   UNL     1       0.002  -0.004   0.002  0.00  0.00    +0.080 C 
ATOM     23  N   UNL     1       0.022  -0.658   1.120  0.00  0.00    -0.092 NA
BRANCH  23  24
ATOM     24  O   UNL     1       0.024   0.044   2.350  0.00  0.00    -0.409 OA
ATOM     25  H   UNL     1       0.039  -0.529   3.130  0.00  0.00    +0.328 HD
ENDBRANCH  23  24
ENDBRANCH   1  22
BRANCH  17  26
ATOM     26  O   UNL     1      -7.934  -0.827  -1.207  0.00  0.00    -0.462 OA
BRANCH  26  27
ATOM     27  C   UNL     1      -8.355   0.123  -0.358  0.00  0.00    +0.304 C 
ATOM     28  O   UNL     1      -7.556   0.721   0.325  0.00  0.00    -0.251 OA
ATOM     29  C   UNL     1      -9.823   0.446  -0.255  0.00  0.00    +0.136 C 
ENDBRANCH  26  27
ENDBRANCH  17  26
TORSDOF 4
