REMARK  Name = ZINC53113512
REMARK  7 active torsions:
REMARK  status: ('A' for Active; 'I' for Inactive)
REMARK    1  A    between atoms: C_1  and  C_2
REMARK    2  A    between atoms: C_7  and  C_9
REMARK    3  A    between atoms: C_7  and  N_11
REMARK    4  A    between atoms: C_9  and  O_10
REMARK    5  A    between atoms: N_11  and  S_12
REMARK    6  A    between atoms: S_12  and  C_15
REMARK    7  A    between atoms: C_17  and  N_20
REMARK                            x       y       z     vdW  Elec       q    Type
REMARK                         _______ _______ _______ _____ _____    ______ ____
ROOT
ATOM      1  N   UNL     1      -0.778  -2.664   1.123  0.00  0.00    -0.181 NA
ATOM      2  H   UNL     1      -1.240  -3.319   0.577  0.00  0.00    +0.149 HD
ENDROOT
BRANCH   1   8
ATOM      3  C   UNL     1      -0.557   0.898  -1.270  0.00  0.00    +0.007 C 
ATOM      4  C   UNL     1      -0.481  -0.574  -0.859  0.00  0.00    -0.012 C 
ATOM      5  C   UNL     1       0.030  -1.406  -2.037  0.00  0.00    +0.003 C 
ATOM      6  C   UNL     1       0.106  -2.878  -1.626  0.00  0.00    +0.002 C 
ATOM      7  C   UNL     1       1.065  -3.027  -0.443  0.00  0.00    +0.026 C 
ATOM      8  C   UNL     1       0.554  -2.195   0.735  0.00  0.00    +0.063 C 
ATOM      9  C   UNL     1       0.478  -0.723   0.324  0.00  0.00    +0.029 C 
BRANCH   8  10
ATOM     10  C   UNL     1       1.513  -2.345   1.918  0.00  0.00    +0.179 C 
BRANCH  10  11
ATOM     11  O   UNL     1       1.477  -3.692   2.393  0.00  0.00    -0.393 OA
ATOM     12  H   UNL     1       2.003  -3.843   3.190  0.00  0.00    +0.209 HD
ENDBRANCH  10  11
ENDBRANCH   8  10
ENDBRANCH   1   8
BRANCH   1  13
ATOM     13  S   UNL     1      -1.495  -2.076   2.495  0.00  0.00    +0.065 S 
ATOM     14  O   UNL     1      -2.765  -2.706   2.592  0.00  0.00    -0.153 OA
ATOM     15  O   UNL     1      -0.523  -2.158   3.529  0.00  0.00    -0.153 OA
BRANCH  13  16
ATOM     16  C   UNL     1      -1.804  -0.361   2.228  0.00  0.00    +0.144 A 
ATOM     17  C   UNL     1      -2.837   0.228   1.579  0.00  0.00    +0.059 A 
ATOM     18  C   UNL     1      -2.874   1.611   1.491  0.00  0.00    +0.034 A 
ATOM     19  C   UNL     1      -1.871   2.330   2.059  0.00  0.00    +0.069 A 
ATOM     20  S   UNL     1      -0.839   1.047   2.749  0.00  0.00    -0.075 S 
BRANCH  18  21
ATOM     21  N   UNL     1      -3.931   2.258   0.824  0.00  0.00    -0.358 N 
ATOM     22  H   UNL     1      -4.642   1.736   0.421  0.00  0.00    +0.142 HD
ATOM     23  H   UNL     1      -3.948   3.226   0.768  0.00  0.00    +0.142 HD
ENDBRANCH  18  21
ENDBRANCH  13  16
ENDBRANCH   1  13
TORSDOF 6
