REMARK  Name = ZINC33034177
REMARK  10 active torsions:
REMARK  status: ('A' for Active; 'I' for Inactive)
REMARK    1  A    between atoms: C_1  and  C_2
REMARK    2  A    between atoms: C_2  and  C_3
REMARK    3  A    between atoms: C_3  and  C_4
REMARK    4  A    between atoms: C_7  and  S_10
REMARK    5  A    between atoms: S_10  and  N_13
REMARK    6  A    between atoms: N_13  and  C_14
REMARK    7  A    between atoms: C_16  and  C_26
REMARK    8  A    between atoms: C_19  and  N_20
REMARK    9  A    between atoms: N_28  and  C_29
REMARK   10  A    between atoms: C_29  and  C_30
REMARK                            x       y       z     vdW  Elec       q    Type
REMARK                         _______ _______ _______ _____ _____    ______ ____
ROOT
ATOM      1  C   UNL     1      -3.626   1.873   0.302  0.00  0.00    +0.070 A 
ATOM      2  C   UNL     1      -2.307   1.466   0.228  0.00  0.00    +0.039 A 
ATOM      3  C   UNL     1      -1.303   2.403  -0.036  0.00  0.00    +0.039 A 
ATOM      4  C   UNL     1      -1.636   3.748  -0.220  0.00  0.00    +0.015 A 
ATOM      5  C   UNL     1      -2.953   4.148  -0.150  0.00  0.00    +0.026 A 
ATOM      6  C   UNL     1      -3.952   3.219   0.112  0.00  0.00    +0.052 A 
ENDROOT
BRANCH   6   7
ATOM      7  N   UNL     1      -5.282   3.629   0.186  0.00  0.00    -0.332 N 
ATOM      8  C   UNL     1      -5.380   5.095   0.207  0.00  0.00    +0.086 C 
ATOM      9  C   UNL     1      -6.846   5.504   0.369  0.00  0.00    -0.063 C 
ATOM     10  N   UNL     1      -7.633   4.942  -0.738  0.00  0.00    +0.381 N 
ATOM     11  C   UNL     1      -7.535   3.476  -0.760  0.00  0.00    -0.063 C 
ATOM     12  C   UNL     1      -6.069   3.068  -0.921  0.00  0.00    +0.086 C 
ATOM     13  H   UNL     1      -8.689   5.224  -0.617  0.00  0.00    -0.086 HD
ATOM     14  H   UNL     1      -7.255   5.336  -1.693  0.00  0.00    -0.086 HD
ENDBRANCH   6   7
BRANCH   3  15
ATOM     15  C   UNL     1       0.106   1.973  -0.115  0.00  0.00    +0.244 C 
ATOM     16  O   UNL     1       0.395   0.804   0.050  0.00  0.00    -0.270 OA
ATOM     17  N   UNL     1       1.072   2.876  -0.375  0.00  0.00    -0.312 N 
ATOM     18  H   UNL     1       0.810   3.934  -0.524  0.00  0.00    +0.149 HD
BRANCH  17  19
ATOM     19  C   UNL     1       2.470   2.449  -0.460  0.00  0.00    +0.101 C 
ATOM     20  C   UNL     1       3.356   3.659  -0.763  0.00  0.00    +0.024 C 
ENDBRANCH  17  19
ENDBRANCH   3  15
BRANCH   1  21
ATOM     21  N   UNL     1      -4.634   0.938   0.566  0.00  0.00    -0.214 N 
ATOM     22  H   UNL     1      -5.207   0.498  -0.264  0.00  0.00    +0.174 HD
BRANCH  21  23
ATOM     23  S   UNL     1      -4.963   0.494   2.127  0.00  0.00    +0.072 S 
ATOM     24  O   UNL     1      -6.036  -0.436   2.067  0.00  0.00    -0.150 OA
ATOM     25  O   UNL     1      -3.716   0.181   2.732  0.00  0.00    -0.150 OA
BRANCH  23  29
ATOM     26  C   UNL     1      -6.550   4.160   4.255  0.00  0.00    -0.047 A 
ATOM     27  C   UNL     1      -7.422   3.304   3.610  0.00  0.00    +0.005 A 
ATOM     28  C   UNL     1      -6.938   2.184   2.961  0.00  0.00    +0.029 A 
ATOM     29  C   UNL     1      -5.581   1.921   2.955  0.00  0.00    +0.109 A 
ATOM     30  C   UNL     1      -4.709   2.775   3.604  0.00  0.00    +0.029 A 
ATOM     31  C   UNL     1      -5.193   3.897   4.251  0.00  0.00    +0.005 A 
BRANCH  26  32
ATOM     32  C   UNL     1      -7.078   5.382   4.963  0.00  0.00    +0.035 C 
BRANCH  32  34
ATOM     33  C   UNL     1      -7.938   6.269   7.135  0.00  0.00    +0.004 C 
ATOM     34  C   UNL     1      -7.402   5.029   6.416  0.00  0.00    +0.001 C 
ENDBRANCH  32  34
ENDBRANCH  26  32
ENDBRANCH  23  29
ENDBRANCH  21  23
ENDBRANCH   1  21
TORSDOF 8
