REMARK  Name = ZINC06964472
REMARK  6 active torsions:
REMARK  status: ('A' for Active; 'I' for Inactive)
REMARK    1  A    between atoms: C_1  and  C_2
REMARK    2  A    between atoms: C_5  and  N_9
REMARK    3  A    between atoms: N_9  and  C_10
REMARK    4  A    between atoms: C_10  and  N_12
REMARK    5  A    between atoms: N_12  and  C_13
REMARK    6  A    between atoms: C_17  and  N_19
REMARK                            x       y       z     vdW  Elec       q    Type
REMARK                         _______ _______ _______ _____ _____    ______ ____
ROOT
ATOM      1  C   UNL     1       1.078   5.947   0.467  0.00  0.00    +0.139 C 
ATOM      2  S   UNL     1       2.551   5.164   0.852  0.00  0.00    -0.018 S 
ENDROOT
BRANCH   1   3
ATOM      3  N   UNL     1       1.062   7.274   0.231  0.00  0.00    -0.296 N 
ATOM      4  H   UNL     1       0.220   7.726   0.067  0.00  0.00    +0.154 HD
BRANCH   3   9
ATOM      5  C   UNL     1       5.916  10.209   0.195  0.00  0.00    +0.044 C 
ATOM      6  C   UNL     1       4.627   9.430   0.205  0.00  0.00    -0.049 A 
ATOM      7  C   UNL     1       4.567   8.187  -0.398  0.00  0.00    +0.005 A 
ATOM      8  C   UNL     1       3.387   7.470  -0.391  0.00  0.00    +0.024 A 
ATOM      9  C   UNL     1       2.259   7.997   0.223  0.00  0.00    +0.047 A 
ATOM     10  C   UNL     1       2.320   9.248   0.824  0.00  0.00    +0.039 A 
ATOM     11  C   UNL     1       3.506   9.959   0.817  0.00  0.00    +0.020 A 
ATOM     12 BR   UNL     1       0.785   9.976   1.655  0.00  0.00    -0.048 Br
ENDBRANCH   3   9
ENDBRANCH   1   3
BRANCH   1  13
ATOM     13  N   UNL     1      -0.066   5.236   0.401  0.00  0.00    -0.297 N 
ATOM     14  H   UNL     1      -0.882   5.660   0.093  0.00  0.00    +0.154 HD
BRANCH  13  15
ATOM     15  C   UNL     1      -0.074   3.889   0.776  0.00  0.00    +0.035 A 
ATOM     16  C   UNL     1       0.613   3.477   1.911  0.00  0.00    +0.023 A 
ATOM     17  C   UNL     1       0.602   2.146   2.277  0.00  0.00    +0.004 A 
ATOM     18  C   UNL     1      -0.091   1.223   1.516  0.00  0.00    +0.033 A 
ATOM     19  C   UNL     1      -0.771   1.628   0.382  0.00  0.00    +0.128 A 
ATOM     20  C   UNL     1      -0.769   2.959   0.013  0.00  0.00    +0.056 A 
BRANCH  19  21
ATOM     21  N   UNL     1      -1.506   0.635  -0.433  0.00  0.00    +0.056 N 
ATOM     22  O   UNL     1      -1.511  -0.538  -0.106  0.00  0.00    -0.126 OA
ATOM     23  O   UNL     1      -2.105   0.992  -1.432  0.00  0.00    -0.126 OA
ENDBRANCH  19  21
ENDBRANCH  13  15
ENDBRANCH   1  13
TORSDOF 5
