REMARK  Name = ZINC10217766
REMARK  13 active torsions:
REMARK  status: ('A' for Active; 'I' for Inactive)
REMARK    1  A    between atoms: C_1  and  C_2
REMARK    2  A    between atoms: C_4  and  O_32
REMARK    3  A    between atoms: C_5  and  C_12
REMARK    4  A    between atoms: N_8  and  C_9
REMARK    5  A    between atoms: C_9  and  C_10
REMARK    6  A    between atoms: C_10  and  O_11
REMARK    7  A    between atoms: C_12  and  C_13
REMARK    8  A    between atoms: C_12  and  C_20
REMARK    9  A    between atoms: C_21  and  O_31
REMARK   10  A    between atoms: C_23  and  C_30
REMARK   11  A    between atoms: N_24  and  C_27
REMARK   12  A    between atoms: C_27  and  C_28
REMARK   13  A    between atoms: C_28  and  O_29
REMARK                            x       y       z     vdW  Elec       q    Type
REMARK                         _______ _______ _______ _____ _____    ______ ____
ROOT
ATOM      1  C   UNL     1      -1.083   2.091  -0.168  0.00  0.00    +0.097 C 
ENDROOT
BRANCH   1   6
ATOM      2  C   UNL     1       1.679   5.459   3.608  0.00  0.00    +0.064 C 
ATOM      3  C   UNL     1       0.970   4.573   2.616  0.00  0.00    +0.022 A 
ATOM      4  C   UNL     1       1.691   3.753   1.821  0.00  0.00    +0.067 A 
ATOM      5  C   UNL     1       1.033   2.918   0.896  0.00  0.00    +0.128 A 
ATOM      6  C   UNL     1      -0.346   2.965   0.814  0.00  0.00    +0.070 A 
ATOM      7  C   UNL     1      -1.050   3.831   1.659  0.00  0.00    +0.259 A 
ATOM      8  O   UNL     1      -2.269   3.880   1.603  0.00  0.00    -0.267 OA
ATOM      9  N   UNL     1      -0.386   4.609   2.534  0.00  0.00    -0.310 N 
BRANCH   5  10
ATOM     10  O   UNL     1       1.742   2.086   0.096  0.00  0.00    -0.506 OA
ATOM     11  H   UNL     1       2.698   2.130   0.232  0.00  0.00    +0.292 HD
ENDBRANCH   5  10
BRANCH   9  12
ATOM     12  C   UNL     1      -1.137   5.510   3.411  0.00  0.00    +0.153 C 
BRANCH  12  13
ATOM     13  C   UNL     1      -1.248   6.887   2.753  0.00  0.00    +0.177 C 
BRANCH  13  14
ATOM     14  O   UNL     1      -2.029   6.784   1.561  0.00  0.00    -0.393 OA
ATOM     15  H   UNL     1      -2.141   7.621   1.090  0.00  0.00    +0.209 HD
ENDBRANCH  13  14
ENDBRANCH  12  13
ENDBRANCH   9  12
ENDBRANCH   1   6
BRANCH   1  16
ATOM     16  C   UNL     1      -1.467   2.905  -1.376  0.00  0.00    +0.070 A 
ATOM     17  C   UNL     1      -2.745   2.825  -1.897  0.00  0.00    +0.128 A 
ATOM     18  C   UNL     1      -3.073   3.605  -3.024  0.00  0.00    +0.067 A 
ATOM     19  C   UNL     1      -2.139   4.405  -3.581  0.00  0.00    +0.022 A 
ATOM     20  N   UNL     1      -0.883   4.475  -3.067  0.00  0.00    -0.310 N 
ATOM     21  C   UNL     1      -0.533   3.749  -1.988  0.00  0.00    +0.259 A 
ATOM     22  O   UNL     1       0.601   3.828  -1.543  0.00  0.00    -0.267 OA
ATOM     23  C   UNL     1      -2.494   5.232  -4.790  0.00  0.00    +0.064 C 
BRANCH  17  24
ATOM     24  O   UNL     1      -3.669   2.013  -1.330  0.00  0.00    -0.506 OA
ATOM     25  H   UNL     1      -4.530   2.030  -1.770  0.00  0.00    +0.292 HD
ENDBRANCH  17  24
BRANCH  20  26
ATOM     26  C   UNL     1       0.106   5.353  -3.696  0.00  0.00    +0.153 C 
BRANCH  26  27
ATOM     27  C   UNL     1       0.039   6.740  -3.053  0.00  0.00    +0.177 C 
BRANCH  27  28
ATOM     28  O   UNL     1       0.433   6.648  -1.682  0.00  0.00    -0.393 OA
ATOM     29  H   UNL     1       0.414   7.492  -1.210  0.00  0.00    +0.209 HD
ENDBRANCH  27  28
ENDBRANCH  26  27
ENDBRANCH  20  26
ENDBRANCH   1  16
BRANCH   1  30
ATOM     30  C   UNL     1      -0.192   0.952  -0.593  0.00  0.00    -0.035 A 
ATOM     31  C   UNL     1       0.375   0.952  -1.854  0.00  0.00    +0.007 A 
ATOM     32  C   UNL     1       1.187  -0.095  -2.247  0.00  0.00    +0.038 A 
ATOM     33  C   UNL     1       1.433  -1.144  -1.377  0.00  0.00    +0.123 A 
ATOM     34  C   UNL     1       0.865  -1.143  -0.114  0.00  0.00    +0.038 A 
ATOM     35  C   UNL     1       0.053  -0.095   0.276  0.00  0.00    +0.007 A 
ATOM     36  F   UNL     1       2.228  -2.167  -1.760  0.00  0.00    -0.205 F 
ENDBRANCH   1  30
TORSDOF 11
