REMARK  Name = ZINC03053319
REMARK  10 active torsions:
REMARK  status: ('A' for Active; 'I' for Inactive)
REMARK    1  A    between atoms: C_1  and  O_2
REMARK    2  A    between atoms: O_2  and  C_3
REMARK    3  A    between atoms: C_5  and  C_13
REMARK    4  A    between atoms: C_7  and  O_11
REMARK    5  A    between atoms: C_8  and  O_9
REMARK    6  A    between atoms: O_9  and  C_10
REMARK    7  A    between atoms: O_11  and  C_12
REMARK    8  A    between atoms: C_13  and  C_15
REMARK    9  A    between atoms: C_13  and  N_53
REMARK   10  A    between atoms: C_20  and  O_21
REMARK                            x       y       z     vdW  Elec       q    Type
REMARK                         _______ _______ _______ _____ _____    ______ ____
ROOT
ATOM      1  C   UNL     1      -0.487   0.813  -2.365  0.00  0.00    -0.003 C 
ENDROOT
BRANCH   1   2
ATOM      2  C   UNL     1      -1.204   1.450  -3.527  0.00  0.00    -0.012 A 
ATOM      3  C   UNL     1      -2.194   2.388  -3.299  0.00  0.00    +0.055 A 
ATOM      4  C   UNL     1      -2.854   2.975  -4.365  0.00  0.00    +0.167 A 
ATOM      5  C   UNL     1      -2.521   2.619  -5.670  0.00  0.00    +0.170 A 
ATOM      6  C   UNL     1      -1.529   1.679  -5.896  0.00  0.00    +0.095 A 
ATOM      7  C   UNL     1      -0.867   1.097  -4.825  0.00  0.00    +0.122 A 
ATOM      8  O   UNL     1      -3.307   3.329  -6.530  0.00  0.00    -0.452 OA
ATOM      9  C   UNL     1      -4.403   3.819  -5.735  0.00  0.00    +0.466 C 
ATOM     10  O   UNL     1      -3.850   3.909  -4.409  0.00  0.00    -0.453 OA
BRANCH   7  11
ATOM     11  O   UNL     1       0.110   0.178  -5.048  0.00  0.00    -0.506 OA
ATOM     12  H   UNL     1      -0.211  -0.733  -5.094  0.00  0.00    +0.292 HD
ENDBRANCH   7  11
ENDBRANCH   1   2
BRANCH   1  15
ATOM     13  C   UNL     1      -1.213  -2.875  -1.973  0.00  0.00    +0.165 A 
ATOM     14  C   UNL     1      -0.584  -1.686  -2.311  0.00  0.00    +0.052 A 
ATOM     15  C   UNL     1      -1.174  -0.476  -1.996  0.00  0.00    -0.049 A 
ATOM     16  C   UNL     1      -2.389  -0.447  -1.337  0.00  0.00    +0.052 A 
ATOM     17  C   UNL     1      -3.027  -1.631  -1.001  0.00  0.00    +0.165 A 
ATOM     18  C   UNL     1      -2.437  -2.849  -1.317  0.00  0.00    +0.204 A 
BRANCH  13  20
ATOM     19  C   UNL     1       0.627  -4.015  -2.958  0.00  0.00    +0.277 C 
ATOM     20  O   UNL     1      -0.631  -4.065  -2.284  0.00  0.00    -0.491 OA
ENDBRANCH  13  20
BRANCH  18  21
ATOM     21  O   UNL     1      -3.057  -4.014  -0.983  0.00  0.00    -0.488 OA
ATOM     22  C   UNL     1      -2.750  -4.568   0.299  0.00  0.00    +0.277 C 
ENDBRANCH  18  21
BRANCH  17  23
ATOM     23  O   UNL     1      -4.225  -1.601  -0.359  0.00  0.00    -0.491 OA
ATOM     24  C   UNL     1      -4.772  -0.313  -0.066  0.00  0.00    +0.277 C 
ENDBRANCH  17  23
ENDBRANCH   1  15
BRANCH   1  29
ATOM     25  C   UNL     1       0.298   2.943  -1.484  0.00  0.00    -0.078 C 
ATOM     26  C   UNL     1       0.625   3.514  -0.087  0.00  0.00    -0.020 C 
ATOM     27  C   UNL     1       0.521   2.305   0.870  0.00  0.00    -0.020 C 
ATOM     28  C   UNL     1       0.139   1.110  -0.030  0.00  0.00    -0.078 C 
ATOM     29  N   UNL     1      -0.488   1.747  -1.194  0.00  0.00    +0.387 N 
ATOM     30  H   UNL     1      -1.456   2.008  -0.973  0.00  0.00    -0.080 HD
ENDBRANCH   1  29
TORSDOF 7
