REMARK  Name = ZINC62827870
REMARK  6 active torsions:
REMARK  status: ('A' for Active; 'I' for Inactive)
REMARK    1  A    between atoms: C_1  and  C_2
REMARK    2  A    between atoms: C_2  and  C_3
REMARK    3  A    between atoms: N_12  and  C_13
REMARK    4  A    between atoms: C_14  and  C_20
REMARK    5  A    between atoms: C_15  and  C_19
REMARK    6  A    between atoms: C_16  and  C_18
REMARK                            x       y       z     vdW  Elec       q    Type
REMARK                         _______ _______ _______ _____ _____    ______ ____
ROOT
ATOM      1  C   UNL     1       0.747  -0.508   1.240  0.00  0.00    +0.135 C 
ATOM      2  C   UNL     1       0.872  -2.035   1.173  0.00  0.00    +0.141 C 
ATOM      3  N   UNL     1       1.415  -2.513   2.454  0.00  0.00    -0.281 N 
ATOM      4  C   UNL     1       0.770  -2.052   3.694  0.00  0.00    +0.137 C 
ATOM      5  C   UNL     1       0.650  -0.525   3.638  0.00  0.00    +0.179 C 
ATOM      6  O   UNL     1       0.016  -0.146   2.413  0.00  0.00    -0.373 OA
ATOM      7  C   UNL     1       2.473  -3.348   2.491  0.00  0.00    +0.307 C 
ATOM      8  O   UNL     1       2.935  -3.789   1.457  0.00  0.00    -0.252 OA
ATOM      9  N   UNL     1       3.017  -3.693   3.675  0.00  0.00    -0.263 N 
ATOM     10  H   UNL     1       2.603  -3.402   4.502  0.00  0.00    +0.157 HD
ENDROOT
BRANCH   9  11
ATOM     11  C   UNL     1       4.167  -4.465   3.709  0.00  0.00    +0.088 A 
ATOM     12  C   UNL     1       4.859  -4.918   4.827  0.00  0.00    +0.095 A 
ATOM     13  C   UNL     1       6.041  -5.713   4.573  0.00  0.00    -0.025 A 
ATOM     14  C   UNL     1       6.338  -5.926   3.280  0.00  0.00    -0.008 A 
ATOM     15  S   UNL     1       5.040  -5.073   2.413  0.00  0.00    -0.078 S 
ATOM     16  C   UNL     1       7.491  -6.706   2.703  0.00  0.00    +0.052 C 
ATOM     17  C   UNL     1       6.886  -6.268   5.691  0.00  0.00    +0.045 C 
BRANCH  12  18
ATOM     18  C   UNL     1       4.431  -4.616   6.144  0.00  0.00    +0.389 C 
ATOM     19  O   UNL     1       3.425  -3.939   6.321  0.00  0.00    -0.240 OA
ATOM     20  O   UNL     1       5.066  -5.032   7.105  0.00  0.00    -0.240 OA
ENDBRANCH  12  18
ENDBRANCH   9  11
BRANCH   1  22
ATOM     21  C   UNL     1      -0.010   1.528   0.007  0.00  0.00    +0.006 C 
ATOM     22  C   UNL     1       0.008  -0.002   0.000  0.00  0.00    +0.030 C 
ENDBRANCH   1  22
TORSDOF 3
