REMARK  Name = ZINC08636360
REMARK  9 active torsions:
REMARK  status: ('A' for Active; 'I' for Inactive)
REMARK    1  A    between atoms: C_1  and  O_2
REMARK    2  A    between atoms: O_2  and  C_3
REMARK    3  A    between atoms: C_8  and  C_9
REMARK    4  A    between atoms: C_9  and  N_10
REMARK    5  A    between atoms: C_11  and  C_13
REMARK    6  A    between atoms: C_16  and  O_40
REMARK    7  A    between atoms: C_18  and  O_39
REMARK    8  A    between atoms: N_27  and  C_28
REMARK    9  A    between atoms: C_31  and  N_34
REMARK                            x       y       z     vdW  Elec       q    Type
REMARK                         _______ _______ _______ _____ _____    ______ ____
ROOT
ATOM      1  C   UNL     1      -7.129   2.186   1.003  0.00  0.00    +0.093 C 
ATOM      2  C   UNL     1      -7.413   0.763   1.467  0.00  0.00    +0.048 C 
ATOM      3  C   UNL     1      -6.080   0.083   1.798  0.00  0.00    +0.146 C 
ATOM      4  C   UNL     1      -5.286  -0.066   0.504  0.00  0.00    +0.168 C 
ATOM      5  C   UNL     1      -5.087   1.236  -0.208  0.00  0.00    +0.153 C 
ATOM      6  C   UNL     1      -6.236   2.228  -0.221  0.00  0.00    +0.093 C 
ATOM      7  S   UNL     1      -5.283   3.802  -0.168  0.00  0.00    -0.084 S 
ATOM      8  C   UNL     1      -3.639   3.122  -0.051  0.00  0.00    +0.154 C 
ATOM      9  N   UNL     1      -3.784   1.828  -0.069  0.00  0.00    -0.256 NA
ATOM     10  N   UNL     1      -2.457   3.822   0.045  0.00  0.00    -0.294 N 
ATOM     11  H   UNL     1      -2.471   4.788   0.132  0.00  0.00    +0.154 HD
ENDROOT
BRANCH  10  12
ATOM     12  C   UNL     1      -1.236   3.139   0.018  0.00  0.00    +0.033 A 
ATOM     13  C   UNL     1      -1.143   1.905  -0.613  0.00  0.00    +0.025 A 
ATOM     14  C   UNL     1       0.060   1.230  -0.635  0.00  0.00    +0.029 A 
ATOM     15  C   UNL     1       1.182   1.790  -0.037  0.00  0.00    +0.065 A 
ATOM     16  C   UNL     1       1.091   3.026   0.588  0.00  0.00    +0.029 A 
ATOM     17  C   UNL     1      -0.114   3.699   0.615  0.00  0.00    +0.025 A 
BRANCH  15  18
ATOM     18  N   UNL     1       2.406   1.106  -0.065  0.00  0.00    -0.240 N 
ATOM     19  C   UNL     1       3.571   1.537   0.470  0.00  0.00    +0.114 A 
ATOM     20  C   UNL     1       4.508   0.590   0.233  0.00  0.00    +0.041 A 
ATOM     21  C   UNL     1       3.900  -0.449  -0.479  0.00  0.00    +0.135 A 
ATOM     22  N   UNL     1       2.641  -0.141  -0.658  0.00  0.00    -0.175 NA
ENDBRANCH  15  18
ENDBRANCH  10  12
BRANCH   1  24
ATOM     23  N   UNL     1      -9.380   3.002   1.627  0.00  0.00    -0.311 N 
ATOM     24  C   UNL     1      -8.436   2.862   0.675  0.00  0.00    +0.218 C 
ATOM     25  O   UNL     1      -8.637   3.279  -0.446  0.00  0.00    -0.275 OA
ATOM     26  H   UNL     1      -9.218   2.669   2.523  0.00  0.00    +0.149 HD
BRANCH  23  27
ATOM     27  C   UNL     1     -10.649   3.660   1.308  0.00  0.00    +0.143 C 
BRANCH  27  33
ATOM     28  C   UNL     1     -11.309   4.644   3.517  0.00  0.00    +0.125 A 
ATOM     29  C   UNL     1     -12.118   4.671   4.644  0.00  0.00    +0.046 A 
ATOM     30  C   UNL     1     -13.127   3.739   4.791  0.00  0.00    +0.004 A 
ATOM     31  C   UNL     1     -13.335   2.784   3.813  0.00  0.00    +0.001 A 
ATOM     32  C   UNL     1     -12.534   2.758   2.687  0.00  0.00    +0.009 A 
ATOM     33  C   UNL     1     -11.523   3.688   2.535  0.00  0.00    +0.011 A 
BRANCH  28  35
ATOM     34  C   UNL     1     -10.149   6.511   4.424  0.00  0.00    +0.277 C 
ATOM     35  O   UNL     1     -10.312   5.556   3.374  0.00  0.00    -0.495 OA
ENDBRANCH  28  35
ENDBRANCH  27  33
ENDBRANCH  23  27
ENDBRANCH   1  24
BRANCH   4  36
ATOM     36  O   UNL     1      -4.007  -0.623   0.813  0.00  0.00    -0.387 OA
ATOM     37  H   UNL     1      -4.048  -1.470   1.276  0.00  0.00    +0.210 HD
ENDBRANCH   4  36
BRANCH   3  38
ATOM     38  O   UNL     1      -6.324  -1.206   2.365  0.00  0.00    -0.389 OA
ATOM     39  H   UNL     1      -6.826  -1.183   3.192  0.00  0.00    +0.210 HD
ENDBRANCH   3  38
TORSDOF 8
