REMARK  Name = ZINC67590258
REMARK  7 active torsions:
REMARK  status: ('A' for Active; 'I' for Inactive)
REMARK    1  A    between atoms: C_1  and  C_2
REMARK    2  A    between atoms: C_7  and  C_10
REMARK    3  A    between atoms: N_18  and  C_19
REMARK    4  A    between atoms: C_19  and  C_21
REMARK    5  A    between atoms: C_19  and  C_22
REMARK    6  A    between atoms: C_22  and  C_23
REMARK    7  A    between atoms: C_23  and  C_24
REMARK                            x       y       z     vdW  Elec       q    Type
REMARK                         _______ _______ _______ _____ _____    ______ ____
ROOT
ATOM      1  C   UNL     1      -0.025   1.523   0.013  0.00  0.00    +0.039 C 
ATOM      2  C   UNL     1      -0.003  -0.006   0.004  0.00  0.00    +0.133 C 
ATOM      3  C   UNL     1       0.718  -0.500  -1.256  0.00  0.00    +0.140 C 
ATOM      4  N   UNL     1       0.892  -1.957  -1.150  0.00  0.00    -0.280 N 
ATOM      5  C   UNL     1       1.481  -2.496   0.086  0.00  0.00    +0.145 C 
ATOM      6  C   UNL     1       0.723  -1.905   1.280  0.00  0.00    +0.166 C 
ATOM      7  O   UNL     1       0.691  -0.481   1.161  0.00  0.00    -0.366 OA
ATOM      8  C   UNL     1       0.522  -2.775  -2.156  0.00  0.00    +0.303 C 
ATOM      9  O   UNL     1       0.756  -3.966  -2.088  0.00  0.00    -0.253 OA
ATOM     10  N   UNL     1      -0.108  -2.272  -3.236  0.00  0.00    -0.297 N 
ATOM     11  H   UNL     1      -0.229  -1.313  -3.324  0.00  0.00    +0.151 HD
ENDROOT
BRANCH   6  12
ATOM     12  C   UNL     1       1.423  -2.288   2.559  0.00  0.00    -0.017 A 
ATOM     13  C   UNL     1       2.475  -1.524   3.027  0.00  0.00    +0.006 A 
ATOM     14  C   UNL     1       3.117  -1.875   4.200  0.00  0.00    +0.000 A 
ATOM     15  C   UNL     1       2.705  -2.990   4.906  0.00  0.00    +0.000 A 
ATOM     16  C   UNL     1       1.651  -3.753   4.439  0.00  0.00    +0.000 A 
ATOM     17  C   UNL     1       1.007  -3.400   3.268  0.00  0.00    +0.006 A 
ENDBRANCH   6  12
BRANCH  10  18
ATOM     18  C   UNL     1      -0.609  -3.173  -4.277  0.00  0.00    +0.072 C 
ATOM     19  C   UNL     1      -1.998  -3.681  -3.886  0.00  0.00    +0.028 C 
BRANCH  18  20
ATOM     20  C   UNL     1      -0.697  -2.418  -5.605  0.00  0.00    +0.030 C 
BRANCH  20  21
ATOM     21  C   UNL     1       0.708  -2.018  -6.059  0.00  0.00    +0.076 C 
BRANCH  21  22
ATOM     22  C   UNL     1       0.622  -1.275  -7.367  0.00  0.00    +0.105 A 
ATOM     23  C   UNL     1       0.488   0.056  -7.508  0.00  0.00    +0.044 A 
ATOM     24  C   UNL     1       0.449   0.318  -8.897  0.00  0.00    +0.041 A 
ATOM     25  C   UNL     1       0.560  -0.868  -9.521  0.00  0.00    +0.195 A 
ATOM     26  O   UNL     1       0.670  -1.829  -8.589  0.00  0.00    -0.468 OA
ENDBRANCH  21  22
ENDBRANCH  20  21
ENDBRANCH  18  20
ENDBRANCH  10  18
TORSDOF 5
