REMARK  Name = ZINC02130274
REMARK  5 active torsions:
REMARK  status: ('A' for Active; 'I' for Inactive)
REMARK    1  A    between atoms: C_1  and  C_2
REMARK    2  A    between atoms: C_2  and  C_3
REMARK    3  A    between atoms: C_17  and  C_19
REMARK    4  A    between atoms: C_19  and  C_20
REMARK    5  A    between atoms: N_28  and  C_31
REMARK                            x       y       z     vdW  Elec       q    Type
REMARK                         _______ _______ _______ _____ _____    ______ ____
ROOT
ATOM      1  C   UNL     1       1.811  -3.745  -1.988  0.00  0.00    -0.026 A 
ATOM      2  C   UNL     1       2.328  -4.403  -0.890  0.00  0.00    +0.005 A 
ATOM      3  C   UNL     1       2.484  -3.739   0.312  0.00  0.00    +0.001 A 
ATOM      4  C   UNL     1       2.118  -2.409   0.417  0.00  0.00    +0.004 A 
ATOM      5  C   UNL     1       1.602  -1.748  -0.675  0.00  0.00    -0.027 A 
ATOM      6  C   UNL     1       1.442  -2.406  -1.891  0.00  0.00    +0.039 A 
ATOM      7  N   UNL     1       0.906  -1.536  -2.844  0.00  0.00    -0.286 N 
ATOM      8  C   UNL     1       0.688  -0.306  -2.342  0.00  0.00    +0.211 C 
ATOM      9  O   UNL     1       0.233   0.649  -2.937  0.00  0.00    -0.277 OA
ATOM     10  C   UNL     1       1.117  -0.344  -0.901  0.00  0.00    +0.050 C 
ATOM     11  C   UNL     1       2.218   0.684  -0.616  0.00  0.00    +0.088 C 
ATOM     12  C   UNL     1       1.468   1.899  -0.002  0.00  0.00    +0.073 C 
ATOM     13  C   UNL     1      -0.018   1.483   0.010  0.00  0.00    -0.053 C 
ATOM     14  C   UNL     1       1.985   1.948   1.418  0.00  0.00    +0.224 C 
ATOM     15  O   UNL     1       1.647   2.752   2.259  0.00  0.00    -0.275 OA
ATOM     16  N   UNL     1       2.874   0.965   1.601  0.00  0.00    -0.239 N 
ATOM     17  C   UNL     1       3.084   0.198   0.525  0.00  0.00    +0.225 C 
ATOM     18  O   UNL     1       3.848  -0.741   0.473  0.00  0.00    -0.275 OA
ATOM     19  H   UNL     1       0.713  -1.790  -3.760  0.00  0.00    +0.155 HD
ATOM     20  N   UNL     1       0.024   0.019  -0.016  0.00  0.00    +0.394 N 
ATOM     21  H   UNL     1       0.194  -0.348   0.927  0.00  0.00    -0.083 HD
ATOM     22  H   UNL     1      -0.862  -0.355  -0.374  0.00  0.00    -0.083 HD
ENDROOT
BRANCH  16  23
ATOM     23  C   UNL     1       3.561   0.746   2.876  0.00  0.00    +0.084 C 
ATOM     24  C   UNL     1       2.512   0.432   3.962  0.00  0.00    +0.023 C 
ATOM     25  C   UNL     1       3.199  -0.278   5.098  0.00  0.00    +0.002 C 
ATOM     26  C   UNL     1       3.642   0.689   6.213  0.00  0.00    +0.000 C 
ATOM     27  C   UNL     1       4.248   1.995   5.665  0.00  0.00    +0.000 C 
ATOM     28  C   UNL     1       5.163   1.758   4.494  0.00  0.00    +0.002 C 
ATOM     29  C   UNL     1       4.350   1.927   3.195  0.00  0.00    +0.023 C 
ENDBRANCH  16  23
BRANCH   1  31
ATOM     30  C   UNL     1       2.870  -4.228  -4.177  0.00  0.00    +0.009 C 
ATOM     31  C   UNL     1       1.646  -4.478  -3.294  0.00  0.00    +0.033 C 
ENDBRANCH   1  31
BRANCH  13  32
ATOM     32  C   UNL     1      -0.705   1.999   1.276  0.00  0.00    +0.020 C 
BRANCH  32  33
ATOM     33  C   UNL     1      -2.164   1.622   1.245  0.00  0.00    -0.049 A 
ATOM     34  C   UNL     1      -3.088   2.480   0.678  0.00  0.00    +0.003 A 
ATOM     35  C   UNL     1      -4.425   2.132   0.645  0.00  0.00    +0.000 A 
ATOM     36  C   UNL     1      -4.840   0.931   1.189  0.00  0.00    +0.000 A 
ATOM     37  C   UNL     1      -3.917   0.075   1.760  0.00  0.00    +0.000 A 
ATOM     38  C   UNL     1      -2.579   0.420   1.788  0.00  0.00    +0.003 A 
ENDBRANCH  32  33
ENDBRANCH  13  32
TORSDOF 4
