REMARK  Name = ZINC14624289
REMARK  12 active torsions:
REMARK  status: ('A' for Active; 'I' for Inactive)
REMARK    1  A    between atoms: C_1  and  C_2
REMARK    2  A    between atoms: C_2  and  C_3
REMARK    3  A    between atoms: C_3  and  C_4
REMARK    4  A    between atoms: C_4  and  N_5
REMARK    5  A    between atoms: C_6  and  N_34
REMARK    6  A    between atoms: C_7  and  N_14
REMARK    7  A    between atoms: N_14  and  C_15
REMARK    8  A    between atoms: C_15  and  C_16
REMARK    9  A    between atoms: C_16  and  O_17
REMARK   10  A    between atoms: O_17  and  C_18
REMARK   11  A    between atoms: C_19  and  C_21
REMARK   12  A    between atoms: C_30  and  C_33
REMARK                            x       y       z     vdW  Elec       q    Type
REMARK                         _______ _______ _______ _____ _____    ______ ____
ROOT
ATOM      1  N   UNL     1      -0.503   1.060   1.586  0.00  0.00    -0.258 N 
ATOM      2  C   UNL     1      -1.656   0.387   1.776  0.00  0.00    +0.251 C 
ATOM      3  O   UNL     1      -2.084  -0.343   0.903  0.00  0.00    -0.270 OA
ENDROOT
BRANCH   2   4
ATOM      4  C   UNL     1      -2.396   0.536   3.042  0.00  0.00    +0.039 A 
ATOM      5  C   UNL     1      -2.317   1.733   3.760  0.00  0.00    +0.014 A 
ATOM      6  C   UNL     1      -3.012   1.869   4.942  0.00  0.00    +0.017 A 
ATOM      7  C   UNL     1      -3.787   0.820   5.418  0.00  0.00    +0.030 A 
ATOM      8  C   UNL     1      -3.873  -0.384   4.712  0.00  0.00    +0.048 A 
ATOM      9  C   UNL     1      -3.180  -0.517   3.519  0.00  0.00    +0.037 A 
ATOM     10  N   UNL     1      -4.641  -1.449   5.178  0.00  0.00    -0.284 N 
ATOM     11  C   UNL     1      -5.652  -1.373   6.039  0.00  0.00    +0.230 C 
ATOM     12  O   UNL     1      -6.227  -2.397   6.339  0.00  0.00    -0.274 OA
ATOM     13  C   UNL     1      -6.121  -0.086   6.662  0.00  0.00    +0.134 C 
ATOM     14  S   UNL     1      -4.683   0.994   6.930  0.00  0.00    -0.111 S 
ATOM     15  C   UNL     1      -7.114   0.605   5.725  0.00  0.00    +0.029 C 
ATOM     16  H   UNL     1      -4.416  -2.331   4.843  0.00  0.00    +0.155 HD
ENDBRANCH   2   4
BRANCH   1  19
ATOM     17  N   UNL     1       0.778   2.454   4.735  0.00  0.00    -0.280 N 
ATOM     18  C   UNL     1       0.339   1.537   3.808  0.00  0.00    +0.127 A 
ATOM     19  C   UNL     1      -0.053   1.976   2.560  0.00  0.00    +0.140 A 
ATOM     20  C   UNL     1      -0.001   3.354   2.277  0.00  0.00    +0.277 A 
ATOM     21  O   UNL     1      -0.346   3.769   1.183  0.00  0.00    -0.266 OA
ATOM     22  N   UNL     1       0.432   4.210   3.222  0.00  0.00    -0.273 N 
ATOM     23  H   UNL     1       0.470   5.189   3.022  0.00  0.00    +0.173 HD
ATOM     24  C   UNL     1       0.815   3.764   4.432  0.00  0.00    +0.331 A 
ATOM     25  O   UNL     1       1.202   4.559   5.266  0.00  0.00    -0.246 OA
BRANCH  18  26
ATOM     26  N   UNL     1       0.296   0.199   4.120  0.00  0.00    -0.343 N 
ATOM     27  H   UNL     1       0.074  -0.452   3.435  0.00  0.00    +0.144 HD
ATOM     28  H   UNL     1       0.488  -0.095   5.024  0.00  0.00    +0.144 HD
ENDBRANCH  18  26
BRANCH  17  29
ATOM     29  C   UNL     1       1.202   2.001   6.062  0.00  0.00    +0.128 C 
BRANCH  29  30
ATOM     30  C   UNL     1      -0.002   1.993   7.007  0.00  0.00    +0.021 C 
BRANCH  30  32
ATOM     31  C   UNL     1      -0.763   1.513   9.338  0.00  0.00    +0.004 C 
ATOM     32  C   UNL     1       0.441   1.521   8.393  0.00  0.00    -0.002 C 
ENDBRANCH  30  32
ENDBRANCH  29  30
ENDBRANCH  17  29
ENDBRANCH   1  19
BRANCH   1  33
ATOM     33  C   UNL     1       0.281   0.840   0.368  0.00  0.00    +0.142 C 
BRANCH  33  34
ATOM     34  C   UNL     1      -0.279   1.705  -0.762  0.00  0.00    +0.179 C 
BRANCH  34  35
ATOM     35  O   UNL     1      -1.631   1.324  -1.029  0.00  0.00    -0.381 OA
ATOM     36  C   UNL     1      -2.251   2.075  -2.074  0.00  0.00    +0.194 C 
ENDBRANCH  34  35
ENDBRANCH  33  34
ENDBRANCH   1  33
TORSDOF 9
