REMARK  Name = ZINC51711522
REMARK  5 active torsions:
REMARK  status: ('A' for Active; 'I' for Inactive)
REMARK    1  A    between atoms: C_1  and  C_2
REMARK    2  A    between atoms: C_2  and  C_4
REMARK    3  A    between atoms: C_2  and  N_10
REMARK    4  A    between atoms: C_4  and  C_5
REMARK    5  A    between atoms: C_17  and  C_20
REMARK                            x       y       z     vdW  Elec       q    Type
REMARK                         _______ _______ _______ _____ _____    ______ ____
ROOT
ATOM      1  N   UNL     1       0.688  -0.481  -1.202  0.00  0.00    -0.296 N 
ATOM      2  C   UNL     1       2.031  -0.587  -1.215  0.00  0.00    +0.303 C 
ATOM      3  O   UNL     1       2.681  -0.206  -0.261  0.00  0.00    -0.253 OA
ATOM      4  N   UNL     1       2.654  -1.116  -2.286  0.00  0.00    -0.281 N 
ATOM      5  C   UNL     1       4.107  -1.353  -2.277  0.00  0.00    +0.137 C 
ATOM      6  C   UNL     1       4.706  -0.734  -3.545  0.00  0.00    +0.180 C 
ATOM      7  O   UNL     1       3.991  -1.214  -4.686  0.00  0.00    -0.364 OA
ATOM      8  C   UNL     1       2.609  -0.849  -4.708  0.00  0.00    +0.221 C 
ATOM      9  C   UNL     1       1.902  -1.479  -3.498  0.00  0.00    +0.150 C 
ATOM     10  H   UNL     1       0.174  -0.717  -1.990  0.00  0.00    +0.151 HD
ENDROOT
BRANCH   8  11
ATOM     11  C   UNL     1       1.975  -1.352  -5.979  0.00  0.00    +0.241 C 
ATOM     12  O   UNL     1       2.616  -2.041  -6.745  0.00  0.00    -0.273 OA
ATOM     13  N   UNL     1       0.697  -1.037  -6.265  0.00  0.00    -0.327 N 
ATOM     14  H   UNL     1       0.184  -0.486  -5.653  0.00  0.00    +0.145 HD
ATOM     15  H   UNL     1       0.289  -1.361  -7.083  0.00  0.00    +0.145 HD
ENDBRANCH   8  11
BRANCH   1  17
ATOM     16  C   UNL     1      -0.023   1.522   0.009  0.00  0.00    +0.028 C 
ATOM     17  C   UNL     1       0.002  -0.007   0.004  0.00  0.00    +0.076 C 
BRANCH  17  18
ATOM     18  C   UNL     1      -1.432  -0.541   0.018  0.00  0.00    +0.057 C 
BRANCH  18  19
ATOM     19  C   UNL     1      -1.407  -2.043   0.137  0.00  0.00    -0.039 A 
ATOM     20  C   UNL     1      -1.367  -2.836  -0.995  0.00  0.00    +0.011 A 
ATOM     21  C   UNL     1      -1.346  -4.184  -0.853  0.00  0.00    +0.045 A 
ATOM     22  S   UNL     1      -1.383  -4.369   0.923  0.00  0.00    -0.105 S 
ATOM     23  C   UNL     1      -1.418  -2.637   1.356  0.00  0.00    +0.049 A 
ENDBRANCH  18  19
ENDBRANCH  17  18
ENDBRANCH   1  17
TORSDOF 4
