REMARK  Name = ZINC19264947
REMARK  3 active torsions:
REMARK  status: ('A' for Active; 'I' for Inactive)
REMARK    1  A    between atoms: C_1  and  C_2
REMARK    2  A    between atoms: C_7  and  C_8
REMARK    3  A    between atoms: C_8  and  C_9
REMARK                            x       y       z     vdW  Elec       q    Type
REMARK                         _______ _______ _______ _____ _____    ______ ____
ROOT
ATOM      1  C   UNL     1       3.526   0.837  -0.027  0.00  0.00    +0.133 C 
ENDROOT
BRANCH   1   2
ATOM      2  C   UNL     1       2.022   0.747  -0.013  0.00  0.00    +0.223 A 
ATOM      3  N   UNL     1       1.192   1.749   0.000  0.00  0.00    -0.111 NA
ATOM      4  N   UNL     1      -0.016   1.306   0.009  0.00  0.00    -0.093 NA
ATOM      5  C   UNL     1       0.002  -0.004   0.002  0.00  0.00    +0.305 A 
ATOM      6  O   UNL     1       1.293  -0.386  -0.012  0.00  0.00    -0.409 OA
ATOM      7  N   UNL     1      -1.100  -0.839   0.009  0.00  0.00    -0.312 N 
ATOM      8  H   UNL     1      -0.963  -1.930   0.001  0.00  0.00    +0.147 HD
ATOM      9  H   UNL     1      -2.114  -0.412   0.021  0.00  0.00    +0.147 HD
ENDBRANCH   1   2
BRANCH   1  16
ATOM     10  C   UNL     1       3.953  -1.641   1.395  0.00  0.00    +0.044 C 
ATOM     11  C   UNL     1       4.245  -0.326   2.070  0.00  0.00    -0.047 A 
ATOM     12  C   UNL     1       4.721  -0.305   3.368  0.00  0.00    +0.003 A 
ATOM     13  C   UNL     1       4.984   0.901   3.988  0.00  0.00    +0.000 A 
ATOM     14  C   UNL     1       4.776   2.088   3.309  0.00  0.00    +0.000 A 
ATOM     15  C   UNL     1       4.304   2.067   2.010  0.00  0.00    +0.004 A 
ATOM     16  C   UNL     1       4.041   0.860   1.390  0.00  0.00    -0.036 A 
ENDBRANCH   1  16
TORSDOF 2
