REMARK  Name = ZINC23295819
REMARK  4 active torsions:
REMARK  status: ('A' for Active; 'I' for Inactive)
REMARK    1  A    between atoms: C_9  and  O_25
REMARK    2  A    between atoms: C_10  and  C_11
REMARK    3  A    between atoms: C_11  and  N_12
REMARK    4  A    between atoms: N_15  and  C_18
REMARK                            x       y       z     vdW  Elec       q    Type
REMARK                         _______ _______ _______ _____ _____    ______ ____
ROOT
ATOM      1  C   UNL     1      -1.423   5.995   0.045  0.00  0.00    +0.124 C 
ENDROOT
BRANCH   1  11
ATOM      2  C   UNL     1      -0.013   1.076   0.008  0.00  0.00    +0.001 A 
ATOM      3  C   UNL     1      -1.235   1.746   0.017  0.00  0.00    +0.001 A 
ATOM      4  C   UNL     1      -1.288   3.105   0.030  0.00  0.00    +0.009 A 
ATOM      5  C   UNL     1      -0.095   3.849   0.023  0.00  0.00    -0.010 A 
ATOM      6  C   UNL     1       1.148   3.167   0.008  0.00  0.00    -0.017 A 
ATOM      7  C   UNL     1       1.163   1.762   0.000  0.00  0.00    +0.008 A 
ATOM      8  C   UNL     1       2.342   3.909  -0.001  0.00  0.00    +0.012 A 
ATOM      9  C   UNL     1       2.292   5.268   0.006  0.00  0.00    +0.046 A 
ATOM     10  C   UNL     1       1.067   5.942   0.021  0.00  0.00    +0.122 A 
ATOM     11  C   UNL     1      -0.112   5.253   0.029  0.00  0.00    +0.016 A 
BRANCH  10  12
ATOM     12  O   UNL     1       1.050   7.301   0.027  0.00  0.00    -0.506 OA
ATOM     13  H   UNL     1       0.090   7.838   0.039  0.00  0.00    +0.292 HD
ENDBRANCH  10  12
ENDBRANCH   1  11
BRANCH   1  14
ATOM     14  N   UNL     1      -1.837   6.230   1.435  0.00  0.00    -0.295 NA
ATOM     15  C   UNL     1      -2.147   4.963   2.113  0.00  0.00    +0.103 C 
ATOM     16  C   UNL     1      -2.496   5.244   3.577  0.00  0.00    +0.120 C 
ATOM     17  N   UNL     1      -3.639   6.164   3.638  0.00  0.00    -0.327 N 
ATOM     18  C   UNL     1      -3.329   7.431   2.960  0.00  0.00    +0.120 C 
ATOM     19  C   UNL     1      -2.981   7.151   1.496  0.00  0.00    +0.103 C 
BRANCH  17  20
ATOM     20  C   UNL     1      -4.033   6.388   4.960  0.00  0.00    +0.030 A 
ATOM     21  C   UNL     1      -4.081   7.682   5.463  0.00  0.00    +0.026 A 
ATOM     22  C   UNL     1      -4.475   7.900   6.769  0.00  0.00    +0.040 A 
ATOM     23  C   UNL     1      -4.811   6.830   7.580  0.00  0.00    +0.124 A 
ATOM     24  C   UNL     1      -4.759   5.539   7.083  0.00  0.00    +0.040 A 
ATOM     25  C   UNL     1      -4.371   5.316   5.776  0.00  0.00    +0.026 A 
ATOM     26  F   UNL     1      -5.191   7.046   8.858  0.00  0.00    -0.205 F 
ENDBRANCH  17  20
ENDBRANCH   1  14
TORSDOF 4
