REMARK  Name = ZINC43570292
REMARK  6 active torsions:
REMARK  status: ('A' for Active; 'I' for Inactive)
REMARK    1  A    between atoms: C_1  and  C_2
REMARK    2  A    between atoms: C_4  and  N_11
REMARK    3  A    between atoms: C_7  and  N_8
REMARK    4  A    between atoms: N_11  and  S_12
REMARK    5  A    between atoms: S_12  and  C_15
REMARK    6  A    between atoms: C_15  and  C_16
REMARK                            x       y       z     vdW  Elec       q    Type
REMARK                         _______ _______ _______ _____ _____    ______ ____
ROOT
ATOM      1  S   UNL     1       0.140  -4.395  -2.459  0.00  0.00    +0.061 S 
ATOM      2  O   UNL     1       1.515  -4.504  -2.119  0.00  0.00    -0.154 OA
ATOM      3  O   UNL     1      -0.859  -4.988  -1.639  0.00  0.00    -0.154 OA
ENDROOT
BRANCH   1   4
ATOM      4  N   UNL     1      -0.181  -2.771  -2.408  0.00  0.00    -0.103 NA
BRANCH   4   8
ATOM      5  C   UNL     1      -0.538   1.447   0.088  0.00  0.00    +0.046 C 
ATOM      6  C   UNL     1      -0.247  -0.031   0.040  0.00  0.00    -0.018 A 
ATOM      7  C   UNL     1      -0.348  -0.715  -1.156  0.00  0.00    +0.032 A 
ATOM      8  C   UNL     1      -0.079  -2.077  -1.201  0.00  0.00    +0.074 A 
ATOM      9  C   UNL     1       0.291  -2.746  -0.041  0.00  0.00    +0.029 A 
ATOM     10  C   UNL     1       0.391  -2.057   1.151  0.00  0.00    +0.035 A 
ATOM     11  C   UNL     1       0.127  -0.700   1.190  0.00  0.00    +0.129 A 
BRANCH  11  12
ATOM     12  N   UNL     1       0.240   0.038   2.469  0.00  0.00    +0.057 N 
ATOM     13  O   UNL     1       0.674   1.166   2.480  0.00  0.00    -0.126 OA
ATOM     14  O   UNL     1      -0.101  -0.489   3.502  0.00  0.00    -0.126 OA
ENDBRANCH  11  12
ENDBRANCH   4   8
ENDBRANCH   1   4
BRANCH   1  15
ATOM     15  C   UNL     1      -0.114  -4.867  -4.192  0.00  0.00    +0.175 C 
BRANCH  15  16
ATOM     16  C   UNL     1       0.157  -6.363  -4.359  0.00  0.00    -0.049 C 
ATOM     17  C   UNL     1       0.067  -6.735  -5.840  0.00  0.00    -0.014 C 
ATOM     18  C   UNL     1       0.339  -8.234  -6.002  0.00  0.00    -0.003 C 
ATOM     19  C   UNL     1      -0.657  -9.019  -5.144  0.00  0.00    -0.019 C 
ATOM     20  C   UNL     1      -0.539  -8.562  -3.688  0.00  0.00    -0.082 C 
ATOM     21  N   UNL     1      -0.837  -7.128  -3.597  0.00  0.00    +0.382 N 
ATOM     22  H   UNL     1      -0.812  -6.841  -2.630  0.00  0.00    -0.085 HD
ATOM     23  H   UNL     1      -1.756  -6.951  -3.974  0.00  0.00    -0.085 HD
ENDBRANCH  15  16
ENDBRANCH   1  15
TORSDOF 5
