REMARK  Name = ZINC28060593
REMARK  4 active torsions:
REMARK  status: ('A' for Active; 'I' for Inactive)
REMARK    1  A    between atoms: C_1  and  S_2
REMARK    2  A    between atoms: S_2  and  C_3
REMARK    3  A    between atoms: C_6  and  C_9
REMARK    4  A    between atoms: C_26  and  C_28
REMARK                            x       y       z     vdW  Elec       q    Type
REMARK                         _______ _______ _______ _____ _____    ______ ____
ROOT
ATOM      1  C   UNL     1       3.671   2.188  -0.021  0.00  0.00    +0.234 C 
ATOM      2  C   UNL     1       3.985   2.649   1.385  0.00  0.00    +0.026 C 
ATOM      3  C   UNL     1       3.494   3.814   1.811  0.00  0.00    +0.050 C 
ATOM      4  C   UNL     1       2.677   4.622   0.874  0.00  0.00    +0.038 A 
ATOM      5  C   UNL     1       1.861   5.652   1.323  0.00  0.00    +0.013 A 
ATOM      6  C   UNL     1       1.119   6.380   0.411  0.00  0.00    +0.001 A 
ATOM      7  C   UNL     1       1.188   6.085  -0.939  0.00  0.00    +0.004 A 
ATOM      8  C   UNL     1       1.997   5.060  -1.394  0.00  0.00    +0.046 A 
ATOM      9  C   UNL     1       2.744   4.323  -0.494  0.00  0.00    +0.131 A 
ATOM     10  O   UNL     1       3.546   3.306  -0.899  0.00  0.00    -0.479 OA
ATOM     11  N   UNL     1       3.736   4.300   3.102  0.00  0.00    -0.282 N 
ATOM     12  C   UNL     1       4.734   3.681   3.836  0.00  0.00    +0.240 A 
ATOM     13  N   UNL     1       5.338   4.035   4.934  0.00  0.00    -0.092 NA
ATOM     14  N   UNL     1       6.222   3.154   5.260  0.00  0.00    -0.021 NA
ATOM     15  N   UNL     1       6.236   2.189   4.399  0.00  0.00    -0.042 NA
ATOM     16  N   UNL     1       5.267   2.494   3.445  0.00  0.00    -0.201 N 
ATOM     17  C   UNL     1       4.842   1.766   2.257  0.00  0.00    +0.181 C 
ATOM     18  H   UNL     1       3.145   5.141   3.493  0.00  0.00    +0.155 HD
ENDROOT
BRANCH   1  22
ATOM     19  C   UNL     1       0.002  -0.004   0.002  0.00  0.00    +0.008 A 
ATOM     20  C   UNL     1      -0.012   1.379   0.138  0.00  0.00    +0.015 A 
ATOM     21  C   UNL     1       1.175   2.084   0.130  0.00  0.00    +0.008 A 
ATOM     22  C   UNL     1       2.377   1.415  -0.013  0.00  0.00    -0.003 A 
ATOM     23  C   UNL     1       2.395   0.039  -0.148  0.00  0.00    +0.008 A 
ATOM     24  C   UNL     1       1.212  -0.673  -0.141  0.00  0.00    +0.015 A 
BRANCH  19  26
ATOM     25  C   UNL     1      -0.991  -2.634  -0.190  0.00  0.00    +0.090 C 
ATOM     26  S   UNL     1      -1.510  -0.908   0.012  0.00  0.00    -0.129 S 
ENDBRANCH  19  26
ENDBRANCH   1  22
BRANCH  17  27
ATOM     27  C   UNL     1       4.050   0.553   2.672  0.00  0.00    +0.019 A 
ATOM     28  C   UNL     1       4.306  -0.756   2.434  0.00  0.00    +0.013 A 
ATOM     29  C   UNL     1       3.431  -1.710   2.920  0.00  0.00    +0.008 A 
ATOM     30  C   UNL     1       2.337  -1.307   3.610  0.00  0.00    +0.045 A 
ATOM     31  S   UNL     1       2.525   0.469   3.596  0.00  0.00    -0.099 S 
ENDBRANCH  17  27
TORSDOF 3
