REMARK  Name = ZINC00669005
REMARK  10 active torsions:
REMARK  status: ('A' for Active; 'I' for Inactive)
REMARK    1  A    between atoms: C_1  and  C_2
REMARK    2  A    between atoms: C_2  and  O_3
REMARK    3  A    between atoms: O_3  and  C_4
REMARK    4  A    between atoms: C_4  and  C_6
REMARK    5  A    between atoms: C_7  and  C_20
REMARK    6  A    between atoms: C_10  and  N_11
REMARK    7  A    between atoms: C_12  and  C_14
REMARK    8  A    between atoms: C_18  and  C_19
REMARK    9  A    between atoms: C_23  and  C_27
REMARK   10  A    between atoms: C_24  and  C_26
REMARK                            x       y       z     vdW  Elec       q    Type
REMARK                         _______ _______ _______ _____ _____    ______ ____
ROOT
ATOM      1  C   UNL     1      -2.210   5.784   0.050  0.00  0.00    +0.095 A 
ATOM      2  C   UNL     1      -3.527   6.394   0.055  0.00  0.00    +0.005 A 
ATOM      3  C   UNL     1      -4.590   5.551   0.056  0.00  0.00    +0.056 A 
ATOM      4  S   UNL     1      -3.835   3.939   0.043  0.00  0.00    -0.080 S 
ATOM      5  C   UNL     1      -2.166   4.396   0.037  0.00  0.00    +0.087 A 
ENDROOT
BRANCH   2   6
ATOM      6  C   UNL     1      -3.701   7.866   0.065  0.00  0.00    -0.016 A 
ATOM      7  C   UNL     1      -3.014   8.647   0.994  0.00  0.00    +0.009 A 
ATOM      8  C   UNL     1      -3.177  10.017   0.995  0.00  0.00    +0.004 A 
ATOM      9  C   UNL     1      -4.028  10.616   0.084  0.00  0.00    -0.048 A 
ATOM     10  C   UNL     1      -4.717   9.846  -0.836  0.00  0.00    -0.047 A 
ATOM     11  C   UNL     1      -4.558   8.475  -0.850  0.00  0.00    +0.012 A 
ATOM     12  C   UNL     1      -5.643  10.506  -1.826  0.00  0.00    +0.044 C 
ATOM     13  C   UNL     1      -4.206  12.112   0.094  0.00  0.00    +0.044 C 
ENDBRANCH   2   6
BRANCH   5  14
ATOM     14  N   UNL     1      -1.051   3.574   0.027  0.00  0.00    -0.275 N 
ATOM     15  C   UNL     1      -1.202   2.235   0.020  0.00  0.00    +0.252 C 
ATOM     16  O   UNL     1      -2.317   1.748   0.023  0.00  0.00    -0.270 OA
ATOM     17  H   UNL     1      -0.162   3.962   0.024  0.00  0.00    +0.156 HD
BRANCH  15  18
ATOM     18  C   UNL     1      -0.016   1.360   0.009  0.00  0.00    +0.078 A 
ATOM     19  C   UNL     1       1.394   1.775  -0.002  0.00  0.00    +0.054 A 
ATOM     20  C   UNL     1       2.112   0.642  -0.015  0.00  0.00    +0.196 A 
ATOM     21  O   UNL     1       1.276  -0.408  -0.012  0.00  0.00    -0.467 OA
ATOM     22  C   UNL     1       0.002  -0.004   0.002  0.00  0.00    +0.114 A 
ATOM     23  C   UNL     1      -1.208  -0.902   0.008  0.00  0.00    +0.087 C 
ENDBRANCH  15  18
ENDBRANCH   5  14
BRANCH   1  24
ATOM     24  C   UNL     1      -0.991   6.591   0.055  0.00  0.00    +0.342 C 
ATOM     25  O   UNL     1      -0.486   6.937  -0.997  0.00  0.00    -0.245 OA
BRANCH  24  26
ATOM     26  O   UNL     1      -0.425   6.952   1.225  0.00  0.00    -0.461 OA
BRANCH  26  28
ATOM     27  C   UNL     1       1.257   8.049   2.571  0.00  0.00    +0.048 C 
ATOM     28  C   UNL     1       0.765   7.740   1.155  0.00  0.00    +0.229 C 
ENDBRANCH  26  28
ENDBRANCH  24  26
ENDBRANCH   1  24
TORSDOF 6
