REMARK  Name = ZINC29569029
REMARK  12 active torsions:
REMARK  status: ('A' for Active; 'I' for Inactive)
REMARK    1  A    between atoms: C_1  and  S_2
REMARK    2  A    between atoms: S_2  and  N_5
REMARK    3  A    between atoms: C_13  and  C_15
REMARK    4  A    between atoms: C_15  and  C_17
REMARK    5  A    between atoms: C_15  and  N_26
REMARK    6  A    between atoms: C_17  and  O_18
REMARK    7  A    between atoms: O_18  and  C_19
REMARK    8  A    between atoms: C_19  and  C_20
REMARK    9  A    between atoms: C_27  and  CA_29
REMARK   10  A    between atoms: CA_29  and  C_31
REMARK   11  A    between atoms: CA_29  and  N_33
REMARK   12  A    between atoms: C_31  and  O_32
REMARK                            x       y       z     vdW  Elec       q    Type
REMARK                         _______ _______ _______ _____ _____    ______ ____
ROOT
ATOM      1  C   UNL     1       0.002  -0.004   0.002  0.00  0.00    +0.185 C 
ENDROOT
BRANCH   1  10
ATOM      2  N   UNL     1       6.980  -0.328  -0.935  0.00  0.00    -0.206 N 
ATOM      3  C   UNL     1       5.570  -0.723  -0.852  0.00  0.00    +0.143 C 
ATOM      4  C   UNL     1       4.785   0.490  -1.366  0.00  0.00    +0.018 C 
ATOM      5  C   UNL     1       3.979   0.111  -2.606  0.00  0.00    +0.032 C 
ATOM      6  C   UNL     1       2.962  -0.975  -2.239  0.00  0.00    +0.109 C 
ATOM      7  N   UNL     1       2.158  -0.505  -1.102  0.00  0.00    -0.300 N 
ATOM      8  C   UNL     1       2.849  -0.046   0.111  0.00  0.00    +0.109 C 
ATOM      9  C   UNL     1       3.867   1.027  -0.272  0.00  0.00    +0.032 C 
ATOM     10  C   UNL     1       0.813  -0.489  -1.172  0.00  0.00    +0.238 C 
ATOM     11  O   UNL     1       0.254  -0.865  -2.181  0.00  0.00    -0.273 OA
ATOM     12  C   UNL     1       5.837   1.513  -1.716  0.00  0.00    -0.017 A 
ATOM     13  C   UNL     1       7.084   0.971  -1.439  0.00  0.00    +0.055 A 
ATOM     14  C   UNL     1       8.225   1.737  -1.681  0.00  0.00    +0.025 A 
ATOM     15  C   UNL     1       8.111   3.014  -2.188  0.00  0.00    +0.002 A 
ATOM     16  C   UNL     1       6.865   3.545  -2.462  0.00  0.00    +0.000 A 
ATOM     17  C   UNL     1       5.729   2.793  -2.224  0.00  0.00    +0.006 A 
BRANCH   2  19
ATOM     18  C   UNL     1       8.704  -2.189  -2.001  0.00  0.00    +0.218 C 
ATOM     19  S   UNL     1       8.261  -1.280  -0.495  0.00  0.00    +0.043 S 
ATOM     20  O   UNL     1       9.293  -0.365  -0.154  0.00  0.00    -0.155 OA
ATOM     21  O   UNL     1       7.732  -2.172   0.477  0.00  0.00    -0.155 OA
ENDBRANCH   2  19
ENDBRANCH   1  10
BRANCH   1  22
ATOM     22  N   UNL     1      -1.368  -0.510  -0.108  0.00  0.00    -0.303 N 
ATOM     23  C   UNL     1      -2.122  -0.189  -1.179  0.00  0.00    +0.201 C 
ATOM     24  O   UNL     1      -1.665   0.519  -2.051  0.00  0.00    -0.278 OA
ATOM     25  H   UNL     1      -1.782  -1.153   0.683  0.00  0.00    +0.149 HD
BRANCH  23  26
ATOM     26  CA  UNL     1      -3.531  -0.710  -1.292  0.00  0.00    +0.038 C 
BRANCH  26  27
ATOM     27  N   UNL     1      -4.286   0.122  -2.238  0.00  0.00    +0.387 N 
ATOM     28  H1  UNL     1      -5.315  -0.258  -2.320  0.00  0.00    -0.089 HD
ATOM     29  H2  UNL     1      -3.802   0.086  -3.225  0.00  0.00    -0.089 HD
ATOM     30  H3  UNL     1      -4.307   1.161  -1.877  0.00  0.00    -0.089 HD
ENDBRANCH  26  27
BRANCH  26  31
ATOM     31  C   UNL     1      -3.502  -2.155  -1.794  0.00  0.00    +0.149 C 
BRANCH  31  32
ATOM     32  O   UNL     1      -4.828  -2.687  -1.790  0.00  0.00    -0.396 OA
ATOM     33  H   UNL     1      -5.007  -3.721  -2.122  0.00  0.00    +0.209 HD
ENDBRANCH  31  32
ENDBRANCH  26  31
ENDBRANCH  23  26
ENDBRANCH   1  22
BRANCH   1  34
ATOM     34  C   UNL     1      -0.019   1.526   0.010  0.00  0.00    +0.192 C 
BRANCH  34  35
ATOM     35  O   UNL     1      -0.688   1.987   1.186  0.00  0.00    -0.373 OA
BRANCH  35  36
ATOM     36  C   UNL     1      -0.762   3.410   1.292  0.00  0.00    +0.195 C 
BRANCH  36  37
ATOM     37  C   UNL     1      -1.484   3.782   2.562  0.00  0.00    -0.022 A 
ATOM     38  C   UNL     1      -2.856   3.947   2.555  0.00  0.00    +0.006 A 
ATOM     39  C   UNL     1      -3.518   4.283   3.721  0.00  0.00    +0.000 A 
ATOM     40  C   UNL     1      -2.806   4.464   4.892  0.00  0.00    +0.000 A 
ATOM     41  C   UNL     1      -1.433   4.304   4.898  0.00  0.00    +0.000 A 
ATOM     42  C   UNL     1      -0.772   3.963   3.733  0.00  0.00    +0.006 A 
ENDBRANCH  36  37
ENDBRANCH  35  36
ENDBRANCH  34  35
ENDBRANCH   1  34
TORSDOF 11
