REMARK  Name = ZINC59830437
REMARK  8 active torsions:
REMARK  status: ('A' for Active; 'I' for Inactive)
REMARK    1  A    between atoms: C_1  and  C_2
REMARK    2  A    between atoms: C_2  and  C_23
REMARK    3  A    between atoms: N_3  and  N_4
REMARK    4  A    between atoms: C_7  and  S_10
REMARK    5  A    between atoms: S_10  and  C_11
REMARK    6  A    between atoms: C_11  and  C_12
REMARK    7  A    between atoms: N_14  and  C_15
REMARK    8  A    between atoms: C_28  and  O_29
REMARK                            x       y       z     vdW  Elec       q    Type
REMARK                         _______ _______ _______ _____ _____    ______ ____
ROOT
ATOM      1  N   UNL     1       0.049   0.036   2.340  0.00  0.00    -0.205 N 
ATOM      2  C   UNL     1       0.067  -0.662   3.534  0.00  0.00    +0.232 A 
ATOM      3  N   UNL     1       0.082  -1.972   3.664  0.00  0.00    -0.186 NA
ATOM      4  C   UNL     1       0.098  -2.295   4.962  0.00  0.00    +0.211 A 
ATOM      5  N   UNL     1       0.092  -1.194   5.675  0.00  0.00    -0.144 NA
ATOM      6  N   UNL     1       0.077  -0.120   4.770  0.00  0.00    -0.245 N 
ATOM      7  H   UNL     1       0.043   1.006   2.346  0.00  0.00    +0.177 HD
ATOM      8  H   UNL     1       0.073   0.825   4.990  0.00  0.00    +0.192 HD
ENDROOT
BRANCH   1  11
ATOM      9  C   UNL     1       0.014   1.504   0.011  0.00  0.00    +0.068 C 
ATOM     10  C   UNL     1       0.023  -0.003   0.002  0.00  0.00    +0.067 C 
ATOM     11  N   UNL     1       0.040  -0.658   1.123  0.00  0.00    -0.184 NA
BRANCH  10  12
ATOM     12  C   UNL     1       0.013  -0.733  -1.278  0.00  0.00    +0.039 A 
ATOM     13  C   UNL     1       0.001  -0.032  -2.486  0.00  0.00    +0.013 A 
ATOM     14  C   UNL     1      -0.008  -0.721  -3.680  0.00  0.00    +0.001 A 
ATOM     15  C   UNL     1      -0.006  -2.105  -3.688  0.00  0.00    +0.004 A 
ATOM     16  C   UNL     1       0.006  -2.810  -2.499  0.00  0.00    +0.046 A 
ATOM     17  C   UNL     1       0.022  -2.134  -1.290  0.00  0.00    +0.126 A 
BRANCH  17  18
ATOM     18  O   UNL     1       0.040  -2.826  -0.122  0.00  0.00    -0.506 OA
ATOM     19  H   UNL     1      -0.838  -3.032   0.227  0.00  0.00    +0.292 HD
ENDBRANCH  17  18
ENDBRANCH  10  12
ENDBRANCH   1  11
BRANCH   4  20
ATOM     20  S   UNL     1       0.121  -3.933   5.609  0.00  0.00    -0.075 S 
BRANCH  20  21
ATOM     21  C   UNL     1       0.135  -3.695   7.407  0.00  0.00    +0.173 C 
BRANCH  21  22
ATOM     22  C   UNL     1       0.156  -5.037   8.092  0.00  0.00    +0.227 C 
ATOM     23  O   UNL     1       0.161  -6.054   7.432  0.00  0.00    -0.275 OA
ATOM     24  N   UNL     1       0.169  -5.107   9.438  0.00  0.00    -0.285 N 
ATOM     25  H   UNL     1       0.233  -4.295   9.965  0.00  0.00    +0.155 HD
BRANCH  24  26
ATOM     26  C   UNL     1       0.091  -6.350  10.075  0.00  0.00    +0.036 A 
ATOM     27  C   UNL     1      -0.599  -6.476  11.273  0.00  0.00    +0.043 A 
ATOM     28  C   UNL     1      -0.676  -7.705  11.900  0.00  0.00    +0.044 A 
ATOM     29  C   UNL     1      -0.065  -8.811  11.335  0.00  0.00    +0.040 A 
ATOM     30  C   UNL     1       0.624  -8.688  10.141  0.00  0.00    +0.044 A 
ATOM     31  C   UNL     1       0.698  -7.462   9.507  0.00  0.00    +0.043 A 
ATOM     32 CL   UNL     1       1.389 -10.077   9.434  0.00  0.00    -0.083 Cl
ATOM     33 CL   UNL     1      -1.538  -7.863  13.399  0.00  0.00    -0.083 Cl
ENDBRANCH  24  26
ENDBRANCH  21  22
ENDBRANCH  20  21
ENDBRANCH   4  20
TORSDOF 7
