REMARK  Name = ZINC16755508
REMARK  6 active torsions:
REMARK  status: ('A' for Active; 'I' for Inactive)
REMARK    1  A    between atoms: C_3  and  O_29
REMARK    2  A    between atoms: C_6  and  C_7
REMARK    3  A    between atoms: N_11  and  C_22
REMARK    4  A    between atoms: N_13  and  C_14
REMARK    5  A    between atoms: C_17  and  O_20
REMARK    6  A    between atoms: C_25  and  O_28
REMARK                            x       y       z     vdW  Elec       q    Type
REMARK                         _______ _______ _______ _____ _____    ______ ____
ROOT
ATOM      1  C   UNL     1      -1.300   2.127  -0.091  0.00  0.00    +0.028 C 
ATOM      2  C   UNL     1      -1.316   3.474   0.072  0.00  0.00    +0.078 C 
ATOM      3  C   UNL     1      -2.467   4.389   0.193  0.00  0.00    +0.263 C 
ATOM      4  O   UNL     1      -3.612   3.978   0.154  0.00  0.00    -0.269 OA
ATOM      5  N   UNL     1      -2.199   5.674   0.351  0.00  0.00    -0.214 N 
ATOM      6  C   UNL     1      -0.893   6.120   0.386  0.00  0.00    +0.173 C 
ATOM      7  N   UNL     1      -0.453   7.349   0.529  0.00  0.00    -0.225 NA
ATOM      8  S   UNL     1       0.052   4.617   0.191  0.00  0.00    -0.048 S 
ENDROOT
BRANCH   1  14
ATOM      9  C   UNL     1       1.082   2.159  -0.801  0.00  0.00    +0.011 A 
ATOM     10  C   UNL     1       2.265   1.505  -1.062  0.00  0.00    +0.046 A 
ATOM     11  C   UNL     1       2.352   0.128  -0.895  0.00  0.00    +0.117 A 
ATOM     12  C   UNL     1       1.246  -0.596  -0.463  0.00  0.00    +0.046 A 
ATOM     13  C   UNL     1       0.059   0.048  -0.199  0.00  0.00    +0.011 A 
ATOM     14  C   UNL     1      -0.035   1.435  -0.366  0.00  0.00    -0.024 A 
BRANCH  11  15
ATOM     15  O   UNL     1       3.521  -0.512  -1.154  0.00  0.00    -0.507 OA
ATOM     16  H   UNL     1       3.609  -0.816  -2.068  0.00  0.00    +0.292 HD
ENDBRANCH  11  15
ENDBRANCH   1  14
BRANCH   7  17
ATOM     17  C   UNL     1       0.894   7.597   0.540  0.00  0.00    +0.067 A 
ATOM     18  C   UNL     1       1.749   6.791   1.294  0.00  0.00    +0.031 A 
ATOM     19  C   UNL     1       3.105   7.042   1.299  0.00  0.00    +0.047 A 
ATOM     20  C   UNL     1       3.619   8.100   0.563  0.00  0.00    +0.117 A 
ATOM     21  C   UNL     1       2.773   8.907  -0.185  0.00  0.00    +0.047 A 
ATOM     22  C   UNL     1       1.416   8.661  -0.200  0.00  0.00    +0.031 A 
BRANCH  20  23
ATOM     23  O   UNL     1       4.956   8.347   0.575  0.00  0.00    -0.507 OA
ATOM     24  H   UNL     1       5.238   8.953   1.274  0.00  0.00    +0.292 HD
ENDBRANCH  20  23
ENDBRANCH   7  17
BRANCH   5  25
ATOM     25  C   UNL     1      -3.251   6.593   0.477  0.00  0.00    +0.044 A 
ATOM     26  C   UNL     1      -3.486   7.521  -0.529  0.00  0.00    +0.027 A 
ATOM     27  C   UNL     1      -4.525   8.423  -0.406  0.00  0.00    +0.047 A 
ATOM     28  C   UNL     1      -5.326   8.409   0.726  0.00  0.00    +0.117 A 
ATOM     29  C   UNL     1      -5.088   7.485   1.734  0.00  0.00    +0.047 A 
ATOM     30  C   UNL     1      -4.053   6.580   1.610  0.00  0.00    +0.027 A 
BRANCH  28  31
ATOM     31  O   UNL     1      -6.345   9.301   0.849  0.00  0.00    -0.507 OA
ATOM     32  H   UNL     1      -6.092  10.130   1.278  0.00  0.00    +0.292 HD
ENDBRANCH  28  31
ENDBRANCH   5  25
TORSDOF 6
