REMARK  Name = ZINC40172053
REMARK  9 active torsions:
REMARK  status: ('A' for Active; 'I' for Inactive)
REMARK    1  A    between atoms: C_1  and  C_2
REMARK    2  A    between atoms: C_2  and  C_4
REMARK    3  A    between atoms: C_2  and  N_17
REMARK    4  A    between atoms: N_6  and  C_7
REMARK    5  A    between atoms: C_11  and  C_13
REMARK    6  A    between atoms: C_13  and  O_15
REMARK    7  A    between atoms: O_15  and  C_16
REMARK    8  A    between atoms: C_21  and  S_22
REMARK    9  A    between atoms: S_22  and  C_23
REMARK                            x       y       z     vdW  Elec       q    Type
REMARK                         _______ _______ _______ _____ _____    ______ ____
ROOT
ATOM      1  C   UNL     1       0.730  -0.501   1.224  0.00  0.00    +0.240 C 
ATOM      2  O   UNL     1       0.155  -1.204   2.028  0.00  0.00    -0.273 OA
ATOM      3  N   UNL     1       2.019  -0.161   1.426  0.00  0.00    -0.284 N 
ATOM      4  H   UNL     1       2.498   0.344   0.751  0.00  0.00    +0.155 HD
ENDROOT
BRANCH   3   5
ATOM      5  C   UNL     1       2.664  -0.537   2.609  0.00  0.00    +0.034 A 
ATOM      6  C   UNL     1       3.603   0.310   3.188  0.00  0.00    +0.023 A 
ATOM      7  C   UNL     1       4.243  -0.056   4.357  0.00  0.00    +0.003 A 
ATOM      8  C   UNL     1       3.955  -1.265   4.958  0.00  0.00    +0.015 A 
ATOM      9  C   UNL     1       3.014  -2.123   4.385  0.00  0.00    +0.061 A 
ATOM     10  C   UNL     1       2.364  -1.750   3.207  0.00  0.00    +0.038 A 
BRANCH   9  11
ATOM     11  C   UNL     1       2.705  -3.417   5.025  0.00  0.00    +0.339 C 
ATOM     12  O   UNL     1       1.886  -4.162   4.525  0.00  0.00    -0.245 OA
BRANCH  11  13
ATOM     13  O   UNL     1       3.331  -3.772   6.164  0.00  0.00    -0.464 OA
ATOM     14  C   UNL     1       2.982  -5.038   6.728  0.00  0.00    +0.280 C 
ENDBRANCH  11  13
ENDBRANCH   9  11
ENDBRANCH   3   5
BRANCH   1  16
ATOM     15  C   UNL     1      -0.013   1.521  -0.004  0.00  0.00    +0.041 C 
ATOM     16  C   UNL     1       0.004  -0.009  -0.002  0.00  0.00    +0.175 C 
BRANCH  16  17
ATOM     17  N   UNL     1      -1.371  -0.513   0.011  0.00  0.00    -0.279 N 
ATOM     18  C   UNL     1      -2.309  -0.263   0.972  0.00  0.00    +0.216 A 
ATOM     19  N   UNL     1      -3.413  -0.883   0.633  0.00  0.00    -0.113 NA
ATOM     20  N   UNL     1      -3.180  -1.549  -0.578  0.00  0.00    -0.121 NA
ATOM     21  C   UNL     1      -1.944  -1.310  -0.941  0.00  0.00    +0.193 A 
ATOM     22  N   UNL     1      -2.125   0.511   2.111  0.00  0.00    -0.328 N 
ATOM     23  H   UNL     1      -1.268   0.932   2.277  0.00  0.00    +0.145 HD
ATOM     24  H   UNL     1      -2.855   0.631   2.739  0.00  0.00    +0.145 HD
BRANCH  21  25
ATOM     25  S   UNL     1      -1.157  -1.912  -2.397  0.00  0.00    -0.089 S 
ATOM     26  C   UNL     1      -2.443  -2.894  -3.217  0.00  0.00    +0.093 C 
ENDBRANCH  21  25
ENDBRANCH  16  17
ENDBRANCH   1  16
TORSDOF 6
