REMARK  Name = ZINC05287981
REMARK  8 active torsions:
REMARK  status: ('A' for Active; 'I' for Inactive)
REMARK    1  A    between atoms: C_1  and  C_2
REMARK    2  A    between atoms: C_2  and  N_3
REMARK    3  A    between atoms: N_3  and  N_4
REMARK    4  A    between atoms: C_5  and  C_7
REMARK    5  A    between atoms: N_9  and  C_10
REMARK    6  A    between atoms: C_16  and  C_17
REMARK    7  A    between atoms: N_19  and  C_20
REMARK    8  A    between atoms: C_24  and  N_26
REMARK                            x       y       z     vdW  Elec       q    Type
REMARK                         _______ _______ _______ _____ _____    ______ ____
ROOT
ATOM      1  C   UNL     1      -8.567   3.191   0.794  0.00  0.00    +0.062 C 
ATOM      2  C   UNL     1      -8.817   1.715   0.625  0.00  0.00    +0.024 C 
ATOM      3  C   UNL     1      -7.655   0.760   0.529  0.00  0.00    +0.087 C 
ENDROOT
BRANCH   3   4
ATOM      4  C   UNL     1      -6.363   1.529   0.628  0.00  0.00    +0.243 C 
ATOM      5  O   UNL     1      -6.384   2.734   0.764  0.00  0.00    -0.270 OA
ATOM      6  N   UNL     1      -5.185   0.878   0.567  0.00  0.00    -0.282 N 
ATOM      7  H   UNL     1      -5.164  -0.204   0.368  0.00  0.00    +0.155 HD
BRANCH   6   8
ATOM      8  C   UNL     1      -3.988   1.578   0.755  0.00  0.00    +0.036 A 
ATOM      9  C   UNL     1      -3.864   2.881   0.292  0.00  0.00    +0.023 A 
ATOM     10  C   UNL     1      -2.682   3.570   0.480  0.00  0.00    +0.004 A 
ATOM     11  C   UNL     1      -1.623   2.964   1.133  0.00  0.00    +0.033 A 
ATOM     12  C   UNL     1      -1.742   1.664   1.590  0.00  0.00    +0.128 A 
ATOM     13  C   UNL     1      -2.922   0.970   1.405  0.00  0.00    +0.056 A 
BRANCH  12  14
ATOM     14  N   UNL     1      -0.605   1.018   2.282  0.00  0.00    +0.056 N 
ATOM     15  O   UNL     1      -0.710  -0.126   2.689  0.00  0.00    -0.126 OA
ATOM     16  O   UNL     1       0.438   1.627   2.441  0.00  0.00    -0.126 OA
ENDBRANCH  12  14
ENDBRANCH   6   8
ENDBRANCH   3   4
BRANCH   2  17
ATOM     17  N   UNL     1     -10.017   1.272   0.564  0.00  0.00    -0.268 N 
ATOM     18  H   UNL     1     -10.199   0.194   0.441  0.00  0.00    +0.170 HD
BRANCH  17  19
ATOM     19  N   UNL     1     -11.097   2.160   0.653  0.00  0.00    -0.229 N 
ATOM     20  C   UNL     1     -12.360   1.694   0.588  0.00  0.00    +0.315 C 
ATOM     21  O   UNL     1     -12.561   0.504   0.452  0.00  0.00    -0.264 OA
ATOM     22  H   UNL     1     -10.914   3.238   0.776  0.00  0.00    +0.173 HD
BRANCH  20  23
ATOM     23  C   UNL     1     -13.509   2.639   0.683  0.00  0.00    +0.305 C 
ATOM     24  O   UNL     1     -13.308   3.829   0.819  0.00  0.00    -0.265 OA
ATOM     25  N   UNL     1     -14.772   2.173   0.618  0.00  0.00    -0.278 N 
ATOM     26  H   UNL     1     -14.957   1.089   0.580  0.00  0.00    +0.155 HD
BRANCH  25  27
ATOM     27  C   UNL     1     -15.847   3.066   0.600  0.00  0.00    +0.034 A 
ATOM     28  C   UNL     1     -17.051   2.719   1.200  0.00  0.00    +0.023 A 
ATOM     29  C   UNL     1     -18.109   3.606   1.185  0.00  0.00    +0.002 A 
ATOM     30  C   UNL     1     -17.974   4.835   0.564  0.00  0.00    +0.000 A 
ATOM     31  C   UNL     1     -16.779   5.181  -0.039  0.00  0.00    +0.002 A 
ATOM     32  C   UNL     1     -15.715   4.301  -0.023  0.00  0.00    +0.023 A 
ENDBRANCH  25  27
ENDBRANCH  20  23
ENDBRANCH  17  19
ENDBRANCH   2  17
TORSDOF 7
