REMARK  Name = ZINC49496695
REMARK  4 active torsions:
REMARK  status: ('A' for Active; 'I' for Inactive)
REMARK    1  A    between atoms: C_3  and  C_8
REMARK    2  A    between atoms: N_10  and  N_11
REMARK    3  A    between atoms: N_14  and  C_15
REMARK    4  A    between atoms: C_15  and  C_16
REMARK                            x       y       z     vdW  Elec       q    Type
REMARK                         _______ _______ _______ _____ _____    ______ ____
ROOT
ATOM      1  C   UNL     1      -3.720   1.990   0.031  0.00  0.00    +0.269 C 
ATOM      2  O   UNL     1      -3.769   3.203   0.132  0.00  0.00    -0.268 OA
ATOM      3  N   UNL     1      -4.858   1.275  -0.069  0.00  0.00    -0.201 N 
ATOM      4  H   UNL     1      -4.823   0.306  -0.075  0.00  0.00    +0.178 HD
ENDROOT
BRANCH   1   7
ATOM      5  C   UNL     1      -0.016   1.353  -0.011  0.00  0.00    +0.018 A 
ATOM      6  C   UNL     1      -1.232   2.037  -0.001  0.00  0.00    +0.020 A 
ATOM      7  C   UNL     1      -2.418   1.306   0.019  0.00  0.00    +0.103 A 
ATOM      8  C   UNL     1      -2.347  -0.112   0.027  0.00  0.00    +0.261 A 
ATOM      9  N   UNL     1      -1.146  -0.722   0.016  0.00  0.00    -0.328 N 
ATOM     10  C   UNL     1       0.002  -0.004  -0.003  0.00  0.00    +0.086 A 
ATOM     11  O   UNL     1      -3.369  -0.775   0.045  0.00  0.00    -0.267 OA
ATOM     12  H   UNL     1      -1.103  -1.691   0.022  0.00  0.00    +0.168 HD
ENDBRANCH   1   7
BRANCH   3  13
ATOM     13  N   UNL     1      -6.092   1.932  -0.165  0.00  0.00    -0.157 NA
ATOM     14  C   UNL     1      -7.192   1.241  -0.262  0.00  0.00    +0.182 C 
ATOM     15  S   UNL     1      -8.744   2.067  -0.382  0.00  0.00    -0.013 SA
ATOM     16  N   UNL     1      -7.142  -0.143  -0.270  0.00  0.00    -0.313 N 
ATOM     17  H   UNL     1      -6.288  -0.598  -0.204  0.00  0.00    +0.148 HD
BRANCH  16  18
ATOM     18  C   UNL     1      -8.379  -0.920  -0.379  0.00  0.00    +0.216 C 
BRANCH  18  19
ATOM     19  C   UNL     1      -8.046  -2.413  -0.366  0.00  0.00    +0.405 C 
ATOM     20  F   UNL     1      -7.397  -2.735   0.831  0.00  0.00    -0.169 F 
ATOM     21  F   UNL     1      -9.227  -3.155  -0.470  0.00  0.00    -0.169 F 
ATOM     22  F   UNL     1      -7.209  -2.714  -1.446  0.00  0.00    -0.169 F 
ENDBRANCH  18  19
ENDBRANCH  16  18
ENDBRANCH   3  13
TORSDOF 4
