REMARK  Name = ZINC40292630
REMARK  3 active torsions:
REMARK  status: ('A' for Active; 'I' for Inactive)
REMARK    1  A    between atoms: C_1  and  C_2
REMARK    2  A    between atoms: C_8  and  C_10
REMARK    3  A    between atoms: C_14  and  N_19
REMARK                            x       y       z     vdW  Elec       q    Type
REMARK                         _______ _______ _______ _____ _____    ______ ____
ROOT
ATOM      1  C   UNL     1      -3.623  -4.357  -0.005  0.00  0.00    +0.191 A 
ATOM      2  C   UNL     1      -4.981  -4.353  -0.004  0.00  0.00    +0.063 A 
ATOM      3  C   UNL     1      -5.391  -5.756  -0.008  0.00  0.00    +0.023 A 
ATOM      4  C   UNL     1      -6.628  -6.408  -0.009  0.00  0.00    +0.034 A 
ATOM      5  C   UNL     1      -6.669  -7.790  -0.013  0.00  0.00    +0.025 A 
ATOM      6  C   UNL     1      -5.485  -8.526  -0.016  0.00  0.00    +0.026 A 
ATOM      7  C   UNL     1      -4.263  -7.891  -0.015  0.00  0.00    +0.048 A 
ATOM      8  C   UNL     1      -4.199  -6.503  -0.011  0.00  0.00    +0.136 A 
ATOM      9  O   UNL     1      -3.172  -5.629  -0.014  0.00  0.00    -0.450 OA
ENDROOT
BRANCH   1  17
ATOM     10  C   UNL     1      -0.018   1.503   0.010  0.00  0.00    +0.089 C 
ATOM     11  C   UNL     1       0.002  -0.004   0.002  0.00  0.00    +0.136 A 
ATOM     12  C   UNL     1      -1.076  -0.807   0.003  0.00  0.00    +0.091 A 
ATOM     13  C   UNL     1      -0.625  -2.147  -0.007  0.00  0.00    +0.168 A 
ATOM     14  N   UNL     1       0.683  -2.130  -0.013  0.00  0.00    -0.063 NA
ATOM     15  O   UNL     1       1.100  -0.776  -0.013  0.00  0.00    -0.358 OA
ATOM     16  N   UNL     1      -1.431  -3.284  -0.009  0.00  0.00    -0.261 N 
ATOM     17  C   UNL     1      -2.773  -3.159  -0.002  0.00  0.00    +0.285 C 
ATOM     18  O   UNL     1      -3.281  -2.053   0.006  0.00  0.00    -0.266 OA
ATOM     19  H   UNL     1      -1.026  -4.165  -0.016  0.00  0.00    +0.157 HD
ENDBRANCH   1  17
BRANCH   5  20
ATOM     20  N   UNL     1      -7.903  -8.450  -0.014  0.00  0.00    -0.358 N 
ATOM     21  H   UNL     1      -8.727  -7.939  -0.012  0.00  0.00    +0.142 HD
ATOM     22  H   UNL     1      -7.933  -9.420  -0.017  0.00  0.00    +0.142 HD
ENDBRANCH   5  20
TORSDOF 2
