REMARK  Name = ZINC08374981
REMARK  3 active torsions:
REMARK  status: ('A' for Active; 'I' for Inactive)
REMARK    1  A    between atoms: C_1  and  N_2
REMARK    2  A    between atoms: N_2  and  C_3
REMARK    3  A    between atoms: C_3  and  C_4
REMARK                            x       y       z     vdW  Elec       q    Type
REMARK                         _______ _______ _______ _____ _____    ______ ____
ROOT
ATOM      1  C   UNL     1      -0.011   1.094   0.009  0.00  0.00    +0.131 C 
ATOM      2  N   UNL     1      -0.701   1.562   1.218  0.00  0.00    -0.311 N 
ATOM      3  C   UNL     1      -0.122   1.028   2.360  0.00  0.00    +0.162 A 
ATOM      4  C   UNL     1      -0.868   0.147   3.181  0.00  0.00    +0.157 A 
ATOM      5  N   UNL     1      -0.328  -0.371   4.264  0.00  0.00    -0.227 NA
ATOM      6  C   UNL     1       0.932  -0.054   4.598  0.00  0.00    +0.091 A 
ATOM      7  C   UNL     1       1.528  -0.588   5.752  0.00  0.00    +0.030 A 
ATOM      8  C   UNL     1       2.808  -0.251   6.070  0.00  0.00    +0.002 A 
ATOM      9  C   UNL     1       3.540   0.619   5.265  0.00  0.00    +0.002 A 
ATOM     10  C   UNL     1       2.993   1.155   4.139  0.00  0.00    +0.030 A 
ATOM     11  C   UNL     1       1.675   0.830   3.780  0.00  0.00    +0.091 A 
ATOM     12  N   UNL     1       1.115   1.347   2.676  0.00  0.00    -0.227 NA
ATOM     13  N   UNL     1      -2.172  -0.175   2.839  0.00  0.00    -0.340 N 
ATOM     14  H   UNL     1      -2.547   0.142   2.002  0.00  0.00    +0.144 HD
ATOM     15  H   UNL     1      -2.710  -0.718   3.436  0.00  0.00    +0.144 HD
ENDROOT
BRANCH   2  16
ATOM     16  C   UNL     1      -0.724   3.030   1.277  0.00  0.00    +0.141 C 
BRANCH  16  17
ATOM     17  C   UNL     1      -1.570   3.564   0.150  0.00  0.00    -0.030 A 
ATOM     18  C   UNL     1      -0.992   3.858  -1.070  0.00  0.00    +0.005 A 
ATOM     19  C   UNL     1      -1.769   4.343  -2.105  0.00  0.00    +0.000 A 
ATOM     20  C   UNL     1      -3.123   4.545  -1.916  0.00  0.00    +0.000 A 
ATOM     21  C   UNL     1      -3.701   4.258  -0.693  0.00  0.00    +0.000 A 
ATOM     22  C   UNL     1      -2.925   3.767   0.340  0.00  0.00    +0.005 A 
ENDBRANCH  16  17
ENDBRANCH   2  16
TORSDOF 2
