REMARK  Name = ZINC34799561
REMARK  8 active torsions:
REMARK  status: ('A' for Active; 'I' for Inactive)
REMARK    1  A    between atoms: C_1  and  C_2
REMARK    2  A    between atoms: C_2  and  C_22
REMARK    3  A    between atoms: C_3  and  C_4
REMARK    4  A    between atoms: C_6  and  C_11
REMARK    5  A    between atoms: C_8  and  C_9
REMARK    6  A    between atoms: C_8  and  C_10
REMARK    7  A    between atoms: N_13  and  C_14
REMARK    8  A    between atoms: C_14  and  C_21
REMARK                            x       y       z     vdW  Elec       q    Type
REMARK                         _______ _______ _______ _____ _____    ______ ____
ROOT
ATOM      1  C   UNL     1      -0.932  -0.102   4.849  0.00  0.00    +0.218 C 
ATOM      2  O   UNL     1      -0.464   0.843   5.448  0.00  0.00    -0.275 OA
ATOM      3  N   UNL     1      -2.143  -0.584   5.191  0.00  0.00    -0.308 N 
ATOM      4  H   UNL     1      -2.518  -1.339   4.712  0.00  0.00    +0.149 HD
ENDROOT
BRANCH   3   5
ATOM      5  C   UNL     1      -2.895   0.034   6.287  0.00  0.00    +0.052 C 
ATOM      6  C   UNL     1      -2.027   0.019   7.544  0.00  0.00    +0.049 C 
ATOM      7  C   UNL     1      -2.921  -0.024   8.815  0.00  0.00    +0.168 C 
ATOM      8  S   UNL     1      -4.228  -1.192   8.232  0.00  0.00    -0.029 S 
ATOM      9  O   UNL     1      -3.754  -2.525   8.359  0.00  0.00    -0.174 OA
ATOM     10  O   UNL     1      -5.472  -0.830   8.816  0.00  0.00    -0.174 OA
ATOM     11  C   UNL     1      -4.231  -0.716   6.453  0.00  0.00    +0.191 C 
ATOM     12  C   UNL     1      -3.192   1.488   5.917  0.00  0.00    +0.033 C 
ENDBRANCH   3   5
BRANCH   1  14
ATOM     13  C   UNL     1       0.024   0.081   2.442  0.00  0.00    +0.030 C 
ATOM     14  C   UNL     1      -0.159  -0.737   3.722  0.00  0.00    +0.089 C 
ATOM     15  C   UNL     1       1.210  -0.144   3.381  0.00  0.00    -0.016 C 
ATOM     16  C   UNL     1       2.304  -1.109   2.920  0.00  0.00    +0.012 C 
ATOM     17  C   UNL     1       1.690   1.048   4.212  0.00  0.00    +0.012 C 
BRANCH  13  20
ATOM     18  C   UNL     1      -0.018   1.503   0.010  0.00  0.00    +0.038 C 
ATOM     19  C   UNL     1       0.002  -0.004   0.002  0.00  0.00    -0.079 C 
ATOM     20  C   UNL     1       0.022  -0.665   1.133  0.00  0.00    -0.023 C 
ATOM     21  C   UNL     1      -0.000  -0.750  -1.307  0.00  0.00    +0.038 C 
ENDBRANCH  13  20
ENDBRANCH   1  14
TORSDOF 3
