REMARK  Name = ZINC64143540
REMARK  5 active torsions:
REMARK  status: ('A' for Active; 'I' for Inactive)
REMARK    1  A    between atoms: C_7  and  C_10
REMARK    2  A    between atoms: C_10  and  C_11
REMARK    3  A    between atoms: C_11  and  C_12
REMARK    4  A    between atoms: C_17  and  N_20
REMARK    5  A    between atoms: C_28  and  C_30
REMARK                            x       y       z     vdW  Elec       q    Type
REMARK                         _______ _______ _______ _____ _____    ______ ____
ROOT
ATOM      1  C   UNL     1      -0.484  -4.830  -1.460  0.00  0.00    +0.216 C 
ATOM      2  O   UNL     1      -0.925  -5.254  -0.412  0.00  0.00    -0.276 OA
ATOM      3  N   UNL     1      -0.837  -5.413  -2.623  0.00  0.00    -0.301 N 
ATOM      4  C   UNL     1      -0.307  -4.916  -3.900  0.00  0.00    +0.109 C 
ATOM      5  C   UNL     1      -1.481  -4.624  -4.840  0.00  0.00    +0.041 C 
ATOM      6  C   UNL     1      -2.352  -5.875  -4.966  0.00  0.00    +0.080 C 
ATOM      7  C   UNL     1      -2.915  -6.247  -3.593  0.00  0.00    +0.041 C 
ATOM      8  C   UNL     1      -1.753  -6.561  -2.638  0.00  0.00    +0.109 C 
ENDROOT
BRANCH   6   9
ATOM      9  N   UNL     1      -3.457  -5.610  -5.891  0.00  0.00    -0.291 N 
ATOM     10  C   UNL     1      -4.435  -4.625  -5.747  0.00  0.00    +0.122 A 
ATOM     11  C   UNL     1      -5.318  -4.678  -6.825  0.00  0.00    +0.067 A 
ATOM     12  C   UNL     1      -6.375  -3.778  -6.881  0.00  0.00    +0.028 A 
ATOM     13  C   UNL     1      -6.513  -2.854  -5.854  0.00  0.00    +0.019 A 
ATOM     14  C   UNL     1      -5.604  -2.857  -4.817  0.00  0.00    +0.084 A 
ATOM     15  N   UNL     1      -4.609  -3.723  -4.788  0.00  0.00    -0.348 N 
ATOM     16  N   UNL     1      -4.938  -5.700  -7.702  0.00  0.00    -0.321 N 
ATOM     17  C   UNL     1      -3.734  -6.327  -7.141  0.00  0.00    +0.189 C 
ATOM     18  H   UNL     1      -5.383  -5.947  -8.528  0.00  0.00    +0.148 HD
ATOM     19  H   UNL     1      -3.986  -3.700  -4.045  0.00  0.00    +0.167 HD
BRANCH  17  20
ATOM     20  C   UNL     1      -2.558  -6.177  -8.107  0.00  0.00    +0.157 C 
ATOM     21  C   UNL     1      -2.906  -6.831  -9.462  0.00  0.00    +0.037 C 
ATOM     22  C   UNL     1      -1.562  -7.501  -9.860  0.00  0.00    +0.031 C 
ATOM     23  C   UNL     1      -1.016  -7.913  -8.470  0.00  0.00    +0.160 C 
ATOM     24  O   UNL     1      -1.408  -6.852  -7.582  0.00  0.00    -0.373 OA
ENDBRANCH  17  20
ENDBRANCH   6   9
BRANCH   1  25
ATOM     25  C   UNL     1       0.457  -3.653  -1.462  0.00  0.00    +0.100 C 
BRANCH  25  26
ATOM     26  C   UNL     1       0.691  -3.186  -0.024  0.00  0.00    +0.042 C 
BRANCH  26  33
ATOM     27  C   UNL     1      -0.016   1.348   0.009  0.00  0.00    +0.001 A 
ATOM     28  C   UNL     1       1.166   2.101   0.002  0.00  0.00    +0.002 A 
ATOM     29  C   UNL     1       2.391   1.535  -0.013  0.00  0.00    +0.026 A 
ATOM     30  C   UNL     1       2.529   0.120  -0.022  0.00  0.00    +0.043 A 
ATOM     31  N   UNL     1       3.587  -0.654  -0.037  0.00  0.00    -0.380 N 
ATOM     32  C   UNL     1       3.143  -2.053  -0.041  0.00  0.00    +0.144 C 
ATOM     33  C   UNL     1       1.631  -2.008  -0.025  0.00  0.00    -0.041 C 
ATOM     34  C   UNL     1       1.295  -0.698  -0.014  0.00  0.00    -0.001 A 
ATOM     35  C   UNL     1       0.002  -0.004   0.002  0.00  0.00    +0.010 A 
ATOM     36  H   UNL     1       4.509  -0.353  -0.045  0.00  0.00    +0.160 HD
ENDBRANCH  26  33
ENDBRANCH  25  26
ENDBRANCH   1  25
TORSDOF 5
