REMARK  Name = ZINC20358346
REMARK  6 active torsions:
REMARK  status: ('A' for Active; 'I' for Inactive)
REMARK    1  A    between atoms: C_4  and  C_7
REMARK    2  A    between atoms: C_7  and  N_8
REMARK    3  A    between atoms: C_15  and  N_34
REMARK    4  A    between atoms: C_16  and  N_33
REMARK    5  A    between atoms: N_23  and  C_26
REMARK    6  A    between atoms: C_26  and  C_27
REMARK                            x       y       z     vdW  Elec       q    Type
REMARK                         _______ _______ _______ _____ _____    ______ ____
ROOT
ATOM      1  N   UNL     1       5.681  -1.081   8.288  0.00  0.00    +0.384 N 
ATOM      2  C   UNL     1       5.562  -2.540   8.162  0.00  0.00    -0.059 C 
ATOM      3  C   UNL     1       4.421  -2.876   7.199  0.00  0.00    +0.088 C 
ATOM      4  N   UNL     1       3.171  -2.291   7.703  0.00  0.00    -0.317 N 
ATOM      5  C   UNL     1       3.289  -0.832   7.829  0.00  0.00    +0.088 C 
ATOM      6  C   UNL     1       4.430  -0.496   8.791  0.00  0.00    -0.059 C 
ATOM      7  C   UNL     1       2.100  -2.635   6.893  0.00  0.00    +0.159 A 
ATOM      8  C   UNL     1       1.039  -3.378   7.404  0.00  0.00    +0.205 A 
ATOM      9  C   UNL     1      -0.014  -3.700   6.553  0.00  0.00    +0.154 A 
ATOM     10  N   UNL     1       0.024  -3.284   5.289  0.00  0.00    -0.197 NA
ATOM     11  C   UNL     1       1.052  -2.583   4.836  0.00  0.00    +0.221 A 
ATOM     12  N   UNL     1       2.072  -2.259   5.617  0.00  0.00    -0.197 NA
ATOM     13  N   UNL     1       1.058  -2.173   3.514  0.00  0.00    -0.297 N 
ATOM     14  C   UNL     1      -0.153  -2.628   2.817  0.00  0.00    +0.123 C 
ATOM     15  C   UNL     1      -0.071  -2.225   1.343  0.00  0.00    +0.103 C 
ATOM     16  N   UNL     1       0.073  -0.766   1.244  0.00  0.00    -0.295 NA
ATOM     17  C   UNL     1       1.284  -0.311   1.942  0.00  0.00    +0.103 C 
ATOM     18  C   UNL     1       1.202  -0.714   3.416  0.00  0.00    +0.123 C 
ATOM     19  H   UNL     1       5.870  -0.668   7.286  0.00  0.00    -0.081 HD
ENDROOT
BRANCH   9  20
ATOM     20  N   UNL     1      -1.092  -4.438   7.018  0.00  0.00    -0.341 N 
ATOM     21  H   UNL     1      -1.921  -4.688   6.340  0.00  0.00    +0.144 HD
ATOM     22  H   UNL     1      -1.118  -4.773   8.066  0.00  0.00    +0.144 HD
ENDBRANCH   9  20
BRANCH   8  23
ATOM     23  N   UNL     1       1.033  -3.816   8.818  0.00  0.00    +0.063 N 
ATOM     24  O   UNL     1       0.538  -3.105   9.674  0.00  0.00    -0.126 OA
ATOM     25  O   UNL     1       1.523  -4.888   9.125  0.00  0.00    -0.126 OA
ENDBRANCH   8  23
BRANCH   1  26
ATOM     26  C   UNL     1       6.815  -0.716   9.146  0.00  0.00    -0.043 C 
BRANCH  26  30
ATOM     27  C   UNL     1       7.499   3.493   8.892  0.00  0.00    +0.000 A 
ATOM     28  C   UNL     1       6.639   2.989   9.850  0.00  0.00    +0.000 A 
ATOM     29  C   UNL     1       6.417   1.627   9.932  0.00  0.00    +0.002 A 
ATOM     30  C   UNL     1       7.057   0.768   9.057  0.00  0.00    -0.064 A 
ATOM     31  C   UNL     1       7.921   1.272   8.103  0.00  0.00    +0.002 A 
ATOM     32  C   UNL     1       8.139   2.634   8.018  0.00  0.00    +0.000 A 
ENDBRANCH  26  30
ENDBRANCH   1  26
BRANCH  16  33
ATOM     33  C   UNL     1       0.080  -0.331  -0.159  0.00  0.00    +0.119 C 
BRANCH  33  34
ATOM     34  C   UNL     1      -0.019   1.172  -0.220  0.00  0.00    -0.033 A 
ATOM     35  C   UNL     1      -1.258   1.781  -0.283  0.00  0.00    +0.005 A 
ATOM     36  C   UNL     1      -1.349   3.160  -0.334  0.00  0.00    +0.000 A 
ATOM     37  C   UNL     1      -0.200   3.928  -0.331  0.00  0.00    +0.000 A 
ATOM     38  C   UNL     1       1.040   3.319  -0.273  0.00  0.00    +0.000 A 
ATOM     39  C   UNL     1       1.130   1.940  -0.217  0.00  0.00    +0.005 A 
ENDBRANCH  33  34
ENDBRANCH  16  33
TORSDOF 6
