REMARK  Name = ZINC12447397
REMARK  8 active torsions:
REMARK  status: ('A' for Active; 'I' for Inactive)
REMARK    1  A    between atoms: C_4  and  C_7
REMARK    2  A    between atoms: C_8  and  C_13
REMARK    3  A    between atoms: C_13  and  N_54
REMARK    4  A    between atoms: C_14  and  C_15
REMARK    5  A    between atoms: C_14  and  N_54
REMARK    6  A    between atoms: C_15  and  O_27
REMARK    7  A    between atoms: N_19  and  C_22
REMARK    8  A    between atoms: C_22  and  C_23
REMARK                            x       y       z     vdW  Elec       q    Type
REMARK                         _______ _______ _______ _____ _____    ______ ____
ROOT
ATOM      1  N   UNL     1      -0.832   1.508   1.784  0.00  0.00    +0.384 N 
ATOM      2  H   UNL     1      -1.823   1.241   1.786  0.00  0.00    -0.085 HD
ATOM      3  H   UNL     1      -0.413   1.277   2.692  0.00  0.00    -0.085 HD
ENDROOT
BRANCH   1   4
ATOM      4  C   UNL     1      -0.719   2.960   1.551  0.00  0.00    -0.043 C 
BRANCH   4   6
ATOM      5  C   UNL     1      -2.956   3.777   2.593  0.00  0.00    +0.094 A 
ATOM      6  C   UNL     1      -1.550   3.690   2.575  0.00  0.00    -0.019 A 
ATOM      7  C   UNL     1      -1.080   4.372   3.642  0.00  0.00    +0.107 A 
ATOM      8  N   UNL     1      -2.137   4.881   4.310  0.00  0.00    -0.284 N 
ATOM      9  H   UNL     1      -2.093   5.438   5.139  0.00  0.00    +0.188 HD
ATOM     10  N   UNL     1      -3.304   4.495   3.639  0.00  0.00    -0.174 NA
BRANCH   5  14
ATOM     11  C   UNL     1      -5.607   2.026  -0.234  0.00  0.00    +0.000 A 
ATOM     12  C   UNL     1      -5.898   1.959   1.117  0.00  0.00    +0.001 A 
ATOM     13  C   UNL     1      -5.041   2.526   2.039  0.00  0.00    +0.010 A 
ATOM     14  C   UNL     1      -3.881   3.165   1.606  0.00  0.00    +0.002 A 
ATOM     15  C   UNL     1      -3.596   3.234   0.244  0.00  0.00    +0.010 A 
ATOM     16  C   UNL     1      -4.457   2.660  -0.668  0.00  0.00    +0.001 A 
ENDBRANCH   5  14
ENDBRANCH   4   6
ENDBRANCH   1   4
BRANCH   1  17
ATOM     17  C   UNL     1      -0.129   0.763   0.721  0.00  0.00    -0.037 C 
BRANCH  17  18
ATOM     18  C   UNL     1      -0.263  -0.737   0.989  0.00  0.00    +0.127 C 
ATOM     19  C   UNL     1       0.465  -1.516  -0.111  0.00  0.00    +0.044 C 
ATOM     20  C   UNL     1       0.091  -2.998   0.017  0.00  0.00    +0.022 C 
ATOM     21  C   UNL     1      -1.389  -3.162  -0.330  0.00  0.00    +0.108 C 
ATOM     22  N   UNL     1      -2.198  -2.214   0.427  0.00  0.00    -0.299 N 
ATOM     23  C   UNL     1      -1.716  -1.114   1.005  0.00  0.00    +0.245 C 
ATOM     24  O   UNL     1      -2.493  -0.378   1.575  0.00  0.00    -0.273 OA
BRANCH  18  25
ATOM     25  O   UNL     1       0.321  -1.048   2.256  0.00  0.00    -0.381 OA
ATOM     26  H   UNL     1      -0.088  -0.587   3.001  0.00  0.00    +0.211 HD
ENDBRANCH  18  25
BRANCH  22  27
ATOM     27  C   UNL     1      -3.631  -2.489   0.560  0.00  0.00    +0.111 C 
BRANCH  27  28
ATOM     28  C   UNL     1      -3.875  -3.331   1.814  0.00  0.00    +0.006 C 
ATOM     29  C   UNL     1      -3.719  -4.843   1.581  0.00  0.00    +0.005 C 
ATOM     30  C   UNL     1      -4.944  -5.029   2.495  0.00  0.00    +0.001 C 
ATOM     31  C   UNL     1      -5.362  -3.604   2.094  0.00  0.00    +0.005 C 
ENDBRANCH  27  28
ENDBRANCH  22  27
ENDBRANCH  17  18
ENDBRANCH   1  17
TORSDOF 8
