REMARK  Name = ZINC39945126
REMARK  9 active torsions:
REMARK  status: ('A' for Active; 'I' for Inactive)
REMARK    1  A    between atoms: C_1  and  O_2
REMARK    2  A    between atoms: O_2  and  C_3
REMARK    3  A    between atoms: C_6  and  N_11
REMARK    4  A    between atoms: C_8  and  O_9
REMARK    5  A    between atoms: O_9  and  C_10
REMARK    6  A    between atoms: N_11  and  C_12
REMARK    7  A    between atoms: C_12  and  N_14
REMARK    8  A    between atoms: N_14  and  N_15
REMARK    9  A    between atoms: C_16  and  C_17
REMARK                            x       y       z     vdW  Elec       q    Type
REMARK                         _______ _______ _______ _____ _____    ______ ____
ROOT
ATOM      1  N   UNL     1      -7.218  -2.491   0.257  0.00  0.00    -0.218 N 
ATOM      2  H   UNL     1      -8.035  -1.975   0.337  0.00  0.00    +0.176 HD
ENDROOT
BRANCH   1   3
ATOM      3  C   UNL     1      -6.031  -1.862   0.147  0.00  0.00    +0.154 C 
ATOM      4  S   UNL     1      -5.966  -0.151   0.148  0.00  0.00    -0.017 S 
BRANCH   3   5
ATOM      5  N   UNL     1      -4.895  -2.579   0.036  0.00  0.00    -0.296 N 
ATOM      6  H   UNL     1      -4.938  -3.545  -0.046  0.00  0.00    +0.154 HD
BRANCH   5  10
ATOM      7  C   UNL     1      -1.199  -0.643   0.048  0.00  0.00    +0.162 A 
ATOM      8  C   UNL     1      -2.193  -0.248   0.929  0.00  0.00    +0.051 A 
ATOM      9  C   UNL     1      -3.417  -0.889   0.925  0.00  0.00    +0.027 A 
ATOM     10  C   UNL     1      -3.654  -1.930   0.038  0.00  0.00    +0.036 A 
ATOM     11  C   UNL     1      -2.661  -2.329  -0.845  0.00  0.00    +0.072 A 
ATOM     12  C   UNL     1      -1.436  -1.683  -0.846  0.00  0.00    +0.163 A 
BRANCH   7  14
ATOM     13  C   UNL     1       0.179   1.047   0.998  0.00  0.00    +0.277 C 
ATOM     14  O   UNL     1       0.006  -0.011   0.054  0.00  0.00    -0.491 OA
ENDBRANCH   7  14
BRANCH  12  15
ATOM     15  O   UNL     1      -0.463  -2.068  -1.715  0.00  0.00    -0.491 OA
ATOM     16  C   UNL     1      -0.776  -3.142  -2.604  0.00  0.00    +0.277 C 
ENDBRANCH  12  15
ENDBRANCH   5  10
ENDBRANCH   3   5
ENDBRANCH   1   3
BRANCH   1  17
ATOM     17  N   UNL     1      -7.271  -3.891   0.256  0.00  0.00    -0.192 NA
ATOM     18  C   UNL     1      -8.398  -4.489   0.360  0.00  0.00    +0.120 C 
BRANCH  18  19
ATOM     19  C   UNL     1      -8.455  -5.995   0.359  0.00  0.00    +0.141 C 
ATOM     20  C   UNL     1      -9.228  -6.430  -0.870  0.00  0.00    +0.001 C 
ATOM     21  C   UNL     1     -10.342  -7.191  -0.671  0.00  0.00    -0.007 A 
ATOM     22  C   UNL     1     -11.147  -7.654  -1.802  0.00  0.00    +0.009 A 
ATOM     23  C   UNL     1     -12.248  -8.410  -1.556  0.00  0.00    +0.001 A 
ATOM     24  C   UNL     1     -12.621  -8.748  -0.255  0.00  0.00    +0.002 A 
ATOM     25  C   UNL     1     -11.916  -8.351   0.837  0.00  0.00    +0.024 A 
ATOM     26  C   UNL     1     -10.759  -7.564   0.692  0.00  0.00    +0.040 A 
ATOM     27  N   UNL     1     -10.075  -7.180   1.770  0.00  0.00    -0.284 N 
ATOM     28  C   UNL     1      -8.982  -6.440   1.705  0.00  0.00    +0.229 C 
ATOM     29  O   UNL     1      -8.401  -6.120   2.725  0.00  0.00    -0.274 OA
ATOM     30  H   UNL     1     -10.396  -7.455   2.643  0.00  0.00    +0.155 HD
ENDBRANCH  18  19
ENDBRANCH   1  17
TORSDOF 7
