REMARK  Name = ZINC08746877
REMARK  6 active torsions:
REMARK  status: ('A' for Active; 'I' for Inactive)
REMARK    1  A    between atoms: C_1  and  C_2
REMARK    2  A    between atoms: C_5  and  N_8
REMARK    3  A    between atoms: C_11  and  C_16
REMARK    4  A    between atoms: C_16  and  N_17
REMARK    5  A    between atoms: C_20  and  C_24
REMARK    6  A    between atoms: C_20  and  C_25
REMARK                            x       y       z     vdW  Elec       q    Type
REMARK                         _______ _______ _______ _____ _____    ______ ____
ROOT
ATOM      1  N   UNL     1      -4.388   1.256   7.309  0.00  0.00    -0.284 N 
ATOM      2  C   UNL     1      -4.748   1.089   5.987  0.00  0.00    +0.224 A 
ATOM      3  N   UNL     1      -4.014   0.318   5.188  0.00  0.00    -0.198 NA
ATOM      4  C   UNL     1      -4.355   0.163   3.921  0.00  0.00    +0.154 A 
ATOM      5  N   UNL     1      -5.432   0.763   3.444  0.00  0.00    -0.198 NA
ATOM      6  C   UNL     1      -6.174   1.531   4.238  0.00  0.00    +0.217 A 
ATOM      7  N   UNL     1      -5.831   1.694   5.511  0.00  0.00    -0.181 NA
ATOM      8  N   UNL     1      -7.298   2.158   3.739  0.00  0.00    -0.327 N 
ATOM      9  H   UNL     1      -3.644   0.752   7.677  0.00  0.00    +0.155 HD
ATOM     10  H   UNL     1      -7.547   2.038   2.809  0.00  0.00    +0.145 HD
ATOM     11  H   UNL     1      -7.838   2.717   4.318  0.00  0.00    +0.145 HD
ENDROOT
BRANCH   1  16
ATOM     12  C   UNL     1      -7.251   4.888  10.594  0.00  0.00    +0.044 C 
ATOM     13  C   UNL     1      -6.490   3.923   9.721  0.00  0.00    -0.050 A 
ATOM     14  C   UNL     1      -5.958   2.770  10.269  0.00  0.00    +0.005 A 
ATOM     15  C   UNL     1      -5.261   1.883   9.472  0.00  0.00    +0.023 A 
ATOM     16  C   UNL     1      -5.094   2.151   8.119  0.00  0.00    +0.034 A 
ATOM     17  C   UNL     1      -5.625   3.313   7.574  0.00  0.00    +0.023 A 
ATOM     18  C   UNL     1      -6.326   4.192   8.375  0.00  0.00    +0.005 A 
ENDBRANCH   1  16
BRANCH   4  19
ATOM     19  C   UNL     1      -3.518  -0.707   3.018  0.00  0.00    +0.194 C 
BRANCH  19  20
ATOM     20  N   UNL     1      -2.481   0.108   2.379  0.00  0.00    -0.216 N 
ATOM     21  C   UNL     1      -2.637   0.744   1.201  0.00  0.00    +0.254 C 
ATOM     22  O   UNL     1      -3.624   0.749   0.497  0.00  0.00    -0.272 OA
ATOM     23  C   UNL     1      -1.323   1.451   0.940  0.00  0.00    +0.168 C 
ATOM     24  N   UNL     1      -0.501   1.100   2.111  0.00  0.00    -0.279 N 
ATOM     25  C   UNL     1      -1.263   0.314   2.893  0.00  0.00    +0.310 C 
ATOM     26  O   UNL     1      -0.887  -0.156   3.949  0.00  0.00    -0.252 OA
ATOM     27  C   UNL     1      -0.677   0.931  -0.346  0.00  0.00    +0.050 C 
ATOM     28  H   UNL     1       0.411   1.380   2.285  0.00  0.00    +0.152 HD
BRANCH  23  29
ATOM     29  C   UNL     1      -1.526   2.943   0.863  0.00  0.00    +0.137 A 
ATOM     30  C   UNL     1      -0.639   3.878   1.249  0.00  0.00    +0.047 A 
ATOM     31  C   UNL     1      -1.236   5.135   1.000  0.00  0.00    +0.041 A 
ATOM     32  C   UNL     1      -2.455   4.893   0.484  0.00  0.00    +0.195 A 
ATOM     33  O   UNL     1      -2.625   3.563   0.404  0.00  0.00    -0.465 OA
ENDBRANCH  23  29
ENDBRANCH  19  20
ENDBRANCH   4  19
TORSDOF 4
