REMARK  Name = ZINC62082819
REMARK  8 active torsions:
REMARK  status: ('A' for Active; 'I' for Inactive)
REMARK    1  A    between atoms: C_1  and  C_2
REMARK    2  A    between atoms: C_2  and  C_4
REMARK    3  A    between atoms: C_2  and  C_16
REMARK    4  A    between atoms: C_4  and  N_5
REMARK    5  A    between atoms: C_6  and  C_8
REMARK    6  A    between atoms: C_10  and  N_15
REMARK    7  A    between atoms: C_12  and  N_14
REMARK    8  A    between atoms: C_16  and  N_17
REMARK                            x       y       z     vdW  Elec       q    Type
REMARK                         _______ _______ _______ _____ _____    ______ ____
ROOT
ATOM      1  N   UNL     1       2.148  -0.104   1.172  0.00  0.00    -0.311 N 
ATOM      2  C   UNL     1       2.997  -0.441   2.162  0.00  0.00    +0.244 C 
ATOM      3  O   UNL     1       2.597  -1.083   3.113  0.00  0.00    -0.270 OA
ATOM      4  H   UNL     1       2.467   0.409   0.412  0.00  0.00    +0.149 HD
ENDROOT
BRANCH   2   5
ATOM      5  C   UNL     1       4.416  -0.030   2.092  0.00  0.00    +0.040 A 
ATOM      6  C   UNL     1       4.875   0.711   1.003  0.00  0.00    +0.036 A 
ATOM      7  C   UNL     1       6.207   1.096   0.941  0.00  0.00    +0.027 A 
ATOM      8  C   UNL     1       7.082   0.743   1.959  0.00  0.00    +0.045 A 
ATOM      9  C   UNL     1       6.628   0.004   3.044  0.00  0.00    +0.027 A 
ATOM     10  C   UNL     1       5.296  -0.379   3.116  0.00  0.00    +0.036 A 
BRANCH   9  11
ATOM     11  N   UNL     1       7.511  -0.350   4.066  0.00  0.00    -0.358 N 
ATOM     12  H   UNL     1       8.442  -0.079   4.019  0.00  0.00    +0.142 HD
ATOM     13  H   UNL     1       7.195  -0.866   4.824  0.00  0.00    +0.142 HD
ENDBRANCH   9  11
BRANCH   7  14
ATOM     14  N   UNL     1       6.668   1.838  -0.149  0.00  0.00    -0.358 N 
ATOM     15  H   UNL     1       6.058   2.085  -0.861  0.00  0.00    +0.142 HD
ATOM     16  H   UNL     1       7.599   2.107  -0.194  0.00  0.00    +0.142 HD
ENDBRANCH   7  14
ENDBRANCH   2   5
BRANCH   1  17
ATOM     17  C   UNL     1       0.742  -0.511   1.242  0.00  0.00    +0.106 C 
BRANCH  17  19
ATOM     18  C   UNL     1      -0.019   1.526   0.010  0.00  0.00    +0.007 C 
ATOM     19  C   UNL     1       0.002  -0.004   0.002  0.00  0.00    -0.014 C 
BRANCH  19  20
ATOM     20  C   UNL     1      -1.433  -0.534   0.013  0.00  0.00    -0.074 C 
BRANCH  20  21
ATOM     21  N   UNL     1      -2.107  -0.147  -1.234  0.00  0.00    +0.380 N 
ATOM     22  C   UNL     1      -1.517  -0.880  -2.383  0.00  0.00    -0.079 C 
ATOM     23  C   UNL     1      -2.635  -0.820  -3.454  0.00  0.00    -0.020 C 
ATOM     24  C   UNL     1      -3.925  -0.973  -2.616  0.00  0.00    -0.020 C 
ATOM     25  C   UNL     1      -3.530  -0.547  -1.189  0.00  0.00    -0.079 C 
ATOM     26  H   UNL     1      -2.030   0.848  -1.378  0.00  0.00    -0.082 HD
ENDBRANCH  20  21
ENDBRANCH  19  20
ENDBRANCH  17  19
ENDBRANCH   1  17
TORSDOF 7
