REMARK  Name = ZINC62526844
REMARK  12 active torsions:
REMARK  status: ('A' for Active; 'I' for Inactive)
REMARK    1  A    between atoms: C_1  and  C_2
REMARK    2  A    between atoms: C_2  and  C_3
REMARK    3  A    between atoms: C_3  and  N_4
REMARK    4  A    between atoms: C_5  and  C_7
REMARK    5  A    between atoms: C_7  and  N_8
REMARK    6  A    between atoms: N_16  and  C_17
REMARK    7  A    between atoms: C_17  and  C_18
REMARK    8  A    between atoms: C_17  and  C_19
REMARK    9  A    between atoms: N_21  and  C_22
REMARK   10  A    between atoms: C_22  and  C_23
REMARK   11  A    between atoms: C_22  and  C_24
REMARK   12  A    between atoms: C_24  and  C_25
REMARK                            x       y       z     vdW  Elec       q    Type
REMARK                         _______ _______ _______ _____ _____    ______ ____
ROOT
ATOM      1  N   UNL     1      -3.925  -4.706   0.017  0.00  0.00    -0.291 NA
ATOM      2  C   UNL     1      -4.603  -4.366   1.276  0.00  0.00    +0.104 C 
ATOM      3  C   UNL     1      -6.083  -4.749   1.175  0.00  0.00    +0.124 C 
ATOM      4  N   UNL     1      -6.174  -6.164   0.783  0.00  0.00    -0.283 N 
ATOM      5  C   UNL     1      -5.410  -6.611  -0.392  0.00  0.00    +0.124 C 
ATOM      6  C   UNL     1      -3.956  -6.154  -0.230  0.00  0.00    +0.104 C 
ATOM      7  C   UNL     1      -6.937  -7.028   1.481  0.00  0.00    +0.303 C 
ATOM      8  O   UNL     1      -7.073  -8.171   1.091  0.00  0.00    -0.253 OA
ATOM      9  N   UNL     1      -7.550  -6.624   2.612  0.00  0.00    -0.288 N 
ATOM     10  H   UNL     1      -7.502  -5.694   2.883  0.00  0.00    +0.151 HD
ENDROOT
BRANCH   9  11
ATOM     11  C   UNL     1      -8.287  -7.589   3.430  0.00  0.00    +0.157 C 
ATOM     12  C   UNL     1      -7.320  -8.296   4.381  0.00  0.00    +0.038 C 
BRANCH  11  13
ATOM     13  C   UNL     1      -9.341  -6.868   4.230  0.00  0.00    +0.233 C 
ATOM     14  O   UNL     1      -9.464  -5.666   4.127  0.00  0.00    -0.274 OA
ATOM     15  N   UNL     1     -10.148  -7.559   5.060  0.00  0.00    -0.311 N 
ATOM     16  H   UNL     1     -10.049  -8.520   5.143  0.00  0.00    +0.149 HD
BRANCH  15  17
ATOM     17  C   UNL     1     -11.172  -6.857   5.838  0.00  0.00    +0.070 C 
ATOM     18  C   UNL     1     -10.552  -6.316   7.128  0.00  0.00    +0.028 C 
BRANCH  17  19
ATOM     19  C   UNL     1     -12.303  -7.828   6.184  0.00  0.00    +0.018 C 
ATOM     20  C   UNL     1     -13.004  -8.273   4.899  0.00  0.00    +0.005 C 
ENDBRANCH  17  19
ENDBRANCH  15  17
ENDBRANCH  11  13
ENDBRANCH   9  11
BRANCH   1  21
ATOM     21  C   UNL     1      -2.547  -4.200   0.008  0.00  0.00    +0.180 C 
BRANCH  21  23
ATOM     22  N   UNL     1      -1.406  -2.005   0.011  0.00  0.00    -0.314 N 
ATOM     23  C   UNL     1      -2.565  -2.693   0.017  0.00  0.00    +0.227 C 
ATOM     24  O   UNL     1      -3.623  -2.099   0.030  0.00  0.00    -0.274 OA
ATOM     25  H   UNL     1      -0.560  -2.479   0.000  0.00  0.00    +0.149 HD
BRANCH  22  26
ATOM     26  C   UNL     1      -1.424  -0.540   0.020  0.00  0.00    +0.104 C 
BRANCH  26  28
ATOM     27  C   UNL     1      -0.007   1.518   0.019  0.00  0.00    +0.005 C 
ATOM     28  C   UNL     1       0.012  -0.012   0.010  0.00  0.00    +0.015 C 
ENDBRANCH  26  28
ENDBRANCH  22  26
ENDBRANCH  21  23
ENDBRANCH   1  21
TORSDOF 8
