REMARK  Name = ZINC39371264
REMARK  11 active torsions:
REMARK  status: ('A' for Active; 'I' for Inactive)
REMARK    1  A    between atoms: C_1  and  C_2
REMARK    2  A    between atoms: C_4  and  C_29
REMARK    3  A    between atoms: C_5  and  C_14
REMARK    4  A    between atoms: C_6  and  C_13
REMARK    5  A    between atoms: C_7  and  C_8
REMARK    6  A    between atoms: C_8  and  O_9
REMARK    7  A    between atoms: O_9  and  C_10
REMARK    8  A    between atoms: C_10  and  C_12
REMARK    9  A    between atoms: C_16  and  C_27
REMARK   10  A    between atoms: C_17  and  N_26
REMARK   11  A    between atoms: C_22  and  C_25
REMARK                            x       y       z     vdW  Elec       q    Type
REMARK                         _______ _______ _______ _____ _____    ______ ____
ROOT
ATOM      1  C   UNL     1       0.406  -4.246   0.146  0.00  0.00    +0.098 C 
ATOM      2  C   UNL     1       1.856  -4.597  -0.134  0.00  0.00    +0.097 C 
ATOM      3  C   UNL     1       2.675  -5.055   0.836  0.00  0.00    +0.195 C 
ATOM      4  O   UNL     1       2.349  -5.284   2.122  0.00  0.00    -0.448 OA
ATOM      5  C   UNL     1       1.200  -4.608   2.638  0.00  0.00    +0.343 C 
ATOM      6  C   UNL     1       0.134  -4.734   1.542  0.00  0.00    +0.030 C 
ATOM      7  C   UNL     1      -0.887  -5.314   2.122  0.00  0.00    +0.066 C 
ATOM      8  N   UNL     1      -0.573  -5.660   3.396  0.00  0.00    -0.155 NA
ATOM      9  N   UNL     1       0.584  -5.322   3.760  0.00  0.00    -0.138 NA
ATOM     10  C   UNL     1      -2.222  -5.563   1.467  0.00  0.00    +0.067 C 
ENDROOT
BRANCH   1  15
ATOM     11  C   UNL     1      -0.365   1.473  -0.158  0.00  0.00    +0.044 C 
ATOM     12  C   UNL     1      -0.164  -0.018  -0.079  0.00  0.00    -0.044 A 
ATOM     13  C   UNL     1       0.447  -0.690  -1.122  0.00  0.00    +0.007 A 
ATOM     14  C   UNL     1       0.632  -2.058  -1.049  0.00  0.00    -0.046 A 
ATOM     15  C   UNL     1       0.206  -2.754   0.067  0.00  0.00    -0.029 A 
ATOM     16  C   UNL     1      -0.404  -2.083   1.110  0.00  0.00    -0.039 A 
ATOM     17  C   UNL     1      -0.585  -0.714   1.039  0.00  0.00    -0.004 A 
ATOM     18  C   UNL     1      -0.869  -2.842   2.325  0.00  0.00    +0.044 C 
ATOM     19  C   UNL     1       1.297  -2.790  -2.186  0.00  0.00    +0.044 C 
BRANCH  17  20
ATOM     20  C   UNL     1      -1.245   0.019   2.178  0.00  0.00    +0.268 C 
BRANCH  20  21
ATOM     21  O   UNL     1      -2.657   0.058   1.964  0.00  0.00    -0.460 OA
BRANCH  21  22
ATOM     22  C   UNL     1      -3.397   0.680   2.896  0.00  0.00    +0.304 C 
ATOM     23  O   UNL     1      -2.864   1.175   3.860  0.00  0.00    -0.251 OA
ATOM     24  C   UNL     1      -4.894   0.761   2.738  0.00  0.00    +0.136 C 
ENDBRANCH  21  22
ENDBRANCH  20  21
ENDBRANCH  17  20
ENDBRANCH   1  15
BRANCH   3  25
ATOM     25  N   UNL     1       3.973  -5.315   0.474  0.00  0.00    -0.329 N 
ATOM     26  H   UNL     1       4.260  -5.167  -0.440  0.00  0.00    +0.145 HD
ATOM     27  H   UNL     1       4.603  -5.646   1.133  0.00  0.00    +0.145 HD
ENDBRANCH   3  25
BRANCH   2  28
ATOM     28  C   UNL     1       2.369  -4.438  -1.462  0.00  0.00    +0.101 C 
ATOM     29  N   UNL     1       2.775  -4.311  -2.515  0.00  0.00    -0.191 NA
ENDBRANCH   2  28
TORSDOF 6
