REMARK  Name = ZINC04176660
REMARK  8 active torsions:
REMARK  status: ('A' for Active; 'I' for Inactive)
REMARK    1  A    between atoms: C_1  and  C_2
REMARK    2  A    between atoms: C_3  and  C_29
REMARK    3  A    between atoms: C_4  and  C_21
REMARK    4  A    between atoms: C_10  and  S_12
REMARK    5  A    between atoms: S_12  and  C_13
REMARK    6  A    between atoms: C_13  and  C_14
REMARK    7  A    between atoms: C_26  and  O_27
REMARK    8  A    between atoms: O_27  and  C_28
REMARK                            x       y       z     vdW  Elec       q    Type
REMARK                         _______ _______ _______ _____ _____    ______ ____
ROOT
ATOM      1  C   UNL     1      -0.416   1.584  -0.304  0.00  0.00    +0.064 C 
ATOM      2  C   UNL     1      -0.237   0.096  -0.154  0.00  0.00    +0.026 C 
ATOM      3  C   UNL     1      -1.344  -0.707  -0.133  0.00  0.00    +0.060 C 
ATOM      4  C   UNL     1      -1.117  -2.200   0.019  0.00  0.00    +0.169 C 
ATOM      5  N   UNL     1       0.282  -2.632   0.127  0.00  0.00    -0.187 N 
ATOM      6  C   UNL     1       1.276  -1.683   0.086  0.00  0.00    +0.217 C 
ATOM      7  N   UNL     1       0.987  -0.397  -0.054  0.00  0.00    -0.330 N 
ATOM      8  N   UNL     1       2.447  -2.324   0.203  0.00  0.00    -0.190 NA
ATOM      9  C   UNL     1       2.250  -3.625   0.316  0.00  0.00    +0.197 C 
ATOM     10  N   UNL     1       0.905  -3.874   0.274  0.00  0.00    -0.118 NA
ATOM     11  H   UNL     1       1.727   0.230  -0.080  0.00  0.00    +0.168 HD
ENDROOT
BRANCH   4  12
ATOM     12  C   UNL     1      -1.844  -2.663   1.254  0.00  0.00    +0.021 A 
ATOM     13  C   UNL     1      -2.229  -1.747   2.214  0.00  0.00    +0.009 A 
ATOM     14  C   UNL     1      -2.896  -2.171   3.348  0.00  0.00    +0.001 A 
ATOM     15  C   UNL     1      -3.180  -3.513   3.525  0.00  0.00    +0.004 A 
ATOM     16  C   UNL     1      -2.797  -4.433   2.569  0.00  0.00    +0.046 A 
ATOM     17  C   UNL     1      -2.132  -4.009   1.427  0.00  0.00    +0.125 A 
BRANCH  17  18
ATOM     18  O   UNL     1      -1.760  -4.912   0.482  0.00  0.00    -0.495 OA
ATOM     19  C   UNL     1      -2.090  -6.280   0.726  0.00  0.00    +0.277 C 
ENDBRANCH  17  18
ENDBRANCH   4  12
BRANCH   3  20
ATOM     20  C   UNL     1      -2.639  -0.171  -0.246  0.00  0.00    +0.241 C 
ATOM     21  O   UNL     1      -2.800   1.038  -0.258  0.00  0.00    -0.271 OA
ATOM     22  N   UNL     1      -3.703  -0.993  -0.341  0.00  0.00    -0.325 N 
ATOM     23  H   UNL     1      -3.583  -1.952  -0.259  0.00  0.00    +0.145 HD
ATOM     24  H   UNL     1      -4.588  -0.626  -0.490  0.00  0.00    +0.145 HD
ENDBRANCH   3  20
BRANCH   9  25
ATOM     25  S   UNL     1       3.512  -4.842   0.492  0.00  0.00    -0.082 S 
BRANCH  25  26
ATOM     26  C   UNL     1       5.051  -3.882   0.477  0.00  0.00    +0.113 C 
BRANCH  26  27
ATOM     27  C   UNL     1       6.226  -4.815   0.622  0.00  0.00    -0.019 A 
ATOM     28  C   UNL     1       6.703  -5.136   1.879  0.00  0.00    +0.006 A 
ATOM     29  C   UNL     1       7.781  -5.991   2.012  0.00  0.00    +0.000 A 
ATOM     30  C   UNL     1       8.382  -6.527   0.888  0.00  0.00    +0.001 A 
ATOM     31  C   UNL     1       7.906  -6.207  -0.369  0.00  0.00    +0.020 A 
ATOM     32  C   UNL     1       6.824  -5.355  -0.503  0.00  0.00    +0.045 A 
ATOM     33 CL   UNL     1       6.221  -4.957  -2.082  0.00  0.00    -0.083 Cl
ENDBRANCH  26  27
ENDBRANCH  25  26
ENDBRANCH   9  25
TORSDOF 6
