REMARK  Name = ZINC52073657
REMARK  6 active torsions:
REMARK  status: ('A' for Active; 'I' for Inactive)
REMARK    1  A    between atoms: C_1  and  C_2
REMARK    2  A    between atoms: C_2  and  C_4
REMARK    3  A    between atoms: C_2  and  N_18
REMARK    4  A    between atoms: C_7  and  O_10
REMARK    5  A    between atoms: O_10  and  C_11
REMARK    6  A    between atoms: C_11  and  C_12
REMARK                            x       y       z     vdW  Elec       q    Type
REMARK                         _______ _______ _______ _____ _____    ______ ____
ROOT
ATOM      1  C   UNL     1      -0.019   1.526   0.010  0.00  0.00    +0.033 C 
ATOM      2  C   UNL     1       0.002  -0.004   0.002  0.00  0.00    +0.099 C 
ENDROOT
BRANCH   2   3
ATOM      3  N   UNL     1      -1.372  -0.511   0.012  0.00  0.00    -0.322 N 
ATOM      4  C   UNL     1      -2.070  -0.646  -1.177  0.00  0.00    +0.126 A 
ATOM      5  C   UNL     1      -1.471  -0.308  -2.392  0.00  0.00    +0.083 A 
ATOM      6  C   UNL     1      -2.205  -0.460  -3.554  0.00  0.00    +0.136 A 
ATOM      7  N   UNL     1      -3.447  -0.919  -3.481  0.00  0.00    -0.203 NA
ATOM      8  C   UNL     1      -3.989  -1.232  -2.313  0.00  0.00    +0.216 A 
ATOM      9  N   UNL     1      -3.317  -1.106  -1.179  0.00  0.00    -0.200 NA
ATOM     10  N   UNL     1      -5.288  -1.707  -2.279  0.00  0.00    -0.327 N 
ATOM     11 CL   UNL     1      -1.508  -0.053  -5.091  0.00  0.00    -0.062 Cl
ATOM     12  H   UNL     1      -1.794  -0.752   0.852  0.00  0.00    +0.148 HD
ATOM     13  H   UNL     1      -5.790  -1.808  -3.103  0.00  0.00    +0.145 HD
ATOM     14  H   UNL     1      -5.697  -1.940  -1.431  0.00  0.00    +0.145 HD
ENDBRANCH   2   3
BRANCH   2  15
ATOM     15  C   UNL     1       0.731  -0.503   1.223  0.00  0.00    -0.027 A 
ATOM     16  C   UNL     1       0.080  -0.558   2.441  0.00  0.00    +0.009 A 
ATOM     17  C   UNL     1       0.746  -1.015   3.562  0.00  0.00    +0.046 A 
ATOM     18  C   UNL     1       2.069  -1.419   3.464  0.00  0.00    +0.121 A 
ATOM     19  C   UNL     1       2.720  -1.364   2.240  0.00  0.00    +0.046 A 
ATOM     20  C   UNL     1       2.048  -0.911   1.122  0.00  0.00    +0.009 A 
BRANCH  18  21
ATOM     21  O   UNL     1       2.727  -1.869   4.565  0.00  0.00    -0.487 OA
BRANCH  21  22
ATOM     22  C   UNL     1       4.087  -2.268   4.390  0.00  0.00    +0.266 C 
BRANCH  22  23
ATOM     23  C   UNL     1       4.648  -2.734   5.710  0.00  0.00    +0.008 A 
ATOM     24  C   UNL     1       5.263  -1.834   6.568  0.00  0.00    +0.010 A 
ATOM     25  C   UNL     1       5.764  -2.307   7.771  0.00  0.00    +0.020 A 
ATOM     26  C   UNL     1       5.635  -3.650   8.073  0.00  0.00    +0.111 A 
ATOM     27  N   UNL     1       5.045  -4.477   7.232  0.00  0.00    -0.263 NA
ATOM     28  C   UNL     1       4.551  -4.061   6.082  0.00  0.00    +0.117 A 
ENDBRANCH  22  23
ENDBRANCH  21  22
ENDBRANCH  18  21
ENDBRANCH   2  15
TORSDOF 5
