REMARK  Name = ZINC06753009
REMARK  6 active torsions:
REMARK  status: ('A' for Active; 'I' for Inactive)
REMARK    1  A    between atoms: C_4  and  C_7
REMARK    2  A    between atoms: C_10  and  C_21
REMARK    3  A    between atoms: N_17  and  C_18
REMARK    4  A    between atoms: C_18  and  C_19
REMARK    5  A    between atoms: C_19  and  O_20
REMARK    6  A    between atoms: C_26  and  O_27
REMARK                            x       y       z     vdW  Elec       q    Type
REMARK                         _______ _______ _______ _____ _____    ______ ____
ROOT
ATOM      1  C   UNL     1       3.735  -0.628   0.126  0.00  0.00    +0.141 C 
ATOM      2  C   UNL     1       3.981  -1.008  -1.309  0.00  0.00    +0.035 A 
ATOM      3  C   UNL     1       4.198  -0.579  -2.622  0.00  0.00    +0.102 A 
ATOM      4  N   UNL     1       4.337  -1.655  -3.371  0.00  0.00    -0.173 NA
ATOM      5  N   UNL     1       4.230  -2.721  -2.661  0.00  0.00    -0.272 N 
ATOM      6  H   UNL     1       4.298  -3.626  -3.002  0.00  0.00    +0.189 HD
ATOM      7  C   UNL     1       4.005  -2.389  -1.355  0.00  0.00    +0.126 A 
ATOM      8  C   UNL     1       3.783  -2.905  -0.000  0.00  0.00    +0.266 C 
ATOM      9  O   UNL     1       3.746  -4.085   0.296  0.00  0.00    -0.268 OA
ATOM     10  N   UNL     1       3.625  -1.889   0.869  0.00  0.00    -0.283 N 
ENDROOT
BRANCH   1  14
ATOM     11  C   UNL     1       0.101   1.593   0.456  0.00  0.00    +0.000 A 
ATOM     12  C   UNL     1       0.065   0.258   0.102  0.00  0.00    +0.000 A 
ATOM     13  C   UNL     1       1.241  -0.461  -0.005  0.00  0.00    +0.006 A 
ATOM     14  C   UNL     1       2.453   0.156   0.241  0.00  0.00    -0.022 A 
ATOM     15  C   UNL     1       2.489   1.492   0.594  0.00  0.00    +0.006 A 
ATOM     16  C   UNL     1       1.313   2.210   0.703  0.00  0.00    +0.000 A 
ENDBRANCH   1  14
BRANCH   3  17
ATOM     17  C   UNL     1       4.260   0.830  -3.087  0.00  0.00    +0.044 A 
ATOM     18  C   UNL     1       4.224   1.873  -2.165  0.00  0.00    +0.014 A 
ATOM     19  C   UNL     1       4.282   3.180  -2.602  0.00  0.00    +0.001 A 
ATOM     20  C   UNL     1       4.375   3.460  -3.954  0.00  0.00    +0.004 A 
ATOM     21  C   UNL     1       4.411   2.432  -4.878  0.00  0.00    +0.046 A 
ATOM     22  C   UNL     1       4.360   1.114  -4.452  0.00  0.00    +0.126 A 
BRANCH  22  23
ATOM     23  O   UNL     1       4.402   0.103  -5.358  0.00  0.00    -0.506 OA
ATOM     24  H   UNL     1       3.533  -0.172  -5.681  0.00  0.00    +0.292 HD
ENDBRANCH  22  23
ENDBRANCH   3  17
BRANCH  10  25
ATOM     25  C   UNL     1       3.384  -2.019   2.309  0.00  0.00    +0.137 C 
BRANCH  25  26
ATOM     26  C   UNL     1       1.888  -2.220   2.560  0.00  0.00    +0.175 C 
BRANCH  26  27
ATOM     27  O   UNL     1       1.475  -3.468   2.001  0.00  0.00    -0.393 OA
ATOM     28  H   UNL     1       0.535  -3.662   2.123  0.00  0.00    +0.209 HD
ENDBRANCH  26  27
ENDBRANCH  25  26
ENDBRANCH  10  25
TORSDOF 6
