REMARK  Name = ZINC66433570
REMARK  7 active torsions:
REMARK  status: ('A' for Active; 'I' for Inactive)
REMARK    1  A    between atoms: C_1  and  C_2
REMARK    2  A    between atoms: C_7  and  C_11
REMARK    3  A    between atoms: N_13  and  C_14
REMARK    4  A    between atoms: C_19  and  O_20
REMARK    5  A    between atoms: O_20  and  C_21
REMARK    6  A    between atoms: C_21  and  C_22
REMARK    7  A    between atoms: C_21  and  C_23
REMARK                            x       y       z     vdW  Elec       q    Type
REMARK                         _______ _______ _______ _____ _____    ______ ____
ROOT
ATOM      1  C   UNL     1      -0.414  -5.438   2.424  0.00  0.00    +0.268 C 
ATOM      2  O   UNL     1      -0.951  -6.411   1.930  0.00  0.00    -0.268 OA
ATOM      3  N   UNL     1       0.140  -5.522   3.649  0.00  0.00    -0.277 N 
ATOM      4  H   UNL     1       0.622  -4.765   4.017  0.00  0.00    +0.155 HD
ENDROOT
BRANCH   1  11
ATOM      5  C   UNL     1       0.554   1.447  -0.059  0.00  0.00    +0.044 C 
ATOM      6  C   UNL     1       0.141  -0.001   0.020  0.00  0.00    -0.046 A 
ATOM      7  C   UNL     1      -0.551  -0.596  -1.050  0.00  0.00    +0.021 A 
ATOM      8  C   UNL     1      -0.922  -1.891  -0.984  0.00  0.00    +0.093 A 
ATOM      9  N   UNL     1      -0.633  -2.643   0.120  0.00  0.00    -0.306 N 
ATOM     10  C   UNL     1      -0.889  -3.943   0.436  0.00  0.00    +0.125 A 
ATOM     11  C   UNL     1      -0.369  -4.164   1.680  0.00  0.00    +0.144 A 
ATOM     12  N   UNL     1       0.191  -3.018   2.110  0.00  0.00    -0.223 NA
ATOM     13  C   UNL     1       0.041  -2.090   1.180  0.00  0.00    +0.139 A 
ATOM     14  C   UNL     1       0.440  -0.737   1.122  0.00  0.00    +0.050 A 
ENDBRANCH   1  11
BRANCH   3  15
ATOM     15  C   UNL     1       0.018  -6.703   4.393  0.00  0.00    +0.079 A 
ATOM     16  C   UNL     1       0.016  -7.932   3.750  0.00  0.00    +0.065 A 
ATOM     17  C   UNL     1      -0.105  -9.097   4.487  0.00  0.00    +0.125 A 
ATOM     18  C   UNL     1      -0.224  -9.039   5.865  0.00  0.00    +0.042 A 
ATOM     19  C   UNL     1      -0.223  -7.816   6.511  0.00  0.00    +0.050 A 
ATOM     20  C   UNL     1      -0.096  -6.646   5.780  0.00  0.00    +0.142 A 
ATOM     21  F   UNL     1      -0.106 -10.294   3.860  0.00  0.00    -0.205 F 
BRANCH  20  22
ATOM     22  O   UNL     1      -0.088  -5.444   6.415  0.00  0.00    -0.488 OA
BRANCH  22  23
ATOM     23  C   UNL     1      -0.078  -5.465   7.844  0.00  0.00    +0.167 C 
ATOM     24  C   UNL     1       0.731  -4.276   8.366  0.00  0.00    +0.051 C 
ATOM     25  C   UNL     1      -1.514  -5.373   8.366  0.00  0.00    +0.051 C 
ENDBRANCH  22  23
ENDBRANCH  20  22
ENDBRANCH   3  15
TORSDOF 4
