REMARK  Name = ZINC17252494
REMARK  11 active torsions:
REMARK  status: ('A' for Active; 'I' for Inactive)
REMARK    1  A    between atoms: C_1  and  C_2
REMARK    2  A    between atoms: C_3  and  C_34
REMARK    3  A    between atoms: N_6  and  C_18
REMARK    4  A    between atoms: C_7  and  C_17
REMARK    5  A    between atoms: C_8  and  N_9
REMARK    6  A    between atoms: N_10  and  C_11
REMARK    7  A    between atoms: C_20  and  O_33
REMARK    8  A    between atoms: C_22  and  O_32
REMARK    9  A    between atoms: C_24  and  O_31
REMARK   10  A    between atoms: C_26  and  C_29
REMARK   11  A    between atoms: C_29  and  O_30
REMARK                            x       y       z     vdW  Elec       q    Type
REMARK                         _______ _______ _______ _____ _____    ______ ____
ROOT
ATOM      1  C   UNL     1      -2.428   1.485   0.254  0.00  0.00    +0.047 C 
ATOM      2  C   UNL     1      -2.397  -0.017   0.131  0.00  0.00    -0.002 A 
ATOM      3  C   UNL     1      -3.575  -0.752   0.141  0.00  0.00    +0.088 A 
ATOM      4  C   UNL     1      -3.492  -2.209   0.018  0.00  0.00    +0.107 A 
ATOM      5  S   UNL     1      -4.918  -3.155   0.026  0.00  0.00    -0.031 S 
ATOM      6  N   UNL     1      -2.288  -2.801  -0.100  0.00  0.00    -0.307 N 
ATOM      7  C   UNL     1      -1.153  -2.080  -0.114  0.00  0.00    +0.047 A 
ATOM      8  C   UNL     1      -1.171  -0.702   0.004  0.00  0.00    +0.109 A 
ATOM      9  C   UNL     1       0.168  -2.790  -0.254  0.00  0.00    +0.066 C 
ENDROOT
BRANCH   6  10
ATOM     10  C   UNL     1      -2.214  -4.259  -0.222  0.00  0.00    +0.252 C 
ATOM     11  C   UNL     1      -2.644  -4.676  -1.631  0.00  0.00    +0.195 C 
ATOM     12  C   UNL     1      -2.622  -6.204  -1.731  0.00  0.00    +0.178 C 
ATOM     13  C   UNL     1      -3.533  -6.790  -0.649  0.00  0.00    +0.177 C 
ATOM     14  C   UNL     1      -3.069  -6.291   0.723  0.00  0.00    +0.177 C 
ATOM     15  O   UNL     1      -3.084  -4.862   0.738  0.00  0.00    -0.346 OA
BRANCH  13  16
ATOM     16  O   UNL     1      -4.880  -6.370  -0.879  0.00  0.00    -0.386 OA
ATOM     17  H   UNL     1      -5.239  -6.652  -1.731  0.00  0.00    +0.210 HD
ENDBRANCH  13  16
BRANCH  12  18
ATOM     18  O   UNL     1      -3.091  -6.605  -3.020  0.00  0.00    -0.386 OA
ATOM     19  H   UNL     1      -3.110  -7.563  -3.151  0.00  0.00    +0.210 HD
ENDBRANCH  12  18
BRANCH  11  20
ATOM     20  O   UNL     1      -1.741  -4.121  -2.589  0.00  0.00    -0.385 OA
ATOM     21  H   UNL     1      -1.953  -4.345  -3.506  0.00  0.00    +0.210 HD
ENDBRANCH  11  20
BRANCH  14  22
ATOM     22  C   UNL     1      -4.011  -6.823   1.804  0.00  0.00    +0.190 C 
BRANCH  22  23
ATOM     23  O   UNL     1      -3.514  -6.454   3.092  0.00  0.00    -0.392 OA
ATOM     24  H   UNL     1      -4.063  -6.759   3.828  0.00  0.00    +0.210 HD
ENDBRANCH  22  23
ENDBRANCH  14  22
ENDBRANCH   6  10
BRANCH   8  25
ATOM     25  N   UNL     1       0.002  -0.003  -0.008  0.00  0.00    -0.147 NA
ATOM     26  N   UNL     1       0.127   1.033  -0.767  0.00  0.00    -0.149 NA
BRANCH  26  27
ATOM     27  C   UNL     1       1.301   1.733  -0.779  0.00  0.00    +0.086 A 
ATOM     28  C   UNL     1       2.366   1.333   0.032  0.00  0.00    +0.029 A 
ATOM     29  C   UNL     1       3.550   2.040   0.010  0.00  0.00    +0.002 A 
ATOM     30  C   UNL     1       3.680   3.151  -0.805  0.00  0.00    +0.000 A 
ATOM     31  C   UNL     1       2.628   3.557  -1.607  0.00  0.00    +0.002 A 
ATOM     32  C   UNL     1       1.440   2.856  -1.600  0.00  0.00    +0.029 A 
ENDBRANCH  26  27
ENDBRANCH   8  25
BRANCH   3  33
ATOM     33  C   UNL     1      -4.843  -0.100   0.268  0.00  0.00    +0.102 C 
ATOM     34  N   UNL     1      -5.850   0.417   0.369  0.00  0.00    -0.191 NA
ENDBRANCH   3  33
TORSDOF 9
