REMARK  Name = ZINC31854625
REMARK  2 active torsions:
REMARK  status: ('A' for Active; 'I' for Inactive)
REMARK    1  A    between atoms: C_3  and  C_8
REMARK    2  A    between atoms: N_9  and  N_10
REMARK                            x       y       z     vdW  Elec       q    Type
REMARK                         _______ _______ _______ _____ _____    ______ ____
ROOT
ATOM      1  N   UNL     1       4.805   0.125   0.055  0.00  0.00    -0.215 N 
ATOM      2  C   UNL     1       5.999  -0.551   0.248  0.00  0.00    +0.178 A 
ATOM      3  N   UNL     1       7.198  -0.051   0.457  0.00  0.00    -0.228 NA
ATOM      4  C   UNL     1       8.264  -0.828   0.627  0.00  0.00    +0.054 A 
ATOM      5  C   UNL     1       8.014  -2.161   0.568  0.00  0.00    +0.014 A 
ATOM      6  S   UNL     1       6.267  -2.215   0.280  0.00  0.00    -0.056 S 
ATOM      7  C   UNL     1       8.989  -3.279   0.716  0.00  0.00    +0.044 C 
ATOM      8  C   UNL     1      10.407  -2.699   0.586  0.00  0.00    +0.006 C 
ATOM      9  C   UNL     1      10.513  -1.451   1.467  0.00  0.00    +0.006 C 
ATOM     10  C   UNL     1       9.675  -0.315   0.875  0.00  0.00    +0.056 C 
ATOM     11  H   UNL     1       3.984  -0.371  -0.085  0.00  0.00    +0.176 HD
ENDROOT
BRANCH   1  13
ATOM     12  C   UNL     1       3.652   2.159   0.008  0.00  0.00    +0.138 C 
ATOM     13  N   UNL     1       4.785   1.526   0.062  0.00  0.00    -0.188 NA
BRANCH  12  16
ATOM     14  C   UNL     1       1.343  -0.241   1.739  0.00  0.00    +0.002 A 
ATOM     15  C   UNL     1       2.499   0.361   1.286  0.00  0.00    +0.009 A 
ATOM     16  C   UNL     1       2.421   1.510   0.495  0.00  0.00    -0.004 A 
ATOM     17  C   UNL     1       1.171   2.041   0.168  0.00  0.00    +0.024 A 
ATOM     18  C   UNL     1       0.023   1.429   0.627  0.00  0.00    +0.018 A 
ATOM     19  C   UNL     1       0.109   0.290   1.411  0.00  0.00    +0.015 A 
ATOM     20 BR   UNL     1      -1.670   2.146   0.187  0.00  0.00    -0.050 Br
ENDBRANCH  12  16
ENDBRANCH   1  13
TORSDOF 2
