REMARK  Name = ZINC59485600
REMARK  7 active torsions:
REMARK  status: ('A' for Active; 'I' for Inactive)
REMARK    1  A    between atoms: C_1  and  C_2
REMARK    2  A    between atoms: C_2  and  C_3
REMARK    3  A    between atoms: N_25  and  C_28
REMARK    4  A    between atoms: C_31  and  C_34
REMARK    5  A    between atoms: C_34  and  O_36
REMARK    6  A    between atoms: O_36  and  C_37
REMARK    7  A    between atoms: C_37  and  C_38
REMARK                            x       y       z     vdW  Elec       q    Type
REMARK                         _______ _______ _______ _____ _____    ______ ____
ROOT
ATOM      1  C   UNL     1      -1.442  -0.289   0.030  0.00  0.00    -0.026 A 
ATOM      2  C   UNL     1      -2.039  -0.605   1.233  0.00  0.00    +0.005 A 
ATOM      3  C   UNL     1      -3.321  -1.124   1.261  0.00  0.00    +0.001 A 
ATOM      4  C   UNL     1      -4.008  -1.327   0.077  0.00  0.00    +0.008 A 
ATOM      5  C   UNL     1      -3.416  -1.013  -1.125  0.00  0.00    +0.004 A 
ATOM      6  C   UNL     1      -2.128  -0.484  -1.166  0.00  0.00    +0.042 A 
ATOM      7  N   UNL     1      -1.748  -0.241  -2.487  0.00  0.00    -0.283 N 
ATOM      8  C   UNL     1      -2.715  -0.572  -3.364  0.00  0.00    +0.243 C 
ATOM      9  O   UNL     1      -2.664  -0.470  -4.571  0.00  0.00    -0.273 OA
ATOM     10  C   UNL     1      -3.867  -1.107  -2.556  0.00  0.00    +0.138 C 
ATOM     11  C   UNL     1      -5.133  -0.277  -2.799  0.00  0.00    +0.123 C 
ATOM     12  C   UNL     1      -5.951  -1.101  -3.831  0.00  0.00    +0.107 C 
ATOM     13  C   UNL     1      -5.094  -2.346  -4.123  0.00  0.00    +0.071 C 
ATOM     14  N   UNL     1      -4.204  -2.492  -2.925  0.00  0.00    -0.281 NA
ATOM     15  C   UNL     1      -5.058  -3.098  -1.876  0.00  0.00    +0.086 C 
ATOM     16  C   UNL     1      -5.964  -4.100  -2.620  0.00  0.00    +0.017 C 
ATOM     17  C   UNL     1      -5.994  -3.596  -4.116  0.00  0.00    +0.021 C 
ATOM     18  C   UNL     1      -7.189  -1.496  -3.059  0.00  0.00    +0.232 C 
ATOM     19  O   UNL     1      -8.106  -2.158  -3.496  0.00  0.00    -0.274 OA
ATOM     20  N   UNL     1      -7.116  -1.002  -1.817  0.00  0.00    -0.210 N 
ATOM     21  C   UNL     1      -5.997  -0.287  -1.558  0.00  0.00    +0.233 C 
ATOM     22  O   UNL     1      -5.723   0.255  -0.509  0.00  0.00    -0.274 OA
ATOM     23  H   UNL     1      -0.886   0.124  -2.744  0.00  0.00    +0.155 HD
ENDROOT
BRANCH  20  24
ATOM     24  C   UNL     1      -8.118  -1.201  -0.864  0.00  0.00    +0.044 A 
ATOM     25  C   UNL     1      -7.862  -1.982   0.258  0.00  0.00    +0.025 A 
ATOM     26  C   UNL     1      -8.847  -2.182   1.199  0.00  0.00    +0.017 A 
ATOM     27  C   UNL     1     -10.105  -1.597   1.027  0.00  0.00    +0.059 A 
ATOM     28  C   UNL     1     -10.358  -0.811  -0.101  0.00  0.00    +0.017 A 
ATOM     29  C   UNL     1      -9.366  -0.613  -1.036  0.00  0.00    +0.025 A 
BRANCH  27  30
ATOM     30  C   UNL     1     -11.163  -1.808   2.033  0.00  0.00    +0.339 C 
ATOM     31  O   UNL     1     -10.941  -2.491   3.013  0.00  0.00    -0.245 OA
BRANCH  30  32
ATOM     32  O   UNL     1     -12.374  -1.243   1.865  0.00  0.00    -0.461 OA
BRANCH  32  33
ATOM     33  C   UNL     1     -13.351  -1.490   2.878  0.00  0.00    +0.229 C 
ATOM     34  C   UNL     1     -14.653  -0.772   2.517  0.00  0.00    +0.048 C 
ENDBRANCH  32  33
ENDBRANCH  30  32
ENDBRANCH  27  30
ENDBRANCH  20  24
BRANCH   1  36
ATOM     35  C   UNL     1      -0.113   1.804  -0.031  0.00  0.00    +0.009 C 
ATOM     36  C   UNL     1      -0.045   0.276   0.011  0.00  0.00    +0.033 C 
ENDBRANCH   1  36
TORSDOF 5
