REMARK  Name = ZINC00283407
REMARK  6 active torsions:
REMARK  status: ('A' for Active; 'I' for Inactive)
REMARK    1  A    between atoms: C_1  and  C_2
REMARK    2  A    between atoms: C_9  and  C_17
REMARK    3  A    between atoms: C_11  and  C_15
REMARK    4  A    between atoms: C_12  and  N_14
REMARK    5  A    between atoms: C_20  and  N_23
REMARK    6  A    between atoms: C_24  and  C_26
REMARK                            x       y       z     vdW  Elec       q    Type
REMARK                         _______ _______ _______ _____ _____    ______ ____
ROOT
ATOM      1  C   UNL     1       3.931   1.635   0.163  0.00  0.00    +0.086 C 
ATOM      2  C   UNL     1       2.568   0.993   0.122  0.00  0.00    +0.110 A 
ATOM      3  C   UNL     1       2.485  -0.347   0.031  0.00  0.00    +0.088 A 
ATOM      4  C   UNL     1       1.213  -0.964  -0.009  0.00  0.00    +0.144 A 
ATOM      5  C   UNL     1       0.095  -0.160   0.048  0.00  0.00    +0.092 A 
ATOM      6  C   UNL     1       0.262   1.227   0.141  0.00  0.00    +0.345 A 
ATOM      7  O   UNL     1      -0.721   1.949   0.187  0.00  0.00    -0.245 OA
ATOM      8  O   UNL     1       1.485   1.774   0.176  0.00  0.00    -0.427 OA
ATOM      9  C   UNL     1      -1.284  -0.758   0.011  0.00  0.00    +0.105 C 
ATOM     10  C   UNL     1      -1.218  -2.178  -0.480  0.00  0.00    +0.098 C 
ATOM     11  C   UNL     1      -0.049  -2.859  -0.508  0.00  0.00    +0.199 C 
ATOM     12  O   UNL     1       1.108  -2.304  -0.102  0.00  0.00    -0.441 OA
ENDROOT
BRANCH   9  13
ATOM     13  C   UNL     1      -1.876  -0.735   1.397  0.00  0.00    -0.034 A 
ATOM     14  C   UNL     1      -1.248  -1.412   2.426  0.00  0.00    +0.006 A 
ATOM     15  C   UNL     1      -1.784  -1.389   3.699  0.00  0.00    +0.023 A 
ATOM     16  C   UNL     1      -2.962  -0.695   3.941  0.00  0.00    +0.033 A 
ATOM     17  C   UNL     1      -3.594  -0.021   2.904  0.00  0.00    +0.023 A 
ATOM     18  C   UNL     1      -3.049  -0.043   1.635  0.00  0.00    +0.006 A 
BRANCH  16  19
ATOM     19  N   UNL     1      -3.512  -0.674   5.228  0.00  0.00    -0.286 N 
ATOM     20  C   UNL     1      -4.850  -0.636   5.388  0.00  0.00    +0.214 C 
ATOM     21  O   UNL     1      -5.579  -0.715   4.423  0.00  0.00    -0.276 OA
ATOM     22  C   UNL     1      -5.439  -0.494   6.768  0.00  0.00    +0.109 C 
ATOM     23  H   UNL     1      -2.930  -0.688   6.004  0.00  0.00    +0.155 HD
ENDBRANCH  16  19
ENDBRANCH   9  13
BRANCH  11  24
ATOM     24  N   UNL     1      -0.043  -4.153  -0.964  0.00  0.00    -0.328 N 
ATOM     25  H   UNL     1      -0.869  -4.567  -1.260  0.00  0.00    +0.145 HD
ATOM     26  H   UNL     1       0.788  -4.654  -0.991  0.00  0.00    +0.145 HD
ENDBRANCH  11  24
BRANCH  10  27
ATOM     27  C   UNL     1      -2.417  -2.822  -0.927  0.00  0.00    +0.101 C 
ATOM     28  N   UNL     1      -3.367  -3.333  -1.281  0.00  0.00    -0.191 NA
ENDBRANCH  10  27
TORSDOF 4
