REMARK  Name = ZINC44598994
REMARK  6 active torsions:
REMARK  status: ('A' for Active; 'I' for Inactive)
REMARK    1  A    between atoms: C_1  and  C_2
REMARK    2  A    between atoms: C_2  and  C_3
REMARK    3  A    between atoms: C_12  and  C_13
REMARK    4  A    between atoms: N_17  and  C_22
REMARK    5  A    between atoms: N_20  and  C_21
REMARK    6  A    between atoms: C_22  and  C_23
REMARK                            x       y       z     vdW  Elec       q    Type
REMARK                         _______ _______ _______ _____ _____    ______ ____
ROOT
ATOM      1  C   UNL     1      -0.414  -1.179   1.094  0.00  0.00    -0.024 A 
ATOM      2  C   UNL     1       0.941  -1.139   0.846  0.00  0.00    +0.005 A 
ATOM      3  C   UNL     1       1.853  -1.267   1.883  0.00  0.00    +0.001 A 
ATOM      4  C   UNL     1       1.413  -1.435   3.179  0.00  0.00    +0.010 A 
ATOM      5  C   UNL     1       0.047  -1.477   3.443  0.00  0.00    +0.007 A 
ATOM      6  C   UNL     1      -0.877  -1.342   2.395  0.00  0.00    +0.050 A 
ATOM      7  N   UNL     1      -2.141  -1.414   2.944  0.00  0.00    -0.360 N 
ATOM      8  H   UNL     1      -2.968  -1.353   2.440  0.00  0.00    +0.165 HD
ATOM      9  C   UNL     1      -2.064  -1.582   4.289  0.00  0.00    +0.091 A 
ATOM     10  C   UNL     1      -0.753  -1.638   4.671  0.00  0.00    +0.002 A 
ENDROOT
BRANCH  10  11
ATOM     11  C   UNL     1      -0.245  -1.810   6.033  0.00  0.00    +0.038 C 
ATOM     12  C   UNL     1      -0.770  -1.077   7.053  0.00  0.00    +0.099 C 
ATOM     13  C   UNL     1      -0.528  -1.249   8.443  0.00  0.00    +0.266 C 
ATOM     14  O   UNL     1       0.193  -2.087   8.954  0.00  0.00    -0.268 OA
ATOM     15  N   UNL     1      -1.248  -0.311   9.088  0.00  0.00    -0.248 N 
ATOM     16  C   UNL     1      -1.921   0.434   8.195  0.00  0.00    +0.146 C 
ATOM     17  S   UNL     1      -2.959   1.738   8.586  0.00  0.00    -0.018 S 
ATOM     18  N   UNL     1      -1.655   0.005   6.947  0.00  0.00    -0.281 N 
ATOM     19  C   UNL     1      -2.193   0.566   5.705  0.00  0.00    +0.137 C 
BRANCH  15  20
ATOM     20  C   UNL     1      -1.291  -0.131  10.541  0.00  0.00    +0.112 C 
ATOM     21  C   UNL     1      -0.190   0.843  10.966  0.00  0.00    +0.025 C 
ENDBRANCH  15  20
ENDBRANCH  10  11
BRANCH   1  23
ATOM     22  C   UNL     1      -1.823   0.425  -0.169  0.00  0.00    +0.009 C 
ATOM     23  C   UNL     1      -1.393  -1.038  -0.044  0.00  0.00    +0.034 C 
ENDBRANCH   1  23
TORSDOF 3
