REMARK  Name = ZINC36571204
REMARK  14 active torsions:
REMARK  status: ('A' for Active; 'I' for Inactive)
REMARK    1  A    between atoms: C_1  and  C_2
REMARK    2  A    between atoms: C_2  and  C_3
REMARK    3  A    between atoms: C_3  and  N_4
REMARK    4  A    between atoms: N_4  and  C_5
REMARK    5  A    between atoms: C_5  and  C_7
REMARK    6  A    between atoms: C_5  and  C_14
REMARK    7  A    between atoms: C_11  and  O_13
REMARK    8  A    between atoms: N_16  and  C_17
REMARK    9  A    between atoms: C_17  and  S_18
REMARK   10  A    between atoms: S_18  and  C_21
REMARK   11  A    between atoms: C_24  and  C_27
REMARK   12  A    between atoms: C_28  and  C_30
REMARK   13  A    between atoms: C_34  and  O_37
REMARK   14  A    between atoms: C_35  and  O_36
REMARK                            x       y       z     vdW  Elec       q    Type
REMARK                         _______ _______ _______ _____ _____    ______ ____
ROOT
ATOM      1  C   UNL     1      -1.455  -2.830   1.437  0.00  0.00    +0.193 C 
ENDROOT
BRANCH   1   2
ATOM      2  C   UNL     1      -0.315  -2.237   2.225  0.00  0.00    -0.015 A 
ATOM      3  C   UNL     1      -0.174  -0.864   2.310  0.00  0.00    +0.006 A 
ATOM      4  C   UNL     1       0.870  -0.317   3.032  0.00  0.00    +0.004 A 
ATOM      5  C   UNL     1       1.776  -1.142   3.671  0.00  0.00    +0.045 A 
ATOM      6  C   UNL     1       1.637  -2.519   3.588  0.00  0.00    +0.117 A 
ATOM      7  C   UNL     1       0.584  -3.066   2.868  0.00  0.00    +0.051 A 
BRANCH   6   8
ATOM      8  O   UNL     1       2.527  -3.332   4.216  0.00  0.00    -0.507 OA
ATOM      9  H   UNL     1       2.279  -3.560   5.122  0.00  0.00    +0.292 HD
ENDBRANCH   6   8
ENDBRANCH   1   2
BRANCH   1  10
ATOM     10  C   UNL     1      -2.735  -2.683   2.217  0.00  0.00    +0.239 C 
ATOM     11  O   UNL     1      -3.692  -2.133   1.715  0.00  0.00    -0.273 OA
ATOM     12  N   UNL     1      -2.818  -3.163   3.474  0.00  0.00    -0.294 N 
ATOM     13  H   UNL     1      -2.053  -3.603   3.877  0.00  0.00    +0.150 HD
BRANCH  12  14
ATOM     14  C   UNL     1      -4.063  -3.019   4.233  0.00  0.00    +0.278 C 
BRANCH  14  15
ATOM     15  S   UNL     1      -5.056  -4.527   4.055  0.00  0.00    +0.013 S 
ATOM     16  O   UNL     1      -6.239  -4.429   4.837  0.00  0.00    -0.168 OA
ATOM     17  O   UNL     1      -5.120  -4.912   2.689  0.00  0.00    -0.168 OA
BRANCH  15  18
ATOM     18  C   UNL     1      -4.106  -5.790   4.834  0.00  0.00    +0.090 A 
ATOM     19  C   UNL     1      -3.187  -6.516   4.100  0.00  0.00    +0.027 A 
ATOM     20  C   UNL     1      -2.441  -7.506   4.711  0.00  0.00    +0.005 A 
ATOM     21  C   UNL     1      -2.615  -7.771   6.057  0.00  0.00    -0.050 A 
ATOM     22  C   UNL     1      -3.533  -7.044   6.792  0.00  0.00    +0.005 A 
ATOM     23  C   UNL     1      -4.275  -6.051   6.181  0.00  0.00    +0.027 A 
ATOM     24  C   UNL     1      -1.803  -8.852   6.723  0.00  0.00    +0.044 C 
ENDBRANCH  15  18
ENDBRANCH  14  15
ENDBRANCH  12  14
ENDBRANCH   1  10
BRANCH   1  25
ATOM     25  N   UNL     1      -1.579  -2.130   0.157  0.00  0.00    -0.282 N 
ATOM     26  C   UNL     1      -0.640  -2.294  -0.796  0.00  0.00    +0.251 C 
ATOM     27  O   UNL     1      -0.787  -1.782  -1.889  0.00  0.00    -0.270 OA
BRANCH  26  28
ATOM     28  C   UNL     1       0.566  -3.095  -0.512  0.00  0.00    +0.082 A 
ATOM     29  C   UNL     1       0.684  -3.781   0.700  0.00  0.00    +0.017 A 
ATOM     30  C   UNL     1       1.812  -4.529   0.961  0.00  0.00    +0.005 A 
ATOM     31  C   UNL     1       2.832  -4.605   0.027  0.00  0.00    +0.049 A 
ATOM     32  C   UNL     1       2.730  -3.931  -1.177  0.00  0.00    +0.159 A 
ATOM     33  C   UNL     1       1.594  -3.177  -1.458  0.00  0.00    +0.171 A 
BRANCH  33  34
ATOM     34  O   UNL     1       1.487  -2.519  -2.641  0.00  0.00    -0.503 OA
ATOM     35  H   UNL     1       1.843  -1.620  -2.624  0.00  0.00    +0.292 HD
ENDBRANCH  33  34
BRANCH  32  36
ATOM     36  O   UNL     1       3.736  -4.010  -2.089  0.00  0.00    -0.503 OA
ATOM     37  H   UNL     1       3.642  -4.741  -2.716  0.00  0.00    +0.292 HD
ENDBRANCH  32  36
ENDBRANCH  26  28
BRANCH  25  38
ATOM     38  C   UNL     1      -2.725  -1.250  -0.088  0.00  0.00    +0.109 C 
BRANCH  38  40
ATOM     39  C   UNL     1      -5.138  -1.183  -0.733  0.00  0.00    +0.005 C 
ATOM     40  C   UNL     1      -3.906  -2.079  -0.597  0.00  0.00    +0.016 C 
ENDBRANCH  38  40
ENDBRANCH  25  38
ENDBRANCH   1  25
TORSDOF 12
