REMARK  Name = ZINC35678083
REMARK  8 active torsions:
REMARK  status: ('A' for Active; 'I' for Inactive)
REMARK    1  A    between atoms: C_1  and  C_2
REMARK    2  A    between atoms: C_2  and  N_3
REMARK    3  A    between atoms: C_7  and  C_9
REMARK    4  A    between atoms: C_9  and  C_11
REMARK    5  A    between atoms: C_9  and  O_12
REMARK    6  A    between atoms: O_12  and  C_13
REMARK    7  A    between atoms: C_15  and  N_20
REMARK    8  A    between atoms: C_18  and  C_19
REMARK                            x       y       z     vdW  Elec       q    Type
REMARK                         _______ _______ _______ _____ _____    ______ ____
ROOT
ATOM      1  C   UNL     1       2.436  -4.043  -3.804  0.00  0.00    +0.256 C 
ATOM      2  C   UNL     1       1.771  -3.402  -5.025  0.00  0.00    +0.062 C 
ENDROOT
BRANCH   1   7
ATOM      3  N   UNL     1       0.927  -0.735  -0.659  0.00  0.00    -0.299 N 
ATOM      4  C   UNL     1       0.964  -2.023  -1.053  0.00  0.00    +0.306 C 
ATOM      5  O   UNL     1       0.386  -2.874  -0.405  0.00  0.00    -0.252 OA
ATOM      6  N   UNL     1       1.641  -2.368  -2.166  0.00  0.00    -0.237 N 
ATOM      7  C   UNL     1       1.678  -3.657  -2.560  0.00  0.00    +0.261 C 
ATOM      8  O   UNL     1       1.102  -4.505  -1.914  0.00  0.00    -0.271 OA
ATOM      9  H   UNL     1       1.388  -0.056  -1.176  0.00  0.00    +0.150 HD
ATOM     10  H   UNL     1       2.102  -1.690  -2.683  0.00  0.00    +0.159 HD
BRANCH   3  12
ATOM     11  C   UNL     1       0.308   1.150   0.771  0.00  0.00    +0.024 C 
ATOM     12  C   UNL     1       0.191  -0.360   0.551  0.00  0.00    +0.102 C 
ENDBRANCH   3  12
ENDBRANCH   1   7
BRANCH   1  13
ATOM     13  O   UNL     1       2.425  -5.464  -3.947  0.00  0.00    -0.480 OA
BRANCH  13  14
ATOM     14  C   UNL     1       3.439  -6.021  -4.659  0.00  0.00    +0.126 A 
ATOM     15  C   UNL     1       4.360  -5.210  -5.304  0.00  0.00    +0.068 A 
ATOM     16  C   UNL     1       5.396  -5.781  -6.030  0.00  0.00    +0.028 A 
ATOM     17  C   UNL     1       5.506  -7.165  -6.109  0.00  0.00    +0.023 A 
ATOM     18  C   UNL     1       4.586  -7.969  -5.465  0.00  0.00    +0.009 A 
ATOM     19  C   UNL     1       3.558  -7.401  -4.736  0.00  0.00    -0.009 A 
ATOM     20  C   UNL     1       2.560  -8.283  -4.030  0.00  0.00    +0.047 C 
BRANCH  16  21
ATOM     21  N   UNL     1       6.325  -4.968  -6.681  0.00  0.00    -0.358 N 
ATOM     22  H   UNL     1       6.248  -4.002  -6.626  0.00  0.00    +0.142 HD
ATOM     23  H   UNL     1       7.049  -5.368  -7.189  0.00  0.00    +0.142 HD
ENDBRANCH  16  21
ENDBRANCH  13  14
ENDBRANCH   1  13
TORSDOF 5
