REMARK  Name = ZINC39922866
REMARK  6 active torsions:
REMARK  status: ('A' for Active; 'I' for Inactive)
REMARK    1  A    between atoms: C_1  and  C_2
REMARK    2  A    between atoms: C_2  and  C_23
REMARK    3  A    between atoms: N_3  and  N_4
REMARK    4  A    between atoms: C_5  and  C_7
REMARK    5  A    between atoms: C_10  and  C_13
REMARK    6  A    between atoms: C_27  and  N_29
REMARK                            x       y       z     vdW  Elec       q    Type
REMARK                         _______ _______ _______ _____ _____    ______ ____
ROOT
ATOM      1  N   UNL     1      -1.099  -1.735   1.008  0.00  0.00    -0.205 N 
ATOM      2  C   UNL     1      -1.477  -1.928   2.287  0.00  0.00    +0.263 C 
ATOM      3  O   UNL     1      -1.209  -1.098   3.131  0.00  0.00    -0.271 OA
ATOM      4  H   UNL     1      -1.314  -2.398   0.334  0.00  0.00    +0.177 HD
ENDROOT
BRANCH   2   5
ATOM      5  C   UNL     1      -2.233  -3.174   2.670  0.00  0.00    +0.240 C 
ATOM      6  C   UNL     1      -1.279  -4.335   2.886  0.00  0.00    +0.041 C 
ATOM      7  C   UNL     1      -1.464  -4.669   4.179  0.00  0.00    +0.092 C 
ATOM      8  N   UNL     1      -2.397  -3.860   4.748  0.00  0.00    -0.153 NA
ATOM      9  N   UNL     1      -2.873  -3.011   3.986  0.00  0.00    -0.170 NA
BRANCH   7  10
ATOM     10  C   UNL     1      -0.752  -5.762   4.881  0.00  0.00    +0.010 A 
ATOM     11  C   UNL     1       0.629  -5.756   4.965  0.00  0.00    +0.011 A 
ATOM     12  C   UNL     1       1.304  -6.778   5.621  0.00  0.00    +0.001 A 
ATOM     13  C   UNL     1       0.630  -7.811   6.199  0.00  0.00    +0.008 A 
ATOM     14  C   UNL     1      -0.774  -7.857   6.137  0.00  0.00    -0.017 A 
ATOM     15  C   UNL     1      -1.478  -6.820   5.478  0.00  0.00    -0.009 A 
ATOM     16  C   UNL     1      -2.878  -6.864   5.422  0.00  0.00    +0.009 A 
ATOM     17  C   UNL     1      -3.544  -7.898   6.008  0.00  0.00    +0.001 A 
ATOM     18  C   UNL     1      -2.854  -8.916   6.663  0.00  0.00    +0.001 A 
ATOM     19  C   UNL     1      -1.494  -8.913   6.724  0.00  0.00    +0.008 A 
ENDBRANCH   7  10
ENDBRANCH   2   5
BRANCH   1  22
ATOM     20  C   UNL     1       0.740   0.835  -0.968  0.00  0.00    +0.068 C 
ATOM     21  C   UNL     1      -0.141  -0.330  -0.595  0.00  0.00    +0.063 C 
ATOM     22  N   UNL     1      -0.396  -0.576   0.653  0.00  0.00    -0.184 NA
BRANCH  21  23
ATOM     23  C   UNL     1      -0.713  -1.189  -1.649  0.00  0.00    -0.000 A 
ATOM     24  C   UNL     1      -1.999  -1.715  -1.504  0.00  0.00    +0.010 A 
ATOM     25  C   UNL     1      -2.527  -2.517  -2.493  0.00  0.00    +0.003 A 
ATOM     26  C   UNL     1      -1.787  -2.801  -3.628  0.00  0.00    +0.033 A 
ATOM     27  C   UNL     1      -0.513  -2.283  -3.778  0.00  0.00    +0.127 A 
ATOM     28  C   UNL     1       0.026  -1.475  -2.799  0.00  0.00    +0.042 A 
BRANCH  27  29
ATOM     29  N   UNL     1       0.271  -2.593  -4.995  0.00  0.00    +0.056 N 
ATOM     30  O   UNL     1      -0.202  -3.298  -5.856  0.00  0.00    -0.126 OA
ATOM     31  O   UNL     1       1.384  -2.141  -5.128  0.00  0.00    -0.126 OA
ENDBRANCH  27  29
ENDBRANCH  21  23
ENDBRANCH   1  22
TORSDOF 5
