REMARK  Name = ZINC02129527
REMARK  12 active torsions:
REMARK  status: ('A' for Active; 'I' for Inactive)
REMARK    1  A    between atoms: C_1  and  N_66
REMARK    2  A    between atoms: C_8  and  O_34
REMARK    3  A    between atoms: C_10  and  C_12
REMARK    4  A    between atoms: C_13  and  O_33
REMARK    5  A    between atoms: N_18  and  C_21
REMARK    6  A    between atoms: C_21  and  C_22
REMARK    7  A    between atoms: C_22  and  C_23
REMARK    8  A    between atoms: C_26  and  O_31
REMARK    9  A    between atoms: C_27  and  O_29
REMARK   10  A    between atoms: O_29  and  C_30
REMARK   11  A    between atoms: O_31  and  C_32
REMARK   12  A    between atoms: O_34  and  C_35
REMARK                            x       y       z     vdW  Elec       q    Type
REMARK                         _______ _______ _______ _____ _____    ______ ____
ROOT
ATOM      1  C   UNL     1      -2.360   0.061  -0.924  0.00  0.00    +0.067 A 
ATOM      2  C   UNL     1      -2.364  -1.220  -0.461  0.00  0.00    +0.201 A 
ATOM      3  N   UNL     1      -2.234  -2.260  -1.347  0.00  0.00    -0.278 N 
ATOM      4  H   UNL     1      -2.236  -3.173  -1.021  0.00  0.00    +0.173 HD
ATOM      5  C   UNL     1      -2.103  -2.019  -2.664  0.00  0.00    +0.332 A 
ATOM      6  O   UNL     1      -1.988  -2.953  -3.435  0.00  0.00    -0.246 OA
ATOM      7  N   UNL     1      -2.097  -0.761  -3.142  0.00  0.00    -0.260 N 
ATOM      8  C   UNL     1      -2.228   0.288  -2.306  0.00  0.00    +0.262 A 
ATOM      9  O   UNL     1      -2.227   1.425  -2.744  0.00  0.00    -0.267 OA
ENDROOT
BRANCH   1  19
ATOM     10  C   UNL     1      -4.900   1.291  -0.282  0.00  0.00    -0.095 C 
ATOM     11  C   UNL     1      -3.700   3.271   0.435  0.00  0.00    -0.073 C 
ATOM     12  C   UNL     1      -2.545   4.183   0.030  0.00  0.00    +0.017 C 
ATOM     13  C   UNL     1      -1.251   3.410   0.028  0.00  0.00    -0.040 A 
ATOM     14  C   UNL     1      -0.059   4.119   0.024  0.00  0.00    +0.053 A 
ATOM     15  C   UNL     1       1.155   3.453   0.010  0.00  0.00    +0.170 A 
ATOM     16  C   UNL     1       1.178   2.062   0.002  0.00  0.00    +0.208 A 
ATOM     17  C   UNL     1      -0.016   1.356   0.009  0.00  0.00    +0.167 A 
ATOM     18  C   UNL     1      -1.233   2.031   0.019  0.00  0.00    -0.008 A 
ATOM     19  C   UNL     1      -2.502   1.220   0.029  0.00  0.00    +0.007 C 
ATOM     20  O   UNL     1       2.479   1.647  -0.013  0.00  0.00    -0.449 OA
ATOM     21  C   UNL     1       3.244   2.795  -0.424  0.00  0.00    +0.467 C 
ATOM     22  O   UNL     1       2.441   3.911   0.002  0.00  0.00    -0.452 OA
ATOM     23  N   UNL     1      -3.637   2.054  -0.400  0.00  0.00    +0.386 N 
ATOM     24  H   UNL     1      -3.502   2.326  -1.381  0.00  0.00    -0.081 HD
BRANCH  17  25
ATOM     25  O   UNL     1       0.002  -0.004   0.002  0.00  0.00    -0.491 OA
ATOM     26  C   UNL     1       0.023  -0.660   1.272  0.00  0.00    +0.277 C 
ENDBRANCH  17  25
ENDBRANCH   1  19
BRANCH   2  27
ATOM     27  O   UNL     1      -2.494  -1.465   0.861  0.00  0.00    -0.493 OA
ATOM     28  H   UNL     1      -2.485  -2.405   1.089  0.00  0.00    +0.294 HD
ENDBRANCH   2  27
BRANCH   7  29
ATOM     29  C   UNL     1      -1.953  -0.531  -4.581  0.00  0.00    +0.134 C 
BRANCH  29  30
ATOM     30  C   UNL     1      -3.336  -0.501  -5.234  0.00  0.00    +0.057 C 
BRANCH  30  31
ATOM     31  C   UNL     1      -3.188  -0.264  -6.715  0.00  0.00    -0.042 A 
ATOM     32  C   UNL     1      -3.187   1.027  -7.210  0.00  0.00    +0.007 A 
ATOM     33  C   UNL     1      -3.045   1.250  -8.567  0.00  0.00    +0.049 A 
ATOM     34  C   UNL     1      -2.916   0.178  -9.435  0.00  0.00    +0.161 A 
ATOM     35  C   UNL     1      -2.922  -1.121  -8.938  0.00  0.00    +0.162 A 
ATOM     36  C   UNL     1      -3.059  -1.338  -7.576  0.00  0.00    +0.053 A 
BRANCH  35  37
ATOM     37  O   UNL     1      -2.795  -2.177  -9.786  0.00  0.00    -0.491 OA
ATOM     38  C   UNL     1      -2.810  -3.482  -9.205  0.00  0.00    +0.277 C 
ENDBRANCH  35  37
BRANCH  34  39
ATOM     39  O   UNL     1      -2.782   0.396 -10.771  0.00  0.00    -0.491 OA
ATOM     40  C   UNL     1      -2.784   1.755 -11.210  0.00  0.00    +0.277 C 
ENDBRANCH  34  39
ENDBRANCH  30  31
ENDBRANCH  29  30
ENDBRANCH   7  29
TORSDOF 8
