REMARK  Name = ZINC09822927
REMARK  12 active torsions:
REMARK  status: ('A' for Active; 'I' for Inactive)
REMARK    1  A    between atoms: C_1  and  C_2
REMARK    2  A    between atoms: C_2  and  C_4
REMARK    3  A    between atoms: C_4  and  O_5
REMARK    4  A    between atoms: O_5  and  C_6
REMARK    5  A    between atoms: C_11  and  N_12
REMARK    6  A    between atoms: C_13  and  C_15
REMARK    7  A    between atoms: C_15  and  O_16
REMARK    8  A    between atoms: O_16  and  C_17
REMARK    9  A    between atoms: C_20  and  C_23
REMARK   10  A    between atoms: C_23  and  C_24
REMARK   11  A    between atoms: C_23  and  C_25
REMARK   12  A    between atoms: C_23  and  C_26
REMARK                            x       y       z     vdW  Elec       q    Type
REMARK                         _______ _______ _______ _____ _____    ______ ____
ROOT
ATOM      1  N   UNL     1      -1.640  -1.854   0.008  0.00  0.00    -0.280 N 
ATOM      2  C   UNL     1      -1.411  -0.526   0.017  0.00  0.00    +0.255 C 
ATOM      3  O   UNL     1      -2.344   0.250   0.024  0.00  0.00    -0.272 OA
ATOM      4  H   UNL     1      -0.898  -2.473  -0.079  0.00  0.00    +0.155 HD
ENDROOT
BRANCH   1  10
ATOM      5  C   UNL     1      -3.273  -3.599  -0.378  0.00  0.00    +0.142 A 
ATOM      6  C   UNL     1      -4.569  -4.075  -0.260  0.00  0.00    +0.047 A 
ATOM      7  C   UNL     1      -5.537  -3.301   0.353  0.00  0.00    +0.004 A 
ATOM      8  C   UNL     1      -5.216  -2.052   0.851  0.00  0.00    +0.002 A 
ATOM      9  C   UNL     1      -3.924  -1.572   0.742  0.00  0.00    +0.027 A 
ATOM     10  C   UNL     1      -2.949  -2.340   0.123  0.00  0.00    +0.076 A 
BRANCH   5  11
ATOM     11  O   UNL     1      -2.320  -4.359  -0.980  0.00  0.00    -0.486 OA
BRANCH  11  12
ATOM     12  C   UNL     1      -2.725  -5.639  -1.469  0.00  0.00    +0.259 C 
BRANCH  12  14
ATOM     13  C   UNL     1      -1.707  -7.706  -2.696  0.00  0.00    +0.042 C 
ATOM     14  C   UNL     1      -1.544  -6.332  -2.099  0.00  0.00    -0.043 C 
ATOM     15  C   UNL     1      -0.376  -5.740  -2.128  0.00  0.00    +0.011 C 
ENDBRANCH  12  14
ENDBRANCH  11  12
ENDBRANCH   5  11
ENDBRANCH   1  10
BRANCH   2  16
ATOM     16  C   UNL     1       0.003  -0.005   0.018  0.00  0.00    +0.324 C 
BRANCH  16  17
ATOM     17  O   UNL     1      -0.016   1.424   0.028  0.00  0.00    -0.483 OA
BRANCH  17  18
ATOM     18  C   UNL     1       1.186   2.057   0.031  0.00  0.00    +0.121 A 
ATOM     19  C   UNL     1       2.360   1.318   0.029  0.00  0.00    +0.046 A 
ATOM     20  C   UNL     1       3.582   1.964   0.026  0.00  0.00    +0.008 A 
ATOM     21  C   UNL     1       3.634   3.346   0.036  0.00  0.00    -0.042 A 
ATOM     22  C   UNL     1       2.466   4.085   0.043  0.00  0.00    +0.008 A 
ATOM     23  C   UNL     1       1.242   3.443   0.040  0.00  0.00    +0.046 A 
BRANCH  21  24
ATOM     24  C   UNL     1       4.968   4.048   0.038  0.00  0.00    -0.013 C 
ATOM     25  C   UNL     1       5.085   4.915   1.294  0.00  0.00    +0.015 C 
ATOM     26  C   UNL     1       6.091   3.009   0.029  0.00  0.00    +0.015 C 
ATOM     27  C   UNL     1       5.081   4.932  -1.205  0.00  0.00    +0.015 C 
ENDBRANCH  21  24
ENDBRANCH  17  18
ENDBRANCH  16  17
ENDBRANCH   2  16
TORSDOF 8
