REMARK  Name = ZINC40755596
REMARK  6 active torsions:
REMARK  status: ('A' for Active; 'I' for Inactive)
REMARK    1  A    between atoms: C_1  and  C_2
REMARK    2  A    between atoms: C_5  and  N_9
REMARK    3  A    between atoms: C_6  and  C_8
REMARK    4  A    between atoms: C_11  and  N_24
REMARK    5  A    between atoms: C_12  and  O_16
REMARK    6  A    between atoms: O_16  and  C_17
REMARK                            x       y       z     vdW  Elec       q    Type
REMARK                         _______ _______ _______ _____ _____    ______ ____
ROOT
ATOM      1  N   UNL     1      -0.404  -4.135  -0.046  0.00  0.00    -0.298 N 
ATOM      2  C   UNL     1      -0.513  -4.846  -1.235  0.00  0.00    +0.151 A 
ATOM      3  C   UNL     1      -0.355  -6.235  -1.249  0.00  0.00    +0.128 A 
ATOM      4  C   UNL     1      -0.474  -6.899  -2.469  0.00  0.00    +0.246 A 
ATOM      5  N   UNL     1      -0.732  -6.192  -3.566  0.00  0.00    -0.199 NA
ATOM      6  C   UNL     1      -0.873  -4.883  -3.510  0.00  0.00    +0.227 A 
ATOM      7  N   UNL     1      -0.773  -4.216  -2.378  0.00  0.00    -0.218 NA
ATOM      8  H   UNL     1      -0.310  -4.609   0.795  0.00  0.00    +0.154 HD
ENDROOT
BRANCH   1  13
ATOM      9  C   UNL     1      -0.518   1.535  -0.112  0.00  0.00    +0.044 C 
ATOM     10  C   UNL     1      -0.487   0.028  -0.094  0.00  0.00    -0.050 A 
ATOM     11  C   UNL     1      -0.028  -0.666  -1.199  0.00  0.00    +0.005 A 
ATOM     12  C   UNL     1       0.001  -2.046  -1.186  0.00  0.00    +0.024 A 
ATOM     13  C   UNL     1      -0.432  -2.738  -0.062  0.00  0.00    +0.035 A 
ATOM     14  C   UNL     1      -0.892  -2.038   1.046  0.00  0.00    -0.029 A 
ATOM     15  C   UNL     1      -0.913  -0.657   1.029  0.00  0.00    +0.008 A 
ATOM     16  C   UNL     1      -1.363  -2.785   2.268  0.00  0.00    +0.045 C 
ENDBRANCH   1  13
BRANCH   3  17
ATOM     17  N   UNL     1      -0.084  -6.941  -0.068  0.00  0.00    -0.351 N 
ATOM     18  H   UNL     1      -0.004  -6.466   0.774  0.00  0.00    +0.143 HD
ATOM     19  H   UNL     1       0.023  -7.905  -0.092  0.00  0.00    +0.143 HD
ENDBRANCH   3  17
BRANCH   4  20
ATOM     20  O   UNL     1      -0.330  -8.246  -2.537  0.00  0.00    -0.436 OA
BRANCH  20  21
ATOM     21  C   UNL     1      -0.321  -8.826  -3.766  0.00  0.00    +0.130 A 
ATOM     22  C   UNL     1       0.811  -8.746  -4.564  0.00  0.00    +0.047 A 
ATOM     23  C   UNL     1       0.818  -9.336  -5.812  0.00  0.00    +0.019 A 
ATOM     24  C   UNL     1      -0.303 -10.007  -6.268  0.00  0.00    +0.018 A 
ATOM     25  C   UNL     1      -1.433 -10.087  -5.474  0.00  0.00    +0.019 A 
ATOM     26  C   UNL     1      -1.442  -9.503  -4.223  0.00  0.00    +0.047 A 
ATOM     27 BR   UNL     1      -0.290 -10.814  -7.978  0.00  0.00    -0.050 Br
ENDBRANCH  20  21
ENDBRANCH   4  20
TORSDOF 4
