REMARK  Name = ZINC50038658
REMARK  4 active torsions:
REMARK  status: ('A' for Active; 'I' for Inactive)
REMARK    1  A    between atoms: C_2  and  C_21
REMARK    2  A    between atoms: C_8  and  N_9
REMARK    3  A    between atoms: N_12  and  C_13
REMARK    4  A    between atoms: C_13  and  C_14
REMARK                            x       y       z     vdW  Elec       q    Type
REMARK                         _______ _______ _______ _____ _____    ______ ____
ROOT
ATOM      1  N   UNL     1      -1.198  -0.730   0.010  0.00  0.00    -0.265 N 
ATOM      2  C   UNL     1      -1.173  -2.073  -0.099  0.00  0.00    +0.304 C 
ATOM      3  O   UNL     1      -0.110  -2.663  -0.113  0.00  0.00    -0.252 OA
ATOM      4  N   UNL     1      -2.327  -2.763  -0.193  0.00  0.00    -0.291 N 
ATOM      5  H   UNL     1      -2.045  -0.265   0.090  0.00  0.00    +0.157 HD
ATOM      6  H   UNL     1      -3.175  -2.292  -0.182  0.00  0.00    +0.151 HD
ENDROOT
BRANCH   1  14
ATOM      7  C   UNL     1       0.236   0.943  -0.950  0.00  0.00    +0.042 A 
ATOM      8  C   UNL     1       1.445   1.655  -0.929  0.00  0.00    +0.073 A 
ATOM      9  C   UNL     1       2.363   1.401   0.031  0.00  0.00    +0.098 A 
ATOM     10  N   UNL     1       2.132   0.459   0.984  0.00  0.00    -0.327 N 
ATOM     11  H   UNL     1       2.803   0.291   1.665  0.00  0.00    +0.168 HD
ATOM     12  C   UNL     1       0.983  -0.243   0.995  0.00  0.00    +0.270 A 
ATOM     13  O   UNL     1       0.790  -1.085   1.858  0.00  0.00    -0.266 OA
ATOM     14  C   UNL     1       0.002  -0.004   0.008  0.00  0.00    +0.100 A 
BRANCH   8  15
ATOM     15  C   UNL     1       1.720   2.702  -1.976  0.00  0.00    +0.419 C 
ATOM     16  F   UNL     1       2.978   3.270  -1.748  0.00  0.00    -0.166 F 
ATOM     17  F   UNL     1       1.698   2.111  -3.244  0.00  0.00    -0.166 F 
ATOM     18  F   UNL     1       0.740   3.698  -1.909  0.00  0.00    -0.166 F 
ENDBRANCH   8  15
ENDBRANCH   1  14
BRANCH   4  19
ATOM     19  C   UNL     1      -2.301  -4.223  -0.312  0.00  0.00    +0.201 C 
BRANCH  19  20
ATOM     20  C   UNL     1      -3.712  -4.745  -0.400  0.00  0.00    +0.233 C 
ATOM     21  O   UNL     1      -4.647  -3.974  -0.367  0.00  0.00    -0.274 OA
ATOM     22  N   UNL     1      -3.934  -6.069  -0.516  0.00  0.00    -0.300 N 
ATOM     23  C   UNL     1      -2.897  -7.111  -0.561  0.00  0.00    +0.108 C 
ATOM     24  C   UNL     1      -3.617  -8.467  -0.724  0.00  0.00    +0.020 C 
ATOM     25  C   UNL     1      -4.987  -8.062  -1.330  0.00  0.00    +0.020 C 
ATOM     26  C   UNL     1      -5.256  -6.714  -0.611  0.00  0.00    +0.108 C 
ENDBRANCH  19  20
ENDBRANCH   4  19
TORSDOF 4
