REMARK  Name = ZINC20677024
REMARK  8 active torsions:
REMARK  status: ('A' for Active; 'I' for Inactive)
REMARK    1  A    between atoms: C_1  and  C_2
REMARK    2  A    between atoms: C_2  and  O_3
REMARK    3  A    between atoms: O_3  and  C_4
REMARK    4  A    between atoms: C_4  and  C_6
REMARK    5  A    between atoms: C_7  and  N_35
REMARK    6  A    between atoms: N_18  and  C_21
REMARK    7  A    between atoms: C_21  and  C_22
REMARK    8  A    between atoms: C_27  and  C_30
REMARK                            x       y       z     vdW  Elec       q    Type
REMARK                         _______ _______ _______ _____ _____    ______ ____
ROOT
ATOM      1  C   UNL     1      -6.301   2.282   2.386  0.00  0.00    +0.117 C 
ATOM      2  C   UNL     1      -7.122   3.002   3.195  0.00  0.00    +0.195 C 
ATOM      3  O   UNL     1      -6.640   3.947   4.014  0.00  0.00    -0.446 OA
ATOM      4  C   UNL     1      -5.435   4.498   3.778  0.00  0.00    +0.116 C 
ATOM      5  C   UNL     1      -4.516   3.875   3.017  0.00  0.00    +0.057 C 
ATOM      6  C   UNL     1      -4.823   2.539   2.390  0.00  0.00    +0.141 C 
ATOM      7  C   UNL     1      -4.085   1.444   3.094  0.00  0.00    -0.002 A 
ATOM      8  C   UNL     1      -4.144   0.993   4.396  0.00  0.00    +0.007 A 
ATOM      9  C   UNL     1      -3.306  -0.064   4.736  0.00  0.00    +0.000 A 
ATOM     10  C   UNL     1      -2.455  -0.633   3.810  0.00  0.00    +0.002 A 
ATOM     11  C   UNL     1      -2.391  -0.186   2.500  0.00  0.00    +0.024 A 
ATOM     12  C   UNL     1      -3.231   0.871   2.144  0.00  0.00    +0.041 A 
ATOM     13  N   UNL     1      -3.369   1.512   0.925  0.00  0.00    -0.266 N 
ATOM     14  C   UNL     1      -4.284   2.502   0.975  0.00  0.00    +0.240 C 
ATOM     15  O   UNL     1      -4.612   3.227   0.059  0.00  0.00    -0.274 OA
ATOM     16  C   UNL     1      -3.248   4.444   2.786  0.00  0.00    +0.165 C 
ATOM     17  O   UNL     1      -2.452   3.858   2.080  0.00  0.00    -0.292 OA
ATOM     18  C   UNL     1      -2.862   5.763   3.397  0.00  0.00    +0.091 C 
ATOM     19  C   UNL     1      -3.643   5.952   4.702  0.00  0.00    +0.070 C 
ATOM     20  C   UNL     1      -5.138   5.846   4.392  0.00  0.00    +0.086 C 
ENDROOT
BRANCH  19  21
ATOM     21  C   UNL     1      -3.338   7.308   5.284  0.00  0.00    +0.109 A 
ATOM     22  C   UNL     1      -2.797   7.542   6.493  0.00  0.00    +0.045 A 
ATOM     23  C   UNL     1      -2.683   8.945   6.627  0.00  0.00    +0.041 A 
ATOM     24  C   UNL     1      -3.169   9.485   5.495  0.00  0.00    +0.195 A 
ATOM     25  O   UNL     1      -3.564   8.489   4.685  0.00  0.00    -0.468 OA
ENDBRANCH  19  21
BRANCH   2  26
ATOM     26  N   UNL     1      -8.469   2.758   3.172  0.00  0.00    -0.329 N 
ATOM     27  H   UNL     1      -9.144   3.334   3.822  0.00  0.00    +0.145 HD
ATOM     28  H   UNL     1      -8.877   1.985   2.504  0.00  0.00    +0.145 HD
ENDBRANCH   2  26
BRANCH   1  29
ATOM     29  C   UNL     1      -6.837   1.294   1.545  0.00  0.00    +0.342 C 
ATOM     30  O   UNL     1      -6.758   0.119   1.857  0.00  0.00    -0.245 OA
BRANCH  29  31
ATOM     31  O   UNL     1      -7.440   1.646   0.389  0.00  0.00    -0.462 OA
BRANCH  31  33
ATOM     32  C   UNL     1      -8.604   1.177  -1.677  0.00  0.00    +0.048 C 
ATOM     33  C   UNL     1      -7.963   0.589  -0.418  0.00  0.00    +0.229 C 
ENDBRANCH  31  33
ENDBRANCH  29  31
ENDBRANCH   1  29
BRANCH  13  34
ATOM     34  C   UNL     1      -2.615   1.154  -0.278  0.00  0.00    +0.140 C 
BRANCH  34  35
ATOM     35  C   UNL     1      -1.338   1.952  -0.327  0.00  0.00    -0.015 C 
ATOM     36  C   UNL     1      -0.185   1.339  -0.435  0.00  0.00    +0.005 C 
ENDBRANCH  34  35
ENDBRANCH  13  34
TORSDOF 7
