REMARK  Name = ZINC39400464
REMARK  9 active torsions:
REMARK  status: ('A' for Active; 'I' for Inactive)
REMARK    1  A    between atoms: C_1  and  C_2
REMARK    2  A    between atoms: C_2  and  N_3
REMARK    3  A    between atoms: N_3  and  C_4
REMARK    4  A    between atoms: C_4  and  C_5
REMARK    5  A    between atoms: C_6  and  C_8
REMARK    6  A    between atoms: N_13  and  C_15
REMARK    7  A    between atoms: C_15  and  C_16
REMARK    8  A    between atoms: N_23  and  C_27
REMARK    9  A    between atoms: C_27  and  C_28
REMARK                            x       y       z     vdW  Elec       q    Type
REMARK                         _______ _______ _______ _____ _____    ______ ____
ROOT
ATOM      1  C   UNL     1      -6.151  -3.470  -2.902  0.00  0.00    -0.064 A 
ATOM      2  C   UNL     1      -6.399  -4.550  -2.075  0.00  0.00    +0.005 A 
ATOM      3  C   UNL     1      -7.678  -4.792  -1.611  0.00  0.00    +0.046 A 
ATOM      4  C   UNL     1      -8.714  -3.947  -1.983  0.00  0.00    +0.122 A 
ATOM      5  C   UNL     1      -8.465  -2.878  -2.821  0.00  0.00    -0.022 A 
ATOM      6  C   UNL     1      -7.185  -2.627  -3.272  0.00  0.00    +0.007 A 
ATOM      7  C   UNL     1      -9.613  -1.990  -3.261  0.00  0.00    -0.039 C 
ATOM      8  N   UNL     1     -10.091  -1.228  -2.102  0.00  0.00    +0.386 N 
ATOM      9  C   UNL     1     -11.057  -1.999  -1.326  0.00  0.00    -0.037 C 
ATOM     10  C   UNL     1     -10.458  -3.177  -0.591  0.00  0.00    +0.210 C 
ATOM     11  O   UNL     1      -9.974  -4.161  -1.514  0.00  0.00    -0.494 OA
ATOM     12  H   UNL     1      -9.306  -0.994  -1.513  0.00  0.00    -0.081 HD
ENDROOT
BRANCH   1  13
ATOM     13  C   UNL     1      -4.753  -3.207  -3.397  0.00  0.00    -0.043 C 
BRANCH  13  18
ATOM     14  C   UNL     1      -1.900  -1.338  -1.831  0.00  0.00    +0.059 C 
ATOM     15  C   UNL     1      -2.556   0.042  -1.730  0.00  0.00    +0.009 C 
ATOM     16  C   UNL     1      -4.034  -0.132  -1.369  0.00  0.00    -0.018 C 
ATOM     17  C   UNL     1      -4.709  -1.020  -2.417  0.00  0.00    -0.078 C 
ATOM     18  N   UNL     1      -4.053  -2.333  -2.446  0.00  0.00    +0.383 N 
ATOM     19  C   UNL     1      -2.653  -2.182  -2.861  0.00  0.00    -0.066 C 
ATOM     20  H   UNL     1      -4.087  -2.745  -1.526  0.00  0.00    -0.081 HD
BRANCH  14  22
ATOM     21  N   UNL     1       0.491  -0.931  -1.344  0.00  0.00    -0.302 N 
ATOM     22  C   UNL     1      -0.464  -1.182  -2.262  0.00  0.00    +0.217 C 
ATOM     23  O   UNL     1      -0.168  -1.282  -3.433  0.00  0.00    -0.275 OA
BRANCH  21  25
ATOM     24  C   UNL     1       2.513  -2.295  -1.532  0.00  0.00    +0.024 C 
ATOM     25  C   UNL     1       1.901  -0.908  -1.742  0.00  0.00    +0.104 C 
ENDBRANCH  21  25
BRANCH  21  26
ATOM     26  C   UNL     1       0.119  -0.682   0.051  0.00  0.00    +0.104 C 
ATOM     27  C   UNL     1       0.069   0.827   0.303  0.00  0.00    +0.024 C 
ENDBRANCH  21  26
ENDBRANCH  14  22
ENDBRANCH  13  18
ENDBRANCH   1  13
BRANCH   8  28
ATOM     28  C   UNL     1     -10.728   0.010  -2.569  0.00  0.00    -0.045 C 
BRANCH  28  29
ATOM     29  C   UNL     1     -11.119   0.869  -1.365  0.00  0.00    +0.136 C 
ATOM     30  C   UNL     1     -11.612   2.232  -1.815  0.00  0.00    +0.021 C 
ATOM     31  C   UNL     1     -10.745   3.085  -1.265  0.00  0.00    +0.132 C 
ATOM     32  N   UNL     1      -9.806   2.423  -0.553  0.00  0.00    -0.162 NA
ATOM     33  N   UNL     1      -9.935   1.193  -0.550  0.00  0.00    -0.182 NA
ENDBRANCH  28  29
ENDBRANCH   8  28
TORSDOF 7
