REMARK  Name = ZINC32506912
REMARK  10 active torsions:
REMARK  status: ('A' for Active; 'I' for Inactive)
REMARK    1  A    between atoms: C_1  and  C_2
REMARK    2  A    between atoms: C_6  and  N_8
REMARK    3  A    between atoms: N_20  and  C_21
REMARK    4  A    between atoms: C_21  and  C_23
REMARK    5  A    between atoms: C_23  and  N_24
REMARK    6  A    between atoms: C_25  and  O_27
REMARK    7  A    between atoms: O_27  and  C_28
REMARK    8  A    between atoms: C_28  and  C_29
REMARK    9  A    between atoms: C_28  and  C_30
REMARK   10  A    between atoms: C_28  and  C_31
REMARK                            x       y       z     vdW  Elec       q    Type
REMARK                         _______ _______ _______ _____ _____    ______ ____
ROOT
ATOM      1  N   UNL     1      -2.114   1.146  -1.095  0.00  0.00    -0.276 N 
ATOM      2  C   UNL     1      -0.728   1.563  -1.277  0.00  0.00    +0.116 C 
ATOM      3  C   UNL     1       0.116   0.899  -2.386  0.00  0.00    +0.190 C 
ATOM      4  S   UNL     1       1.801   1.339  -1.743  0.00  0.00    -0.028 S 
ATOM      5  O   UNL     1       2.188   2.597  -2.279  0.00  0.00    -0.174 OA
ATOM      6  O   UNL     1       2.663   0.219  -1.891  0.00  0.00    -0.174 OA
ATOM      7  C   UNL     1       1.381   1.548   0.052  0.00  0.00    +0.182 C 
ATOM      8  C   UNL     1      -0.034   1.063   0.046  0.00  0.00    +0.097 C 
ATOM      9  S   UNL     1      -1.285   1.673   1.188  0.00  0.00    -0.086 S 
ATOM     10  C   UNL     1      -2.633   1.662   0.097  0.00  0.00    +0.154 C 
ATOM     11  N   UNL     1      -3.879   2.055   0.339  0.00  0.00    -0.157 NA
ENDROOT
BRANCH   1  17
ATOM     12  C   UNL     1      -4.190   0.535  -5.509  0.00  0.00    +0.044 C 
ATOM     13  C   UNL     1      -3.846   0.019  -4.136  0.00  0.00    -0.049 A 
ATOM     14  C   UNL     1      -4.236  -1.254  -3.758  0.00  0.00    +0.003 A 
ATOM     15  C   UNL     1      -3.923  -1.731  -2.499  0.00  0.00    +0.002 A 
ATOM     16  C   UNL     1      -3.220  -0.937  -1.613  0.00  0.00    +0.023 A 
ATOM     17  C   UNL     1      -2.826   0.340  -1.990  0.00  0.00    +0.036 A 
ATOM     18  C   UNL     1      -3.146   0.818  -3.254  0.00  0.00    +0.027 A 
ENDBRANCH   1  17
BRANCH  11  19
ATOM     19  C   UNL     1      -4.207   2.526   1.540  0.00  0.00    +0.255 C 
ATOM     20  O   UNL     1      -3.367   2.596   2.415  0.00  0.00    -0.272 OA
BRANCH  19  21
ATOM     21  C   UNL     1      -5.620   2.972   1.813  0.00  0.00    +0.205 C 
BRANCH  21  22
ATOM     22  N   UNL     1      -5.723   3.445   3.196  0.00  0.00    -0.272 N 
ATOM     23  C   UNL     1      -6.903   3.895   3.668  0.00  0.00    +0.401 C 
ATOM     24  O   UNL     1      -7.880   3.910   2.946  0.00  0.00    -0.226 OA
ATOM     25  H   UNL     1      -4.838   3.432   3.850  0.00  0.00    +0.153 HD
BRANCH  23  26
ATOM     26  O   UNL     1      -6.998   4.330   4.939  0.00  0.00    -0.445 OA
BRANCH  26  27
ATOM     27  C   UNL     1      -8.299   4.801   5.379  0.00  0.00    +0.107 C 
ATOM     28  C   UNL     1      -9.320   3.669   5.254  0.00  0.00    +0.055 C 
ATOM     29  C   UNL     1      -8.212   5.250   6.839  0.00  0.00    +0.055 C 
ATOM     30  C   UNL     1      -8.736   5.980   4.508  0.00  0.00    +0.055 C 
ENDBRANCH  26  27
ENDBRANCH  23  26
ENDBRANCH  21  22
ENDBRANCH  19  21
ENDBRANCH  11  19
TORSDOF 6
