REMARK  Name = ZINC21559532
REMARK  8 active torsions:
REMARK  status: ('A' for Active; 'I' for Inactive)
REMARK    1  A    between atoms: C_1  and  C_2
REMARK    2  A    between atoms: C_2  and  C_25
REMARK    3  A    between atoms: N_5  and  C_9
REMARK    4  A    between atoms: C_9  and  C_10
REMARK    5  A    between atoms: C_10  and  C_12
REMARK    6  A    between atoms: C_10  and  O_24
REMARK    7  A    between atoms: C_12  and  O_13
REMARK    8  A    between atoms: O_13  and  C_14
REMARK                            x       y       z     vdW  Elec       q    Type
REMARK                         _______ _______ _______ _____ _____    ______ ____
ROOT
ATOM      1  C   UNL     1      11.136   7.103  -0.766  0.00  0.00    +0.047 C 
ATOM      2  C   UNL     1      11.313   5.661  -0.287  0.00  0.00    +0.135 C 
ATOM      3  C   UNL     1      10.244   4.763  -0.877  0.00  0.00    +0.251 C 
ATOM      4  O   UNL     1      10.050   4.529  -2.050  0.00  0.00    -0.272 OA
ATOM      5  N   UNL     1       9.552   4.281   0.175  0.00  0.00    -0.221 N 
ATOM      6  C   UNL     1      10.036   4.739   1.335  0.00  0.00    +0.310 C 
ATOM      7  O   UNL     1       9.580   4.441   2.422  0.00  0.00    -0.252 OA
ATOM      8  N   UNL     1      11.083   5.566   1.165  0.00  0.00    -0.281 N 
ATOM      9  H   UNL     1      11.727   6.123   1.862  0.00  0.00    +0.152 HD
ENDROOT
BRANCH   2  10
ATOM     10  C   UNL     1      12.685   5.148  -0.641  0.00  0.00    -0.012 A 
ATOM     11  C   UNL     1      12.900   4.539  -1.864  0.00  0.00    +0.010 A 
ATOM     12  C   UNL     1      14.156   4.067  -2.192  0.00  0.00    +0.050 A 
ATOM     13  C   UNL     1      15.206   4.202  -1.295  0.00  0.00    +0.162 A 
ATOM     14  C   UNL     1      14.990   4.815  -0.067  0.00  0.00    +0.162 A 
ATOM     15  C   UNL     1      13.728   5.291   0.255  0.00  0.00    +0.055 A 
ATOM     16  O   UNL     1      16.007   4.962   0.827  0.00  0.00    -0.485 OA
ATOM     17  C   UNL     1      17.165   4.146   0.623  0.00  0.00    +0.270 C 
ATOM     18  C   UNL     1      17.544   4.213  -0.863  0.00  0.00    +0.270 C 
ATOM     19  O   UNL     1      16.437   3.728  -1.631  0.00  0.00    -0.485 OA
ENDBRANCH   2  10
BRANCH   5  20
ATOM     20  C   UNL     1       8.415   3.364   0.061  0.00  0.00    +0.152 C 
BRANCH  20  21
ATOM     21  C   UNL     1       7.119   4.170  -0.047  0.00  0.00    +0.170 C 
BRANCH  21  22
ATOM     22  O   UNL     1       7.124   4.918  -1.264  0.00  0.00    -0.387 OA
ATOM     23  H   UNL     1       6.269   5.561  -1.517  0.00  0.00    +0.210 HD
ENDBRANCH  21  22
BRANCH  21  24
ATOM     24  C   UNL     1       5.923   3.215  -0.040  0.00  0.00    +0.261 C 
BRANCH  24  25
ATOM     25  O   UNL     1       4.711   3.971  -0.024  0.00  0.00    -0.489 OA
BRANCH  25  26
ATOM     26  C   UNL     1       3.547   3.269  -0.015  0.00  0.00    +0.121 A 
ATOM     27  C   UNL     1       3.583   1.871  -0.023  0.00  0.00    +0.046 A 
ATOM     28  C   UNL     1       2.436   1.142  -0.016  0.00  0.00    +0.012 A 
ATOM     29  C   UNL     1       1.193   1.798   0.000  0.00  0.00    -0.018 A 
ATOM     30  C   UNL     1      -0.013   1.076   0.008  0.00  0.00    +0.008 A 
ATOM     31  C   UNL     1      -1.198   1.744   0.017  0.00  0.00    +0.001 A 
ATOM     32  C   UNL     1      -1.238   3.137   0.031  0.00  0.00    +0.001 A 
ATOM     33  C   UNL     1      -0.091   3.870   0.024  0.00  0.00    +0.008 A 
ATOM     34  C   UNL     1       1.153   3.215   0.009  0.00  0.00    -0.014 A 
ATOM     35  C   UNL     1       2.357   3.939   0.001  0.00  0.00    +0.054 A 
ENDBRANCH  25  26
ENDBRANCH  24  25
ENDBRANCH  21  24
ENDBRANCH  20  21
ENDBRANCH   5  20
TORSDOF 7
