REMARK  Name = ZINC14833974
REMARK  6 active torsions:
REMARK  status: ('A' for Active; 'I' for Inactive)
REMARK    1  A    between atoms: C_6  and  C_7
REMARK    2  A    between atoms: C_8  and  C_9
REMARK    3  A    between atoms: N_11  and  C_12
REMARK    4  A    between atoms: C_12  and  N_14
REMARK    5  A    between atoms: N_14  and  N_15
REMARK    6  A    between atoms: C_16  and  C_18
REMARK                            x       y       z     vdW  Elec       q    Type
REMARK                         _______ _______ _______ _____ _____    ______ ____
ROOT
ATOM      1  C   UNL     1       2.320   1.244  -0.013  0.00  0.00    +0.153 C 
ATOM      2  S   UNL     1       2.343  -0.467  -0.023  0.00  0.00    -0.017 S 
ENDROOT
BRANCH   1   5
ATOM      3  C   UNL     1      -0.014   1.213   0.009  0.00  0.00    +0.242 C 
ATOM      4  O   UNL     1       0.002  -0.004   0.002  0.00  0.00    -0.270 OA
ATOM      5  N   UNL     1       1.143   1.902   0.001  0.00  0.00    -0.263 N 
ATOM      6  H   UNL     1       1.130   2.872   0.007  0.00  0.00    +0.157 HD
BRANCH   3   8
ATOM      7  C   UNL     1      -2.450   1.236   0.020  0.00  0.00    +0.013 C 
ATOM      8  C   UNL     1      -1.291   1.927   0.019  0.00  0.00    +0.068 C 
BRANCH   7  14
ATOM      9  C   UNL     1      -3.757   3.353   0.044  0.00  0.00    +0.009 A 
ATOM     10  C   UNL     1      -4.964   4.019   0.049  0.00  0.00    +0.020 A 
ATOM     11  C   UNL     1      -6.152   3.307   0.051  0.00  0.00    +0.041 A 
ATOM     12  C   UNL     1      -6.137   1.921   0.042  0.00  0.00    +0.020 A 
ATOM     13  C   UNL     1      -4.938   1.242   0.032  0.00  0.00    +0.009 A 
ATOM     14  C   UNL     1      -3.734   1.954   0.030  0.00  0.00    -0.025 A 
ATOM     15 CL   UNL     1      -7.667   4.154   0.064  0.00  0.00    -0.084 Cl
ENDBRANCH   7  14
ENDBRANCH   3   8
ENDBRANCH   1   5
BRANCH   1  16
ATOM     16  N   UNL     1       3.478   1.934  -0.021  0.00  0.00    -0.245 N 
ATOM     17  H   UNL     1       4.324   1.461  -0.031  0.00  0.00    +0.172 HD
BRANCH  16  18
ATOM     18  N   UNL     1       3.458   3.335  -0.013  0.00  0.00    -0.231 N 
ATOM     19  C   UNL     1       4.616   4.025  -0.020  0.00  0.00    +0.262 C 
ATOM     20  O   UNL     1       5.677   3.431  -0.034  0.00  0.00    -0.269 OA
ATOM     21  H   UNL     1       2.612   3.808  -0.002  0.00  0.00    +0.173 HD
BRANCH  19  22
ATOM     22  C   UNL     1       4.596   5.502  -0.012  0.00  0.00    +0.057 A 
ATOM     23  C   UNL     1       3.379   6.186   0.003  0.00  0.00    +0.016 A 
ATOM     24  C   UNL     1       3.367   7.565   0.011  0.00  0.00    +0.021 A 
ATOM     25  C   UNL     1       4.559   8.272   0.003  0.00  0.00    +0.042 A 
ATOM     26  C   UNL     1       5.769   7.600  -0.013  0.00  0.00    +0.040 A 
ATOM     27  C   UNL     1       5.795   6.220  -0.014  0.00  0.00    +0.054 A 
ATOM     28 CL   UNL     1       7.314   5.378  -0.025  0.00  0.00    -0.083 Cl
ATOM     29 CL   UNL     1       4.534  10.008   0.012  0.00  0.00    -0.083 Cl
ENDBRANCH  19  22
ENDBRANCH  16  18
ENDBRANCH   1  16
TORSDOF 6
