REMARK  Name = ZINC39836200
REMARK  8 active torsions:
REMARK  status: ('A' for Active; 'I' for Inactive)
REMARK    1  A    between atoms: C_1  and  C_2
REMARK    2  A    between atoms: C_9  and  N_22
REMARK    3  A    between atoms: C_10  and  C_11
REMARK    4  A    between atoms: N_13  and  C_14
REMARK    5  A    between atoms: C_23  and  C_25
REMARK    6  A    between atoms: C_25  and  O_26
REMARK    7  A    between atoms: O_26  and  C_27
REMARK    8  A    between atoms: C_32  and  N_33
REMARK                            x       y       z     vdW  Elec       q    Type
REMARK                         _______ _______ _______ _____ _____    ______ ____
ROOT
ATOM      1  C   UNL     1      -0.019   1.526   0.010  0.00  0.00    +0.008 C 
ATOM      2  C   UNL     1       0.002  -0.004   0.002  0.00  0.00    -0.009 C 
ATOM      3  C   UNL     1       0.724  -0.500  -1.254  0.00  0.00    +0.008 C 
ATOM      4  C   UNL     1       0.537  -2.012  -1.399  0.00  0.00    +0.037 C 
ATOM      5  C   UNL     1       0.935  -2.680  -0.091  0.00  0.00    -0.023 A 
ATOM      6  C   UNL     1       1.019  -1.977   1.059  0.00  0.00    -0.004 A 
ATOM      7  S   UNL     1       1.508  -3.164   2.276  0.00  0.00    -0.077 S 
ATOM      8  C   UNL     1       1.599  -4.539   1.315  0.00  0.00    +0.084 A 
ATOM      9  C   UNL     1       1.254  -4.090   0.050  0.00  0.00    +0.069 A 
ATOM     10  C   UNL     1       0.750  -0.515   1.242  0.00  0.00    +0.046 C 
ENDROOT
BRANCH   9  11
ATOM     11  C   UNL     1       1.212  -5.001  -1.099  0.00  0.00    +0.247 C 
ATOM     12  O   UNL     1       2.208  -5.170  -1.778  0.00  0.00    -0.270 OA
ATOM     13  N   UNL     1       0.071  -5.651  -1.402  0.00  0.00    -0.307 N 
ATOM     14  H   UNL     1      -0.722  -5.516  -0.860  0.00  0.00    +0.149 HD
BRANCH  13  15
ATOM     15  C   UNL     1       0.029  -6.562  -2.549  0.00  0.00    +0.096 C 
ATOM     16  C   UNL     1      -0.294  -5.771  -3.828  0.00  0.00    +0.046 C 
ATOM     17  C   UNL     1      -0.655  -6.746  -4.974  0.00  0.00    +0.168 C 
ATOM     18  S   UNL     1      -1.342  -8.194  -4.071  0.00  0.00    -0.029 S 
ATOM     19  O   UNL     1      -0.513  -9.323  -4.310  0.00  0.00    -0.174 OA
ATOM     20  O   UNL     1      -2.736  -8.282  -4.332  0.00  0.00    -0.174 OA
ATOM     21  C   UNL     1      -1.090  -7.621  -2.338  0.00  0.00    +0.188 C 
ENDBRANCH  13  15
ENDBRANCH   9  11
BRANCH   8  22
ATOM     22  N   UNL     1       1.942  -5.826   1.699  0.00  0.00    -0.277 N 
ATOM     23  C   UNL     1       2.253  -6.086   2.984  0.00  0.00    +0.255 C 
ATOM     24  O   UNL     1       2.232  -5.193   3.805  0.00  0.00    -0.272 OA
ATOM     25  H   UNL     1       1.959  -6.540   1.042  0.00  0.00    +0.155 HD
BRANCH  23  26
ATOM     26  C   UNL     1       2.626  -7.485   3.402  0.00  0.00    +0.325 C 
BRANCH  26  27
ATOM     27  O   UNL     1       2.910  -7.505   4.802  0.00  0.00    -0.480 OA
BRANCH  27  28
ATOM     28  C   UNL     1       3.265  -8.700   5.343  0.00  0.00    +0.151 A 
ATOM     29  C   UNL     1       3.344  -9.829   4.541  0.00  0.00    +0.048 A 
ATOM     30  C   UNL     1       3.706 -11.043   5.093  0.00  0.00    +0.004 A 
ATOM     31  C   UNL     1       3.989 -11.132   6.444  0.00  0.00    +0.002 A 
ATOM     32  C   UNL     1       3.910 -10.008   7.245  0.00  0.00    +0.036 A 
ATOM     33  C   UNL     1       3.554  -8.791   6.697  0.00  0.00    +0.168 A 
BRANCH  33  34
ATOM     34  N   UNL     1       3.476  -7.587   7.554  0.00  0.00    +0.060 N 
ATOM     35  O   UNL     1       3.728  -7.667   8.733  0.00  0.00    -0.126 OA
ATOM     36  O   UNL     1       3.160  -6.523   7.074  0.00  0.00    -0.126 OA
ENDBRANCH  33  34
ENDBRANCH  27  28
ENDBRANCH  26  27
ENDBRANCH  23  26
ENDBRANCH   8  22
TORSDOF 7
