REMARK  Name = ZINC39685775
REMARK  11 active torsions:
REMARK  status: ('A' for Active; 'I' for Inactive)
REMARK    1  A    between atoms: C_1  and  C_2
REMARK    2  A    between atoms: C_2  and  C_3
REMARK    3  A    between atoms: C_2  and  C_4
REMARK    4  A    between atoms: C_4  and  C_6
REMARK    5  A    between atoms: C_4  and  N_13
REMARK    6  A    between atoms: N_8  and  C_9
REMARK    7  A    between atoms: C_9  and  C_10
REMARK    8  A    between atoms: C_9  and  C_11
REMARK    9  A    between atoms: C_9  and  C_12
REMARK   10  A    between atoms: C_14  and  C_16
REMARK   11  A    between atoms: C_27  and  C_29
REMARK                            x       y       z     vdW  Elec       q    Type
REMARK                         _______ _______ _______ _____ _____    ______ ____
ROOT
ATOM      1  C   UNL     1      -3.409   1.639   2.468  0.00  0.00    +0.100 C 
ATOM      2  C   UNL     1      -2.437   1.657   3.669  0.00  0.00    +0.121 C 
ATOM      3  N   UNL     1      -1.926   3.048   3.716  0.00  0.00    -0.300 N 
ATOM      4  C   UNL     1      -3.108   3.885   3.396  0.00  0.00    +0.115 C 
ATOM      5  C   UNL     1      -3.850   3.102   2.295  0.00  0.00    -0.004 C 
ATOM      6  C   UNL     1      -5.359   3.225   2.486  0.00  0.00    -0.010 C 
ATOM      7  C   UNL     1      -5.782   4.678   2.251  0.00  0.00    -0.082 C 
ATOM      8  N   UNL     1      -5.405   5.086   0.891  0.00  0.00    +0.379 N 
ATOM      9  C   UNL     1      -3.945   5.053   0.746  0.00  0.00    -0.082 C 
ATOM     10  C   UNL     1      -3.445   3.616   0.917  0.00  0.00    -0.010 C 
ATOM     11  C   UNL     1      -0.672   3.459   3.988  0.00  0.00    +0.219 C 
ATOM     12  O   UNL     1      -0.408   4.643   3.988  0.00  0.00    -0.275 OA
ATOM     13  H   UNL     1      -5.823   4.454   0.225  0.00  0.00    -0.086 HD
ATOM     14  H   UNL     1      -5.739   6.022   0.718  0.00  0.00    -0.086 HD
ENDROOT
BRANCH   1  16
ATOM     15  N   UNL     1      -3.400   0.527   0.259  0.00  0.00    -0.303 N 
ATOM     16  C   UNL     1      -2.704   1.153   1.228  0.00  0.00    +0.219 C 
ATOM     17  O   UNL     1      -1.510   1.325   1.103  0.00  0.00    -0.275 OA
ATOM     18  H   UNL     1      -4.355   0.389   0.359  0.00  0.00    +0.149 HD
BRANCH  15  19
ATOM     19  C   UNL     1      -2.714   0.054  -0.946  0.00  0.00    +0.161 C 
BRANCH  19  20
ATOM     20  C   UNL     1      -3.699  -0.030  -2.084  0.00  0.00    +0.234 C 
ATOM     21  O   UNL     1      -4.859   0.274  -1.905  0.00  0.00    -0.274 OA
ATOM     22  N   UNL     1      -3.290  -0.444  -3.300  0.00  0.00    -0.309 N 
ATOM     23  H   UNL     1      -2.362  -0.688  -3.442  0.00  0.00    +0.149 HD
BRANCH  22  24
ATOM     24  C   UNL     1      -4.248  -0.527  -4.405  0.00  0.00    +0.026 C 
ATOM     25  C   UNL     1      -4.845   0.857  -4.668  0.00  0.00    +0.031 C 
ATOM     26  C   UNL     1      -3.532  -1.020  -5.664  0.00  0.00    +0.031 C 
ATOM     27  C   UNL     1      -5.367  -1.504  -4.039  0.00  0.00    +0.031 C 
ENDBRANCH  22  24
ENDBRANCH  19  20
BRANCH  19  29
ATOM     28  C   UNL     1      -1.118  -1.244   0.471  0.00  0.00    +0.009 C 
ATOM     29  C   UNL     1      -2.118  -1.330  -0.684  0.00  0.00    +0.012 C 
ATOM     30  C   UNL     1      -3.237  -2.307  -0.318  0.00  0.00    +0.009 C 
ENDBRANCH  19  29
ENDBRANCH  15  19
ENDBRANCH   1  16
BRANCH  11  31
ATOM     31  C   UNL     1       0.403   2.448   4.292  0.00  0.00    +0.075 C 
ATOM     32  C   UNL     1       0.402   1.969   5.753  0.00  0.00    +0.013 C 
ATOM     33  C   UNL     1       1.938   2.022   5.689  0.00  0.00    +0.001 C 
ATOM     34  C   UNL     1       1.776   3.076   4.581  0.00  0.00    +0.013 C 
ENDBRANCH  11  31
TORSDOF 6
