REMARK  Name = ZINC20413857
REMARK  6 active torsions:
REMARK  status: ('A' for Active; 'I' for Inactive)
REMARK    1  A    between atoms: C_1  and  C_2
REMARK    2  A    between atoms: C_3  and  C_22
REMARK    3  A    between atoms: C_4  and  C_12
REMARK    4  A    between atoms: C_17  and  O_18
REMARK    5  A    between atoms: O_18  and  C_19
REMARK    6  A    between atoms: N_24  and  C_25
REMARK                            x       y       z     vdW  Elec       q    Type
REMARK                         _______ _______ _______ _____ _____    ______ ____
ROOT
ATOM      1  C   UNL     1       4.556   6.638   0.040  0.00  0.00    +0.061 C 
ATOM      2  C   UNL     1       5.619   5.570   0.049  0.00  0.00    +0.018 C 
ATOM      3  C   UNL     1       5.247   4.285  -0.031  0.00  0.00    +0.060 C 
ATOM      4  C   UNL     1       6.229   3.143  -0.035  0.00  0.00    +0.181 C 
ATOM      5  N   UNL     1       7.551   3.637   0.336  0.00  0.00    -0.221 N 
ATOM      6  C   UNL     1       7.868   4.954   0.411  0.00  0.00    +0.218 A 
ATOM      7  N   UNL     1       9.121   5.047   0.763  0.00  0.00    -0.201 NA
ATOM      8  C   UNL     1       9.633   3.822   0.925  0.00  0.00    +0.247 A 
ATOM      9  N   UNL     1       8.705   2.932   0.675  0.00  0.00    -0.156 NA
ATOM     10  N   UNL     1       6.937   5.947   0.140  0.00  0.00    -0.287 N 
ATOM     11  H   UNL     1       7.219   7.001  -0.001  0.00  0.00    +0.155 HD
ENDROOT
BRANCH   4  12
ATOM     12  C   UNL     1       6.292   2.540  -1.415  0.00  0.00    +0.026 A 
ATOM     13  C   UNL     1       6.509   3.349  -2.514  0.00  0.00    +0.029 A 
ATOM     14  C   UNL     1       6.573   2.795  -3.780  0.00  0.00    +0.043 A 
ATOM     15  C   UNL     1       6.408   1.431  -3.950  0.00  0.00    +0.043 A 
ATOM     16  C   UNL     1       6.186   0.620  -2.854  0.00  0.00    +0.084 A 
ATOM     17  C   UNL     1       6.127   1.173  -1.582  0.00  0.00    +0.144 A 
ATOM     18 CL   UNL     1       5.978  -1.091  -3.067  0.00  0.00    -0.080 Cl
ATOM     19 CL   UNL     1       6.853   3.813  -5.158  0.00  0.00    -0.083 Cl
BRANCH  17  20
ATOM     20  O   UNL     1       5.907   0.377  -0.502  0.00  0.00    -0.493 OA
ATOM     21  C   UNL     1       4.553   0.016  -0.227  0.00  0.00    +0.277 C 
ENDBRANCH  17  20
ENDBRANCH   4  12
BRANCH   3  22
ATOM     22  C   UNL     1       3.867   3.986  -0.110  0.00  0.00    +0.248 C 
ATOM     23  O   UNL     1       3.336   3.841  -1.196  0.00  0.00    -0.270 OA
ATOM     24  N   UNL     1       3.139   3.861   1.018  0.00  0.00    -0.282 N 
ATOM     25  H   UNL     1       3.585   4.114   1.991  0.00  0.00    +0.155 HD
BRANCH  24  26
ATOM     26  C   UNL     1       1.817   3.411   0.951  0.00  0.00    +0.034 A 
ATOM     27  C   UNL     1       1.036   3.709  -0.158  0.00  0.00    +0.023 A 
ATOM     28  C   UNL     1      -0.270   3.262  -0.222  0.00  0.00    +0.002 A 
ATOM     29  C   UNL     1      -0.799   2.520   0.818  0.00  0.00    +0.000 A 
ATOM     30  C   UNL     1      -0.025   2.222   1.924  0.00  0.00    +0.002 A 
ATOM     31  C   UNL     1       1.282   2.665   1.993  0.00  0.00    +0.023 A 
ENDBRANCH  24  26
ENDBRANCH   3  22
TORSDOF 4
