REMARK  Name = ZINC34783236
REMARK  10 active torsions:
REMARK  status: ('A' for Active; 'I' for Inactive)
REMARK    1  A    between atoms: C_1  and  C_2
REMARK    2  A    between atoms: C_7  and  N_8
REMARK    3  A    between atoms: C_9  and  C_11
REMARK    4  A    between atoms: C_11  and  N_12
REMARK    5  A    between atoms: C_16  and  C_35
REMARK    6  A    between atoms: C_17  and  C_31
REMARK    7  A    between atoms: N_20  and  C_23
REMARK    8  A    between atoms: C_23  and  C_24
REMARK    9  A    between atoms: C_24  and  C_25
REMARK   10  A    between atoms: N_33  and  N_34
REMARK                            x       y       z     vdW  Elec       q    Type
REMARK                         _______ _______ _______ _____ _____    ______ ____
ROOT
ATOM      1  N   UNL     1      -0.241  -0.905   5.988  0.00  0.00    -0.251 N 
ATOM      2  C   UNL     1      -1.445  -1.352   6.387  0.00  0.00    +0.266 A 
ATOM      3  O   UNL     1      -2.459  -0.966   5.836  0.00  0.00    -0.267 OA
ATOM      4  C   UNL     1      -1.522  -2.322   7.507  0.00  0.00    +0.074 A 
ATOM      5  C   UNL     1      -2.657  -2.911   8.077  0.00  0.00    -0.017 A 
ATOM      6  C   UNL     1      -2.455  -3.782   9.109  0.00  0.00    +0.081 A 
ATOM      7  S   UNL     1      -0.682  -3.779   9.283  0.00  0.00    -0.065 S 
ATOM      8  C   UNL     1      -0.293  -2.699   8.068  0.00  0.00    +0.097 A 
ATOM      9  N   UNL     1       0.884  -2.191   7.596  0.00  0.00    -0.287 N 
ATOM     10  C   UNL     1       0.895  -1.317   6.573  0.00  0.00    +0.333 A 
ATOM     11  O   UNL     1       1.959  -0.886   6.171  0.00  0.00    -0.246 OA
ATOM     12  C   UNL     1      -4.042  -2.597   7.574  0.00  0.00    +0.046 C 
ENDROOT
BRANCH   6  13
ATOM     13  C   UNL     1      -3.449  -4.532   9.881  0.00  0.00    +0.264 C 
ATOM     14  O   UNL     1      -4.633  -4.414   9.626  0.00  0.00    -0.268 OA
ATOM     15  N   UNL     1      -3.052  -5.352  10.874  0.00  0.00    -0.249 N 
ATOM     16  H   UNL     1      -2.108  -5.446  11.077  0.00  0.00    +0.169 HD
BRANCH  15  17
ATOM     17  N   UNL     1      -3.978  -6.052  11.594  0.00  0.00    -0.254 NA
ATOM     18  H   UNL     1      -3.534  -6.621  12.299  0.00  0.00    +0.140 HD
ATOM     19  H   UNL     1      -4.659  -5.432  12.005  0.00  0.00    +0.140 HD
ENDBRANCH  15  17
ENDBRANCH   6  13
BRANCH   1  20
ATOM     20  C   UNL     1      -0.168   0.052   4.882  0.00  0.00    +0.226 C 
BRANCH  20  22
ATOM     21  N   UNL     1       0.025  -0.015   2.417  0.00  0.00    -0.284 N 
ATOM     22  C   UNL     1      -0.056  -0.694   3.578  0.00  0.00    +0.237 C 
ATOM     23  O   UNL     1      -0.040  -1.907   3.573  0.00  0.00    -0.274 OA
ATOM     24  H   UNL     1       0.078   0.954   2.425  0.00  0.00    +0.155 HD
BRANCH  21  31
ATOM     25  C   UNL     1      -1.264   1.184   0.181  0.00  0.00    +0.045 C 
ATOM     26  C   UNL     1      -0.584  -0.158   0.084  0.00  0.00    -0.029 A 
ATOM     27  C   UNL     1      -0.568  -0.840  -1.117  0.00  0.00    +0.005 A 
ATOM     28  C   UNL     1       0.055  -2.071  -1.206  0.00  0.00    +0.000 A 
ATOM     29  C   UNL     1       0.666  -2.622  -0.095  0.00  0.00    +0.002 A 
ATOM     30  C   UNL     1       0.655  -1.945   1.108  0.00  0.00    +0.023 A 
ATOM     31  C   UNL     1       0.034  -0.706   1.201  0.00  0.00    +0.036 A 
ENDBRANCH  21  31
ENDBRANCH  20  22
ENDBRANCH   1  20
BRANCH   9  32
ATOM     32  C   UNL     1       2.149  -2.607   8.207  0.00  0.00    +0.132 C 
BRANCH  32  33
ATOM     33  C   UNL     1       2.683  -3.843   7.480  0.00  0.00    +0.057 C 
BRANCH  33  34
ATOM     34  C   UNL     1       3.985  -4.271   8.108  0.00  0.00    -0.046 A 
ATOM     35  C   UNL     1       5.180  -3.758   7.641  0.00  0.00    +0.004 A 
ATOM     36  C   UNL     1       6.373  -4.151   8.217  0.00  0.00    +0.000 A 
ATOM     37  C   UNL     1       6.372  -5.057   9.261  0.00  0.00    +0.000 A 
ATOM     38  C   UNL     1       5.176  -5.570   9.729  0.00  0.00    +0.000 A 
ATOM     39  C   UNL     1       3.982  -5.173   9.156  0.00  0.00    +0.004 A 
ENDBRANCH  33  34
ENDBRANCH  32  33
ENDBRANCH   9  32
TORSDOF 8
