REMARK  Name = ZINC53733628
REMARK  6 active torsions:
REMARK  status: ('A' for Active; 'I' for Inactive)
REMARK    1  A    between atoms: C_1  and  C_2
REMARK    2  A    between atoms: C_4  and  N_8
REMARK    3  A    between atoms: N_5  and  C_7
REMARK    4  A    between atoms: N_11  and  C_12
REMARK    5  A    between atoms: C_12  and  C_14
REMARK    6  A    between atoms: C_12  and  C_15
REMARK                            x       y       z     vdW  Elec       q    Type
REMARK                         _______ _______ _______ _____ _____    ______ ____
ROOT
ATOM      1  C   UNL     1       0.033  -4.031  -5.134  0.00  0.00    +0.102 C 
ATOM      2  C   UNL     1       1.465  -3.833  -5.634  0.00  0.00    +0.033 C 
ENDROOT
BRANCH   1   3
ATOM      3  C   UNL     1      -0.554  -5.266  -5.767  0.00  0.00    -0.025 A 
ATOM      4  C   UNL     1      -0.245  -6.516  -5.258  0.00  0.00    +0.007 A 
ATOM      5  C   UNL     1      -0.778  -7.653  -5.832  0.00  0.00    +0.028 A 
ATOM      6  C   UNL     1      -1.627  -7.543  -6.922  0.00  0.00    +0.067 A 
ATOM      7  C   UNL     1      -1.939  -6.283  -7.436  0.00  0.00    +0.067 A 
ATOM      8  C   UNL     1      -1.403  -5.146  -6.850  0.00  0.00    +0.033 A 
ATOM      9  N   UNL     1      -2.800  -6.489  -8.512  0.00  0.00    -0.306 N 
ATOM     10  H   UNL     1      -3.187  -5.796  -9.069  0.00  0.00    +0.170 HD
ATOM     11  C   UNL     1      -3.002  -7.813  -8.646  0.00  0.00    +0.325 A 
ATOM     12  O   UNL     1      -3.705  -8.333  -9.492  0.00  0.00    -0.247 OA
ATOM     13  N   UNL     1      -2.307  -8.476  -7.702  0.00  0.00    -0.306 N 
ATOM     14  H   UNL     1      -2.285  -9.438  -7.584  0.00  0.00    +0.170 HD
ENDBRANCH   1   3
BRANCH   1  18
ATOM     15  N   UNL     1       0.039  -3.240  -1.543  0.00  0.00    -0.254 N 
ATOM     16  C   UNL     1       0.031  -3.097  -2.884  0.00  0.00    +0.305 C 
ATOM     17  O   UNL     1       0.014  -1.986  -3.376  0.00  0.00    -0.252 OA
ATOM     18  N   UNL     1       0.041  -4.186  -3.677  0.00  0.00    -0.293 N 
ATOM     19  H   UNL     1       0.052  -4.127  -1.150  0.00  0.00    +0.158 HD
ATOM     20  H   UNL     1       0.055  -5.073  -3.284  0.00  0.00    +0.151 HD
BRANCH  15  24
ATOM     21  C   UNL     1      -0.018   1.503   0.010  0.00  0.00    +0.067 C 
ATOM     22  C   UNL     1       0.002  -0.004   0.002  0.00  0.00    +0.062 A 
ATOM     23  C   UNL     1       0.008  -0.816  -1.135  0.00  0.00    +0.068 A 
ATOM     24  C   UNL     1       0.027  -2.113  -0.722  0.00  0.00    +0.124 A 
ATOM     25  N   UNL     1       0.034  -2.110   0.631  0.00  0.00    -0.253 N 
ATOM     26  N   UNL     1       0.023  -0.776   1.058  0.00  0.00    -0.175 NA
ATOM     27  C   UNL     1       0.053  -3.292   1.495  0.00  0.00    +0.174 C 
ENDBRANCH  15  24
ENDBRANCH   1  18
TORSDOF 3
