REMARK  Name = ZINC01110249
REMARK  8 active torsions:
REMARK  status: ('A' for Active; 'I' for Inactive)
REMARK    1  A    between atoms: C_1  and  C_2
REMARK    2  A    between atoms: C_7  and  N_8
REMARK    3  A    between atoms: C_9  and  C_11
REMARK    4  A    between atoms: C_12  and  C_29
REMARK    5  A    between atoms: C_17  and  C_19
REMARK    6  A    between atoms: C_21  and  O_27
REMARK    7  A    between atoms: C_22  and  O_26
REMARK    8  A    between atoms: O_27  and  C_28
REMARK                            x       y       z     vdW  Elec       q    Type
REMARK                         _______ _______ _______ _____ _____    ______ ____
ROOT
ATOM      1  C   UNL     1      -4.459   2.137  -1.550  0.00  0.00    +0.056 C 
ATOM      2  C   UNL     1      -5.769   2.308  -1.276  0.00  0.00    +0.019 C 
ATOM      3  N   UNL     1      -6.659   1.281  -1.416  0.00  0.00    -0.273 N 
ATOM      4  C   UNL     1      -6.315   0.050  -1.816  0.00  0.00    +0.304 C 
ATOM      5  O   UNL     1      -7.178  -0.802  -1.906  0.00  0.00    -0.252 OA
ATOM      6  N   UNL     1      -5.043  -0.276  -2.120  0.00  0.00    -0.288 N 
ATOM      7  C   UNL     1      -4.007   0.765  -2.006  0.00  0.00    +0.142 C 
ATOM      8  C   UNL     1      -6.260   3.656  -0.813  0.00  0.00    +0.061 C 
ATOM      9  H   UNL     1      -7.592   1.452  -1.212  0.00  0.00    +0.156 HD
ATOM     10  H   UNL     1      -4.815  -1.174  -2.407  0.00  0.00    +0.151 HD
ENDROOT
BRANCH   7  11
ATOM     11  C   UNL     1      -3.351   0.916  -3.355  0.00  0.00    -0.018 A 
ATOM     12  C   UNL     1      -1.976   0.822  -3.467  0.00  0.00    +0.055 A 
ATOM     13  C   UNL     1      -1.371   0.960  -4.706  0.00  0.00    +0.163 A 
ATOM     14  C   UNL     1      -2.150   1.194  -5.835  0.00  0.00    +0.173 A 
ATOM     15  C   UNL     1      -3.527   1.289  -5.716  0.00  0.00    +0.063 A 
ATOM     16  C   UNL     1      -4.125   1.144  -4.476  0.00  0.00    +0.025 A 
ATOM     17 BR   UNL     1      -4.590   1.607  -7.247  0.00  0.00    -0.046 Br
BRANCH  14  18
ATOM     18  O   UNL     1      -1.560   1.331  -7.053  0.00  0.00    -0.503 OA
ATOM     19  H   UNL     1      -1.461   0.500  -7.538  0.00  0.00    +0.292 HD
ENDBRANCH  14  18
BRANCH  13  20
ATOM     20  O   UNL     1      -0.019   0.867  -4.818  0.00  0.00    -0.491 OA
ATOM     21  C   UNL     1       0.707   0.514  -3.639  0.00  0.00    +0.277 C 
ENDBRANCH  13  20
ENDBRANCH   7  11
BRANCH   1  23
ATOM     22  N   UNL     1      -3.540   4.219  -2.295  0.00  0.00    -0.281 N 
ATOM     23  C   UNL     1      -3.536   3.203  -1.409  0.00  0.00    +0.248 C 
ATOM     24  O   UNL     1      -2.739   3.201  -0.489  0.00  0.00    -0.270 OA
ATOM     25  H   UNL     1      -4.237   4.273  -2.968  0.00  0.00    +0.155 HD
BRANCH  22  32
ATOM     26  C   UNL     1      -2.788   5.507  -4.718  0.00  0.00    +0.045 C 
ATOM     27  C   UNL     1      -2.146   5.852  -3.399  0.00  0.00    -0.029 A 
ATOM     28  C   UNL     1      -1.161   6.819  -3.341  0.00  0.00    +0.005 A 
ATOM     29  C   UNL     1      -0.571   7.136  -2.131  0.00  0.00    +0.000 A 
ATOM     30  C   UNL     1      -0.966   6.487  -0.976  0.00  0.00    +0.002 A 
ATOM     31  C   UNL     1      -1.953   5.523  -1.025  0.00  0.00    +0.023 A 
ATOM     32  C   UNL     1      -2.544   5.198  -2.240  0.00  0.00    +0.037 A 
ENDBRANCH  22  32
ENDBRANCH   1  23
TORSDOF 5
