REMARK  Name = ZINC22924958
REMARK  11 active torsions:
REMARK  status: ('A' for Active; 'I' for Inactive)
REMARK    1  A    between atoms: C_1  and  C_2
REMARK    2  A    between atoms: C_2  and  O_3
REMARK    3  A    between atoms: O_3  and  C_4
REMARK    4  A    between atoms: C_11  and  C_16
REMARK    5  A    between atoms: C_16  and  C_18
REMARK    6  A    between atoms: C_16  and  N_27
REMARK    7  A    between atoms: N_22  and  C_23
REMARK    8  A    between atoms: C_23  and  C_24
REMARK    9  A    between atoms: C_23  and  C_25
REMARK   10  A    between atoms: C_23  and  C_26
REMARK   11  A    between atoms: N_30  and  C_33
REMARK                            x       y       z     vdW  Elec       q    Type
REMARK                         _______ _______ _______ _____ _____    ______ ____
ROOT
ATOM      1  C   UNL     1       3.026  -6.426   5.060  0.00  0.00    +0.162 C 
ENDROOT
BRANCH   1   9
ATOM      2  C   UNL     1      -1.400  -5.451   0.830  0.00  0.00    +0.121 A 
ATOM      3  C   UNL     1      -0.554  -4.960  -0.162  0.00  0.00    +0.047 A 
ATOM      4  C   UNL     1       0.801  -4.855   0.061  0.00  0.00    +0.030 A 
ATOM      5  C   UNL     1       1.337  -5.242   1.285  0.00  0.00    +0.049 A 
ATOM      6  C   UNL     1       0.485  -5.739   2.290  0.00  0.00    +0.002 A 
ATOM      7  C   UNL     1      -0.890  -5.835   2.054  0.00  0.00    +0.055 A 
ATOM      8  C   UNL     1       1.062  -6.141   3.574  0.00  0.00    +0.021 A 
ATOM      9  C   UNL     1       2.401  -6.021   3.749  0.00  0.00    +0.042 A 
ATOM     10  C   UNL     1       3.211  -5.516   2.710  0.00  0.00    +0.254 A 
ATOM     11  O   UNL     1       4.413  -5.416   2.889  0.00  0.00    -0.268 OA
ATOM     12  N   UNL     1       2.692  -5.144   1.528  0.00  0.00    -0.322 N 
ATOM     13  H   UNL     1       3.278  -4.801   0.835  0.00  0.00    +0.169 HD
BRANCH   2  14
ATOM     14  O   UNL     1      -2.735  -5.548   0.593  0.00  0.00    -0.492 OA
BRANCH  14  16
ATOM     15  C   UNL     1      -4.714  -5.314  -0.774  0.00  0.00    +0.048 C 
ATOM     16  C   UNL     1      -3.197  -5.134  -0.695  0.00  0.00    +0.225 C 
ENDBRANCH  14  16
ENDBRANCH   2  14
ENDBRANCH   1   9
BRANCH   1  17
ATOM     17  N   UNL     1       4.004  -7.496   4.825  0.00  0.00    -0.292 NA
ATOM     18  C   UNL     1       3.391  -8.624   4.109  0.00  0.00    +0.067 C 
ATOM     19  C   UNL     1       4.455  -9.688   3.833  0.00  0.00    -0.063 C 
ATOM     20  N   UNL     1       5.030 -10.147   5.104  0.00  0.00    +0.383 N 
ATOM     21  C   UNL     1       5.661  -9.015   5.795  0.00  0.00    -0.063 C 
ATOM     22  C   UNL     1       4.607  -7.945   6.088  0.00  0.00    +0.067 C 
ATOM     23  H   UNL     1       4.300 -10.531   5.684  0.00  0.00    -0.081 HD
BRANCH  20  24
ATOM     24  C   UNL     1       6.039 -11.182   4.839  0.00  0.00    -0.068 C 
ATOM     25  C   UNL     1       5.382 -12.362   4.120  0.00  0.00    -0.015 C 
ATOM     26  C   UNL     1       6.432 -13.440   3.844  0.00  0.00    -0.002 C 
ATOM     27  C   UNL     1       7.032 -13.919   5.168  0.00  0.00    -0.000 C 
ATOM     28  C   UNL     1       7.689 -12.738   5.887  0.00  0.00    -0.002 C 
ATOM     29  C   UNL     1       6.638 -11.661   6.163  0.00  0.00    -0.015 C 
ENDBRANCH  20  24
ENDBRANCH   1  17
BRANCH   1  30
ATOM     30  C   UNL     1       1.954  -6.922   5.995  0.00  0.00    +0.174 A 
ATOM     31  N   UNL     1       1.302  -8.056   5.908  0.00  0.00    -0.111 NA
ATOM     32  N   UNL     1       0.471  -8.115   6.891  0.00  0.00    -0.023 NA
ATOM     33  N   UNL     1       0.576  -7.047   7.603  0.00  0.00    -0.043 NA
ATOM     34  N   UNL     1       1.483  -6.289   7.086  0.00  0.00    -0.222 N 
BRANCH  34  35
ATOM     35  C   UNL     1       1.917  -4.984   7.589  0.00  0.00    +0.059 C 
ATOM     36  C   UNL     1       1.747  -3.932   6.491  0.00  0.00    +0.036 C 
ATOM     37  C   UNL     1       1.067  -4.597   8.802  0.00  0.00    +0.036 C 
ATOM     38  C   UNL     1       3.388  -5.059   8.000  0.00  0.00    +0.036 C 
ENDBRANCH  34  35
ENDBRANCH   1  30
TORSDOF 7
