REMARK  Name = ZINC36438446
REMARK  10 active torsions:
REMARK  status: ('A' for Active; 'I' for Inactive)
REMARK    1  A    between atoms: C_1  and  C_2
REMARK    2  A    between atoms: C_7  and  C_8
REMARK    3  A    between atoms: C_7  and  C_9
REMARK    4  A    between atoms: C_11  and  N_13
REMARK    5  A    between atoms: C_14  and  C_16
REMARK    6  A    between atoms: C_16  and  O_17
REMARK    7  A    between atoms: O_17  and  C_18
REMARK    8  A    between atoms: C_18  and  C_20
REMARK    9  A    between atoms: C_23  and  C_26
REMARK   10  A    between atoms: C_26  and  N_27
REMARK                            x       y       z     vdW  Elec       q    Type
REMARK                         _______ _______ _______ _____ _____    ______ ____
ROOT
ATOM      1  O   UNL     1      -5.873   0.370   1.497  0.00  0.00    -0.452 OA
ENDROOT
BRANCH   1   2
ATOM      2  C   UNL     1      -6.814   0.937   2.276  0.00  0.00    +0.340 C 
ATOM      3  O   UNL     1      -6.487   1.615   3.229  0.00  0.00    -0.245 OA
BRANCH   2   4
ATOM      4  C   UNL     1      -8.245   0.735   1.970  0.00  0.00    +0.059 A 
ATOM      5  C   UNL     1      -8.626  -0.048   0.879  0.00  0.00    +0.015 A 
ATOM      6  C   UNL     1      -9.964  -0.233   0.599  0.00  0.00    +0.006 A 
ATOM      7  C   UNL     1     -10.928   0.355   1.398  0.00  0.00    -0.030 A 
ATOM      8  C   UNL     1     -10.559   1.133   2.481  0.00  0.00    +0.006 A 
ATOM      9  C   UNL     1      -9.224   1.321   2.776  0.00  0.00    +0.015 A 
BRANCH   7  10
ATOM     10  C   UNL     1     -12.388   0.149   1.086  0.00  0.00    +0.141 C 
BRANCH  10  11
ATOM     11  N   UNL     1     -12.876  -1.038   1.794  0.00  0.00    -0.295 N 
ATOM     12  C   UNL     1     -14.162  -1.419   1.664  0.00  0.00    +0.297 C 
ATOM     13  O   UNL     1     -14.918  -0.778   0.960  0.00  0.00    -0.253 OA
ATOM     14  N   UNL     1     -14.610  -2.511   2.314  0.00  0.00    -0.313 N 
ATOM     15  H   UNL     1     -12.272  -1.549   2.355  0.00  0.00    +0.151 HD
ATOM     16  H   UNL     1     -14.007  -3.022   2.876  0.00  0.00    +0.146 HD
ATOM     17  H   UNL     1     -15.536  -2.785   2.221  0.00  0.00    +0.146 HD
ENDBRANCH  10  11
ENDBRANCH   7  10
ENDBRANCH   2   4
ENDBRANCH   1   2
BRANCH   1  18
ATOM     18  C   UNL     1      -4.509   0.608   1.851  0.00  0.00    +0.328 C 
BRANCH  18  20
ATOM     19  N   UNL     1      -2.268  -0.017   1.012  0.00  0.00    -0.309 N 
ATOM     20  C   UNL     1      -3.606  -0.100   0.874  0.00  0.00    +0.251 C 
ATOM     21  O   UNL     1      -4.083  -0.745  -0.035  0.00  0.00    -0.272 OA
ATOM     22  H   UNL     1      -1.886   0.499   1.739  0.00  0.00    +0.149 HD
BRANCH  19  32
ATOM     23  C   UNL     1      -0.019   1.526   0.010  0.00  0.00    +0.013 C 
ATOM     24  C   UNL     1       0.002  -0.004   0.002  0.00  0.00    -0.008 C 
ATOM     25  C   UNL     1       0.744  -0.669  -1.197  0.00  0.00    +0.009 C 
ATOM     26  C   UNL     1       1.062  -2.103  -0.714  0.00  0.00    +0.005 C 
ATOM     27  C   UNL     1       0.481  -2.169   0.732  0.00  0.00    -0.003 C 
ATOM     28  C   UNL     1       0.727  -0.695   1.211  0.00  0.00    -0.025 C 
ATOM     29  C   UNL     1       0.031  -0.400   2.541  0.00  0.00    +0.012 C 
ATOM     30  C   UNL     1       2.216  -0.348   1.260  0.00  0.00    +0.012 C 
ATOM     31  C   UNL     1      -1.065  -2.175   0.532  0.00  0.00    +0.027 C 
ATOM     32  C   UNL     1      -1.389  -0.705   0.062  0.00  0.00    +0.080 C 
ENDBRANCH  19  32
ENDBRANCH  18  20
ENDBRANCH   1  18
TORSDOF 7
