REMARK  Name = ZINC38062889
REMARK  3 active torsions:
REMARK  status: ('A' for Active; 'I' for Inactive)
REMARK    1  A    between atoms: C_4  and  C_7
REMARK    2  A    between atoms: N_11  and  C_12
REMARK    3  A    between atoms: C_12  and  C_13
REMARK                            x       y       z     vdW  Elec       q    Type
REMARK                         _______ _______ _______ _____ _____    ______ ____
ROOT
ATOM      1  C   UNL     1       3.698  -0.714  -0.243  0.00  0.00    +0.067 A 
ATOM      2  C   UNL     1       4.915  -0.143  -0.264  0.00  0.00    +0.111 A 
ATOM      3  N   UNL     1       5.846  -1.127   0.008  0.00  0.00    -0.340 N 
ATOM      4  C   UNL     1       5.193  -2.290   0.192  0.00  0.00    +0.158 A 
ATOM      5  N   UNL     1       3.873  -2.064   0.050  0.00  0.00    -0.317 N 
ATOM      6  S   UNL     1       5.918  -3.799   0.553  0.00  0.00    -0.013 S 
ATOM      7  H   UNL     1       6.807  -1.001   0.056  0.00  0.00    +0.167 HD
ENDROOT
BRANCH   1  11
ATOM      8  C   UNL     1      -0.008   1.248  -0.929  0.00  0.00    +0.000 A 
ATOM      9  C   UNL     1       1.051   1.452  -1.796  0.00  0.00    +0.001 A 
ATOM     10  C   UNL     1       2.257   0.819  -1.579  0.00  0.00    +0.010 A 
ATOM     11  C   UNL     1       2.408  -0.030  -0.481  0.00  0.00    -0.000 A 
ATOM     12  C   UNL     1       1.337  -0.232   0.390  0.00  0.00    +0.010 A 
ATOM     13  C   UNL     1       0.136   0.407   0.161  0.00  0.00    +0.001 A 
ENDBRANCH   1  11
BRANCH   5  14
ATOM     14  C   UNL     1       2.809  -3.063   0.178  0.00  0.00    +0.158 C 
BRANCH  14  15
ATOM     15  C   UNL     1       2.448  -3.604  -1.207  0.00  0.00    +0.164 C 
ATOM     16  C   UNL     1       1.255  -4.558  -1.089  0.00  0.00    +0.193 C 
ATOM     17  O   UNL     1       0.995  -5.144  -2.368  0.00  0.00    -0.375 OA
ATOM     18  C   UNL     1       2.112  -5.856  -2.909  0.00  0.00    +0.188 C 
ATOM     19  C   UNL     1       3.305  -4.902  -3.027  0.00  0.00    +0.188 C 
ATOM     20  O   UNL     1       3.566  -4.314  -1.749  0.00  0.00    -0.370 OA
ENDBRANCH  14  15
ENDBRANCH   5  14
TORSDOF 3
