REMARK  Name = ZINC40376788
REMARK  7 active torsions:
REMARK  status: ('A' for Active; 'I' for Inactive)
REMARK    1  A    between atoms: C_1  and  C_2
REMARK    2  A    between atoms: C_2  and  C_3
REMARK    3  A    between atoms: C_3  and  C_5
REMARK    4  A    between atoms: C_3  and  N_9
REMARK    5  A    between atoms: N_6  and  O_7
REMARK    6  A    between atoms: N_9  and  S_10
REMARK    7  A    between atoms: S_10  and  C_13
REMARK                            x       y       z     vdW  Elec       q    Type
REMARK                         _______ _______ _______ _____ _____    ______ ____
ROOT
ATOM      1  N   UNL     1       2.146  -0.131   1.127  0.00  0.00    -0.180 NA
ATOM      2  H   UNL     1       2.675  -0.693   0.539  0.00  0.00    +0.149 HD
ENDROOT
BRANCH   1   3
ATOM      3  S   UNL     1       2.841   1.176   1.868  0.00  0.00    +0.062 S 
ATOM      4  O   UNL     1       2.485   1.102   3.242  0.00  0.00    -0.153 OA
ATOM      5  O   UNL     1       4.194   1.218   1.434  0.00  0.00    -0.153 OA
BRANCH   3   6
ATOM      6  C   UNL     1       2.060   2.618   1.223  0.00  0.00    +0.143 A 
ATOM      7  C   UNL     1       1.302   3.422   2.051  0.00  0.00    +0.069 A 
ATOM      8  C   UNL     1       0.689   4.555   1.544  0.00  0.00    +0.125 A 
ATOM      9  C   UNL     1       0.835   4.882   0.206  0.00  0.00    +0.041 A 
ATOM     10  C   UNL     1       1.593   4.077  -0.622  0.00  0.00    +0.043 A 
ATOM     11  C   UNL     1       2.211   2.947  -0.114  0.00  0.00    +0.150 A 
ATOM     12  F   UNL     1       2.957   2.163  -0.922  0.00  0.00    -0.203 F 
ATOM     13  F   UNL     1      -0.053   5.342   2.354  0.00  0.00    -0.205 F 
ENDBRANCH   3   6
ENDBRANCH   1   3
BRANCH   1  14
ATOM     14  C   UNL     1       0.733  -0.439   1.359  0.00  0.00    +0.142 C 
BRANCH  14  15
ATOM     15  C   UNL     1       0.616  -1.457   2.465  0.00  0.00    +0.150 C 
ATOM     16  N   UNL     1      -0.468  -1.528   3.165  0.00  0.00    -0.075 NA
ATOM     17  N   UNL     1       1.664  -2.311   2.729  0.00  0.00    -0.343 N 
ATOM     18  H   UNL     1       2.477  -2.257   2.203  0.00  0.00    +0.144 HD
ATOM     19  H   UNL     1       1.588  -2.966   3.440  0.00  0.00    +0.144 HD
BRANCH  16  20
ATOM     20  O   UNL     1      -0.578  -2.485   4.203  0.00  0.00    -0.408 OA
ATOM     21  H   UNL     1      -1.424  -2.462   4.670  0.00  0.00    +0.328 HD
ENDBRANCH  16  20
ENDBRANCH  14  15
BRANCH  14  23
ATOM     22  C   UNL     1       0.110   0.076  -1.004  0.00  0.00    +0.006 C 
ATOM     23  C   UNL     1       0.117  -1.005   0.078  0.00  0.00    +0.025 C 
ENDBRANCH  14  23
ENDBRANCH   1  14
TORSDOF 6
