REMARK  Name = ZINC65210495
REMARK  7 active torsions:
REMARK  status: ('A' for Active; 'I' for Inactive)
REMARK    1  A    between atoms: C_1  and  S_2
REMARK    2  A    between atoms: S_2  and  N_5
REMARK    3  A    between atoms: C_11  and  C_14
REMARK    4  A    between atoms: N_16  and  C_17
REMARK    5  A    between atoms: C_17  and  C_18
REMARK    6  A    between atoms: C_18  and  N_19
REMARK    7  A    between atoms: C_22  and  N_25
REMARK                            x       y       z     vdW  Elec       q    Type
REMARK                         _______ _______ _______ _____ _____    ______ ____
ROOT
ATOM      1  C   UNL     1       5.537  -0.606   0.194  0.00  0.00    +0.244 C 
ATOM      2  O   UNL     1       5.230  -0.313   1.333  0.00  0.00    -0.270 OA
ATOM      3  N   UNL     1       6.830  -0.827  -0.119  0.00  0.00    -0.310 N 
ATOM      4  H   UNL     1       7.075  -1.061  -1.028  0.00  0.00    +0.149 HD
ENDROOT
BRANCH   1  11
ATOM      5  N   UNL     1       0.795  -0.411  -1.394  0.00  0.00    -0.207 N 
ATOM      6  C   UNL     1       0.152  -0.622  -2.693  0.00  0.00    +0.136 C 
ATOM      7  C   UNL     1       1.296  -0.976  -3.657  0.00  0.00    +0.058 C 
ATOM      8  C   UNL     1       2.541  -0.937  -2.800  0.00  0.00    -0.023 A 
ATOM      9  C   UNL     1       2.174  -0.598  -1.505  0.00  0.00    +0.055 A 
ATOM     10  C   UNL     1       3.159  -0.492  -0.525  0.00  0.00    +0.038 A 
ATOM     11  C   UNL     1       4.494  -0.720  -0.847  0.00  0.00    +0.039 A 
ATOM     12  C   UNL     1       4.847  -1.056  -2.155  0.00  0.00    +0.013 A 
ATOM     13  C   UNL     1       3.867  -1.169  -3.120  0.00  0.00    +0.006 A 
BRANCH   5  15
ATOM     14  C   UNL     1      -0.022   1.810   0.012  0.00  0.00    +0.218 C 
ATOM     15  S   UNL     1       0.002  -0.004   0.002  0.00  0.00    +0.043 S 
ATOM     16  O   UNL     1       0.835  -0.488   1.046  0.00  0.00    -0.155 OA
ATOM     17  O   UNL     1      -1.315  -0.510  -0.168  0.00  0.00    -0.155 OA
ENDBRANCH   5  15
ENDBRANCH   1  11
BRANCH   3  18
ATOM     18  C   UNL     1       7.863  -0.714   0.913  0.00  0.00    +0.120 C 
BRANCH  18  19
ATOM     19  C   UNL     1       9.232  -1.012   0.299  0.00  0.00    +0.103 C 
BRANCH  19  20
ATOM     20  N   UNL     1      10.269  -0.899   1.334  0.00  0.00    -0.301 NA
ATOM     21  C   UNL     1      10.105  -1.939   2.358  0.00  0.00    +0.083 C 
ATOM     22  C   UNL     1      11.107  -1.703   3.491  0.00  0.00    +0.000 C 
ATOM     23  C   UNL     1      12.529  -1.738   2.923  0.00  0.00    -0.066 C 
ATOM     24  C   UNL     1      12.658  -0.678   1.826  0.00  0.00    +0.000 C 
ATOM     25  C   UNL     1      11.611  -0.944   0.741  0.00  0.00    +0.083 C 
BRANCH  23  26
ATOM     26  N   UNL     1      13.492  -1.454   3.995  0.00  0.00    +0.382 N 
ATOM     27  C   UNL     1      14.854  -1.479   3.447  0.00  0.00    -0.078 C 
ATOM     28  C   UNL     1      15.855  -1.105   4.542  0.00  0.00    -0.019 C 
ATOM     29  C   UNL     1      15.748  -2.111   5.691  0.00  0.00    -0.004 C 
ATOM     30  C   UNL     1      14.306  -2.130   6.206  0.00  0.00    -0.019 C 
ATOM     31  C   UNL     1      13.361  -2.467   5.050  0.00  0.00    -0.078 C 
ATOM     32  H   UNL     1      13.304  -0.541   4.382  0.00  0.00    -0.081 HD
ENDBRANCH  23  26
ENDBRANCH  19  20
ENDBRANCH  18  19
ENDBRANCH   3  18
TORSDOF 6
