REMARK  Name = ZINC03999319
REMARK  10 active torsions:
REMARK  status: ('A' for Active; 'I' for Inactive)
REMARK    1  A    between atoms: C_1  and  N_2
REMARK    2  A    between atoms: N_2  and  C_3
REMARK    3  A    between atoms: N_2  and  C_4
REMARK    4  A    between atoms: C_7  and  C_10
REMARK    5  A    between atoms: N_11  and  C_12
REMARK    6  A    between atoms: C_14  and  O_27
REMARK    7  A    between atoms: C_16  and  O_26
REMARK    8  A    between atoms: C_18  and  C_24
REMARK    9  A    between atoms: C_21  and  O_23
REMARK   10  A    between atoms: C_24  and  O_25
REMARK                            x       y       z     vdW  Elec       q    Type
REMARK                         _______ _______ _______ _____ _____    ______ ____
ROOT
ATOM      1  C   UNL     1       1.417   1.616  -0.007  0.00  0.00    +0.192 C 
ATOM      2  C   UNL     1       2.124   1.139   1.266  0.00  0.00    +0.175 C 
ATOM      3  C   UNL     1       1.335   1.623   2.486  0.00  0.00    +0.176 C 
ATOM      4  C   UNL     1      -0.103   1.108   2.393  0.00  0.00    +0.178 C 
ATOM      5  O   UNL     1      -0.692   1.562   1.172  0.00  0.00    -0.341 OA
ATOM      6  C   UNL     1      -0.025   1.101  -0.004  0.00  0.00    +0.275 C 
ENDROOT
BRANCH   1   8
ATOM      7  C   UNL     1       2.618   1.915  -2.053  0.00  0.00    +0.113 C 
ATOM      8  N   UNL     1       2.121   1.097  -1.182  0.00  0.00    -0.280 NA
BRANCH   7  12
ATOM      9  C   UNL     1       4.657   0.409  -5.458  0.00  0.00    +0.029 A 
ATOM     10  C   UNL     1       4.523   1.783  -5.280  0.00  0.00    +0.024 A 
ATOM     11  C   UNL     1       3.862   2.275  -4.177  0.00  0.00    +0.011 A 
ATOM     12  C   UNL     1       3.325   1.392  -3.235  0.00  0.00    -0.007 A 
ATOM     13  C   UNL     1       3.466   0.013  -3.414  0.00  0.00    +0.011 A 
ATOM     14  C   UNL     1       4.123  -0.472  -4.523  0.00  0.00    +0.024 A 
BRANCH   9  16
ATOM     15  C   UNL     1       5.778   0.833  -7.623  0.00  0.00    +0.129 C 
ATOM     16  N   UNL     1       5.326  -0.085  -6.574  0.00  0.00    -0.336 N 
ATOM     17  C   UNL     1       5.578  -1.522  -6.701  0.00  0.00    +0.129 C 
ENDBRANCH   9  16
ENDBRANCH   7  12
ENDBRANCH   1   8
BRANCH   6  18
ATOM     18  O   UNL     1      -0.707   1.589  -1.161  0.00  0.00    -0.365 OA
ATOM     19  H   UNL     1      -1.628   1.301  -1.225  0.00  0.00    +0.213 HD
ENDBRANCH   6  18
BRANCH   3  20
ATOM     20  O   UNL     1       1.945   1.123   3.678  0.00  0.00    -0.387 OA
ATOM     21  H   UNL     1       1.497   1.391   4.492  0.00  0.00    +0.210 HD
ENDBRANCH   3  20
BRANCH   2  22
ATOM     22  O   UNL     1       3.448   1.675   1.306  0.00  0.00    -0.387 OA
ATOM     23  H   UNL     1       3.954   1.412   2.087  0.00  0.00    +0.210 HD
ENDBRANCH   2  22
BRANCH   4  24
ATOM     24  C   UNL     1      -0.913   1.637   3.578  0.00  0.00    +0.190 C 
BRANCH  24  25
ATOM     25  O   UNL     1      -2.222   1.063   3.554  0.00  0.00    -0.392 OA
ATOM     26  H   UNL     1      -2.792   1.355   4.279  0.00  0.00    +0.210 HD
ENDBRANCH  24  25
ENDBRANCH   4  24
TORSDOF 8
