REMARK  Name = ZINC02915898
REMARK  7 active torsions:
REMARK  status: ('A' for Active; 'I' for Inactive)
REMARK    1  A    between atoms: C_1  and  C_2
REMARK    2  A    between atoms: C_2  and  C_3
REMARK    3  A    between atoms: C_3  and  C_4
REMARK    4  A    between atoms: C_4  and  S_5
REMARK    5  A    between atoms: S_5  and  C_6
REMARK    6  A    between atoms: C_19  and  C_22
REMARK    7  A    between atoms: C_26  and  C_29
REMARK                            x       y       z     vdW  Elec       q    Type
REMARK                         _______ _______ _______ _____ _____    ______ ____
ROOT
ATOM      1  C   UNL     1       1.541   1.556  -4.410  0.00  0.00    +0.212 A 
ATOM      2  N   UNL     1       2.028   1.904  -3.222  0.00  0.00    -0.184 NA
ATOM      3  C   UNL     1       1.678   1.211  -2.152  0.00  0.00    +0.248 A 
ATOM      4  C   UNL     1       0.790   0.123  -2.308  0.00  0.00    +0.156 A 
ATOM      5  N   UNL     1       0.344  -0.173  -3.519  0.00  0.00    -0.141 NA
ATOM      6  N   UNL     1       0.712   0.527  -4.535  0.00  0.00    -0.122 NA
ATOM      7  C   UNL     1       0.379  -0.659  -1.123  0.00  0.00    +0.028 A 
ATOM      8  C   UNL     1       0.392  -2.049  -1.128  0.00  0.00    +0.012 A 
ATOM      9  C   UNL     1      -0.031  -2.743  -0.012  0.00  0.00    +0.001 A 
ATOM     10  C   UNL     1      -0.466  -2.063   1.113  0.00  0.00    +0.002 A 
ATOM     11  C   UNL     1      -0.476  -0.681   1.135  0.00  0.00    +0.023 A 
ATOM     12  C   UNL     1      -0.052   0.029   0.027  0.00  0.00    +0.039 A 
ATOM     13  N   UNL     1      -0.035   1.427   0.019  0.00  0.00    -0.309 N 
ATOM     14  C   UNL     1       1.253   2.114   0.002  0.00  0.00    +0.265 C 
ATOM     15  O   UNL     1       2.157   1.520  -0.923  0.00  0.00    -0.453 OA
ATOM     16  H   UNL     1      -0.864   1.931   0.021  0.00  0.00    +0.150 HD
ENDROOT
BRANCH  14  17
ATOM     17  C   UNL     1       1.865   2.061   1.402  0.00  0.00    +0.053 C 
ATOM     18  C   UNL     1       0.909   2.713   2.409  0.00  0.00    +0.013 C 
ATOM     19  C   UNL     1       1.462   2.487   3.818  0.00  0.00    +0.030 C 
ATOM     20  C   UNL     1       2.912   2.870   3.872  0.00  0.00    -0.077 C 
ATOM     21  C   UNL     1       3.663   3.016   2.828  0.00  0.00    -0.027 C 
ATOM     22  C   UNL     1       3.186   2.834   1.417  0.00  0.00    +0.036 C 
ATOM     23  C   UNL     1       3.533   3.098   5.226  0.00  0.00    +0.039 C 
ENDBRANCH  14  17
BRANCH   1  24
ATOM     24  S   UNL     1       2.004   2.476  -5.840  0.00  0.00    -0.084 S 
BRANCH  24  25
ATOM     25  C   UNL     1       1.073   1.578  -7.106  0.00  0.00    +0.077 C 
BRANCH  25  26
ATOM     26  C   UNL     1       1.326   2.216  -8.473  0.00  0.00    +0.011 C 
BRANCH  26  28
ATOM     27  C   UNL     1       0.791   2.095 -10.911  0.00  0.00    +0.004 C 
ATOM     28  C   UNL     1       0.538   1.458  -9.543  0.00  0.00    -0.003 C 
ENDBRANCH  26  28
ENDBRANCH  25  26
ENDBRANCH  24  25
ENDBRANCH   1  24
TORSDOF 5
