REMARK  Name = ZINC04545406
REMARK  5 active torsions:
REMARK  status: ('A' for Active; 'I' for Inactive)
REMARK    1  A    between atoms: C_1  and  C_2
REMARK    2  A    between atoms: C_2  and  C_3
REMARK    3  A    between atoms: C_12  and  O_26
REMARK    4  A    between atoms: C_14  and  C_17
REMARK    5  A    between atoms: C_22  and  N_23
REMARK                            x       y       z     vdW  Elec       q    Type
REMARK                         _______ _______ _______ _____ _____    ______ ____
ROOT
ATOM      1  C   UNL     1       1.094  -0.024  -1.251  0.00  0.00    -0.006 C 
ATOM      2  C   UNL     1       0.924  -1.546  -1.226  0.00  0.00    +0.008 C 
ATOM      3  C   UNL     1       1.319  -2.136  -2.582  0.00  0.00    +0.037 C 
ATOM      4  C   UNL     1       2.707  -1.628  -2.949  0.00  0.00    -0.023 A 
ATOM      5  C   UNL     1       3.234  -0.537  -2.349  0.00  0.00    -0.004 A 
ATOM      6  S   UNL     1       4.831  -0.339  -3.090  0.00  0.00    -0.078 S 
ATOM      7  C   UNL     1       4.810  -1.627  -4.134  0.00  0.00    +0.080 A 
ATOM      8  C   UNL     1       3.567  -2.243  -3.944  0.00  0.00    +0.068 A 
ATOM      9  C   UNL     1       3.260  -3.437  -4.772  0.00  0.00    +0.220 C 
ATOM     10  N   UNL     1       4.243  -3.985  -5.433  0.00  0.00    -0.223 NA
ATOM     11  C   UNL     1       5.631  -3.545  -5.365  0.00  0.00    +0.226 C 
ATOM     12  N   UNL     1       5.731  -2.111  -5.035  0.00  0.00    -0.313 N 
ATOM     13  C   UNL     1       2.592   0.310  -1.293  0.00  0.00    +0.046 C 
ATOM     14  H   UNL     1       6.408  -1.541  -5.431  0.00  0.00    +0.149 HD
ENDROOT
BRANCH  11  15
ATOM     15  C   UNL     1       6.349  -4.342  -4.307  0.00  0.00    +0.025 A 
ATOM     16  C   UNL     1       5.634  -4.923  -3.276  0.00  0.00    +0.009 A 
ATOM     17  C   UNL     1       6.292  -5.655  -2.305  0.00  0.00    +0.001 A 
ATOM     18  C   UNL     1       7.665  -5.806  -2.366  0.00  0.00    +0.002 A 
ATOM     19  C   UNL     1       8.379  -5.227  -3.397  0.00  0.00    +0.033 A 
ATOM     20  C   UNL     1       7.721  -4.498  -4.371  0.00  0.00    +0.133 A 
BRANCH  20  21
ATOM     21  N   UNL     1       8.485  -3.882  -5.478  0.00  0.00    +0.057 N 
ATOM     22  O   UNL     1       9.667  -4.108  -5.596  0.00  0.00    -0.126 OA
ATOM     23  O   UNL     1       7.928  -3.152  -6.264  0.00  0.00    -0.126 OA
ENDBRANCH  20  21
ENDBRANCH  11  15
BRANCH   1  25
ATOM     24  C   UNL     1       0.534   2.108  -0.075  0.00  0.00    +0.004 C 
ATOM     25  C   UNL     1       0.469   0.582   0.007  0.00  0.00    +0.000 C 
ENDBRANCH   1  25
BRANCH   9  26
ATOM     26  O   UNL     1       2.005  -3.940  -4.839  0.00  0.00    -0.492 OA
ATOM     27  H   UNL     1       1.923  -4.718  -5.408  0.00  0.00    +0.294 HD
ENDBRANCH   9  26
TORSDOF 4
