REMARK  Name = ZINC00800601
REMARK  10 active torsions:
REMARK  status: ('A' for Active; 'I' for Inactive)
REMARK    1  A    between atoms: C_1  and  C_2
REMARK    2  A    between atoms: C_2  and  O_3
REMARK    3  A    between atoms: O_3  and  C_4
REMARK    4  A    between atoms: C_7  and  C_13
REMARK    5  A    between atoms: C_9  and  O_10
REMARK    6  A    between atoms: O_10  and  C_11
REMARK    7  A    between atoms: C_11  and  C_12
REMARK    8  A    between atoms: C_18  and  O_27
REMARK    9  A    between atoms: C_22  and  N_26
REMARK   10  A    between atoms: C_23  and  C_24
REMARK                            x       y       z     vdW  Elec       q    Type
REMARK                         _______ _______ _______ _____ _____    ______ ____
ROOT
ATOM      1  C   UNL     1       1.107  -6.044  -1.844  0.00  0.00    +0.098 C 
ATOM      2  C   UNL     1       1.872  -6.626  -0.684  0.00  0.00    +0.008 A 
ATOM      3  C   UNL     1       3.248  -6.485  -0.638  0.00  0.00    +0.012 A 
ATOM      4  C   UNL     1       3.966  -7.013   0.417  0.00  0.00    +0.046 A 
ATOM      5  C   UNL     1       3.307  -7.688   1.436  0.00  0.00    +0.120 A 
ATOM      6  C   UNL     1       1.930  -7.830   1.392  0.00  0.00    +0.092 A 
ATOM      7  C   UNL     1       1.209  -7.299   0.331  0.00  0.00    +0.138 A 
ATOM      8  O   UNL     1      -0.138  -7.447   0.302  0.00  0.00    -0.441 OA
ATOM      9  C   UNL     1      -0.804  -7.300  -0.855  0.00  0.00    +0.199 C 
ATOM     10  C   UNL     1      -0.269  -6.646  -1.909  0.00  0.00    +0.098 C 
ENDROOT
BRANCH   1  14
ATOM     11  C   UNL     1       0.777  -1.811  -1.336  0.00  0.00    +0.162 A 
ATOM     12  C   UNL     1       0.243  -2.669  -0.388  0.00  0.00    +0.050 A 
ATOM     13  C   UNL     1       0.352  -4.037  -0.555  0.00  0.00    +0.008 A 
ATOM     14  C   UNL     1       0.992  -4.552  -1.667  0.00  0.00    -0.031 A 
ATOM     15  C   UNL     1       1.526  -3.702  -2.616  0.00  0.00    +0.054 A 
ATOM     16  C   UNL     1       1.416  -2.330  -2.458  0.00  0.00    +0.162 A 
BRANCH  11  17
ATOM     17  O   UNL     1       0.671  -0.465  -1.174  0.00  0.00    -0.489 OA
BRANCH  17  19
ATOM     18  C   UNL     1      -0.019   1.526   0.010  0.00  0.00    +0.048 C 
ATOM     19  C   UNL     1       0.002  -0.004   0.002  0.00  0.00    +0.226 C 
ENDBRANCH  17  19
ENDBRANCH  11  17
BRANCH  16  20
ATOM     20  O   UNL     1       1.936  -1.492  -3.394  0.00  0.00    -0.489 OA
BRANCH  20  21
ATOM     21  C   UNL     1       2.578  -2.095  -4.520  0.00  0.00    +0.226 C 
ATOM     22  C   UNL     1       3.096  -1.002  -5.457  0.00  0.00    +0.048 C 
ENDBRANCH  20  21
ENDBRANCH  16  20
ENDBRANCH   1  14
BRANCH   9  23
ATOM     23  N   UNL     1      -2.065  -7.831  -0.969  0.00  0.00    -0.328 N 
ATOM     24  H   UNL     1      -2.462  -8.303  -0.221  0.00  0.00    +0.145 HD
ATOM     25  H   UNL     1      -2.559  -7.734  -1.798  0.00  0.00    +0.145 HD
ENDBRANCH   9  23
BRANCH  10  26
ATOM     26  C   UNL     1      -1.032  -6.523  -3.114  0.00  0.00    +0.101 C 
ATOM     27  N   UNL     1      -1.637  -6.426  -4.070  0.00  0.00    -0.191 NA
ENDBRANCH  10  26
BRANCH   5  28
ATOM     28  O   UNL     1       4.013  -8.208   2.474  0.00  0.00    -0.507 OA
ATOM     29  H   UNL     1       4.125  -7.600   3.218  0.00  0.00    +0.292 HD
ENDBRANCH   5  28
TORSDOF 8
