REMARK  Name = ZINC00038230
REMARK  6 active torsions:
REMARK  status: ('A' for Active; 'I' for Inactive)
REMARK    1  A    between atoms: C_4  and  O_26
REMARK    2  A    between atoms: C_5  and  C_7
REMARK    3  A    between atoms: C_7  and  C_9
REMARK    4  A    between atoms: C_7  and  N_20
REMARK    5  A    between atoms: C_18  and  O_19
REMARK    6  A    between atoms: N_20  and  C_21
REMARK                            x       y       z     vdW  Elec       q    Type
REMARK                         _______ _______ _______ _____ _____    ______ ____
ROOT
ATOM      1  C   UNL     1       2.402  -0.336  -0.019  0.00  0.00    +0.139 C 
ENDROOT
BRANCH   1   2
ATOM      2  C   UNL     1       3.711  -0.580  -0.726  0.00  0.00    +0.021 A 
ATOM      3  C   UNL     1       4.815  -1.011   0.006  0.00  0.00    +0.010 A 
ATOM      4  C   UNL     1       6.010  -1.246  -0.603  0.00  0.00    +0.010 A 
ATOM      5  C   UNL     1       6.139  -1.041  -1.987  0.00  0.00    +0.004 A 
ATOM      6  C   UNL     1       7.359  -1.267  -2.650  0.00  0.00    +0.011 A 
ATOM      7  C   UNL     1       7.411  -1.047  -3.997  0.00  0.00    +0.020 A 
ATOM      8  C   UNL     1       6.275  -0.610  -4.674  0.00  0.00    +0.111 A 
ATOM      9  N   UNL     1       5.140  -0.400  -4.052  0.00  0.00    -0.251 NA
ATOM     10  C   UNL     1       5.022  -0.597  -2.736  0.00  0.00    +0.113 A 
ATOM     11  C   UNL     1       3.798  -0.369  -2.072  0.00  0.00    +0.148 A 
BRANCH  11  12
ATOM     12  O   UNL     1       2.712   0.057  -2.768  0.00  0.00    -0.504 OA
ATOM     13  H   UNL     1       2.633   1.019  -2.823  0.00  0.00    +0.292 HD
ENDBRANCH  11  12
ENDBRANCH   1   2
BRANCH   1  18
ATOM     14  C   UNL     1       2.787  -0.851   3.701  0.00  0.00    +0.001 A 
ATOM     15  C   UNL     1       2.490  -2.195   3.829  0.00  0.00    +0.004 A 
ATOM     16  C   UNL     1       2.164  -2.941   2.714  0.00  0.00    +0.046 A 
ATOM     17  C   UNL     1       2.130  -2.339   1.464  0.00  0.00    +0.122 A 
ATOM     18  C   UNL     1       2.434  -0.992   1.337  0.00  0.00    +0.019 A 
ATOM     19  C   UNL     1       2.759  -0.250   2.456  0.00  0.00    +0.009 A 
BRANCH  17  20
ATOM     20  O   UNL     1       1.804  -3.070   0.365  0.00  0.00    -0.506 OA
ATOM     21  H   UNL     1       2.567  -3.425  -0.111  0.00  0.00    +0.292 HD
ENDBRANCH  17  20
ENDBRANCH   1  18
BRANCH   1  22
ATOM     22  N   UNL     1       2.195   1.106   0.140  0.00  0.00    -0.319 N 
ATOM     23  H   UNL     1       2.955   1.707   0.149  0.00  0.00    +0.148 HD
BRANCH  22  24
ATOM     24  C   UNL     1       0.907   1.611   0.278  0.00  0.00    +0.097 A 
ATOM     25  C   UNL     1      -0.180   0.743   0.264  0.00  0.00    +0.041 A 
ATOM     26  C   UNL     1      -1.456   1.260   0.396  0.00  0.00    +0.005 A 
ATOM     27  C   UNL     1      -1.602   2.632   0.550  0.00  0.00    +0.018 A 
ATOM     28  C   UNL     1      -0.479   3.435   0.554  0.00  0.00    +0.084 A 
ATOM     29  N   UNL     1       0.789   2.963   0.421  0.00  0.00    -0.350 N 
ATOM     30  H   UNL     1       1.606   3.584   0.428  0.00  0.00    +0.166 HD
ENDBRANCH  22  24
ENDBRANCH   1  22
TORSDOF 6
