REMARK  Name = ZINC51149490
REMARK  6 active torsions:
REMARK  status: ('A' for Active; 'I' for Inactive)
REMARK    1  A    between atoms: C_6  and  O_7
REMARK    2  A    between atoms: O_7  and  C_8
REMARK    3  A    between atoms: C_8  and  C_9
REMARK    4  A    between atoms: C_11  and  N_17
REMARK    5  A    between atoms: C_14  and  N_15
REMARK    6  A    between atoms: N_15  and  N_16
REMARK                            x       y       z     vdW  Elec       q    Type
REMARK                         _______ _______ _______ _____ _____    ______ ____
ROOT
ATOM      1  C   UNL     1      -2.454  -2.722   0.012  0.00  0.00    +0.014 A 
ATOM      2  C   UNL     1      -3.562  -1.898   0.021  0.00  0.00    +0.041 A 
ATOM      3  C   UNL     1      -4.832  -2.444   0.031  0.00  0.00    +0.127 A 
ATOM      4  C   UNL     1      -4.998  -3.817   0.031  0.00  0.00    +0.034 A 
ATOM      5  C   UNL     1      -3.894  -4.647   0.021  0.00  0.00    +0.027 A 
ATOM      6  C   UNL     1      -2.617  -4.102   0.006  0.00  0.00    +0.047 A 
ENDROOT
BRANCH   3   7
ATOM      7  N   UNL     1      -6.017  -1.557   0.042  0.00  0.00    +0.056 N 
ATOM      8  O   UNL     1      -5.873  -0.356   0.042  0.00  0.00    -0.126 OA
ATOM      9  O   UNL     1      -7.128  -2.033   0.050  0.00  0.00    -0.126 OA
ENDBRANCH   3   7
BRANCH   6  10
ATOM     10  N   UNL     1      -1.498  -4.939  -0.009  0.00  0.00    -0.283 N 
ATOM     11  H   UNL     1      -0.607  -4.557  -0.016  0.00  0.00    +0.166 HD
BRANCH  10  12
ATOM     12  N   UNL     1      -1.661  -6.295  -0.015  0.00  0.00    -0.257 NA
ATOM     13  H   UNL     1      -2.234  -6.587  -0.792  0.00  0.00    +0.140 HD
ATOM     14  H   UNL     1      -0.768  -6.766  -0.027  0.00  0.00    +0.140 HD
ENDBRANCH  10  12
ENDBRANCH   6  10
BRANCH   1  15
ATOM     15  C   UNL     1      -1.070  -2.126   0.001  0.00  0.00    +0.266 C 
BRANCH  15  16
ATOM     16  O   UNL     1      -1.165  -0.701   0.010  0.00  0.00    -0.487 OA
BRANCH  16  22
ATOM     17  C   UNL     1      -0.017   1.383   0.010  0.00  0.00    +0.046 A 
ATOM     18  C   UNL     1       1.171   2.089   0.002  0.00  0.00    +0.018 A 
ATOM     19  C   UNL     1       2.378   1.414  -0.013  0.00  0.00    +0.014 A 
ATOM     20  C   UNL     1       2.399   0.031  -0.021  0.00  0.00    +0.018 A 
ATOM     21  C   UNL     1       1.214  -0.679  -0.014  0.00  0.00    +0.046 A 
ATOM     22  C   UNL     1       0.002  -0.004   0.002  0.00  0.00    +0.121 A 
ATOM     23  I   UNL     1       4.177   2.487  -0.025  0.00  0.00    -0.044 I 
ENDBRANCH  16  22
ENDBRANCH  15  16
ENDBRANCH   1  15
TORSDOF 6
