REMARK  Name = ZINC53104057
REMARK  7 active torsions:
REMARK  status: ('A' for Active; 'I' for Inactive)
REMARK    1  A    between atoms: C_1  and  C_2
REMARK    2  A    between atoms: C_7  and  C_9
REMARK    3  A    between atoms: C_7  and  N_11
REMARK    4  A    between atoms: C_9  and  O_10
REMARK    5  A    between atoms: C_12  and  C_14
REMARK    6  A    between atoms: C_16  and  N_20
REMARK    7  A    between atoms: N_18  and  C_19
REMARK                            x       y       z     vdW  Elec       q    Type
REMARK                         _______ _______ _______ _____ _____    ______ ____
ROOT
ATOM      1  N   UNL     1       0.330   1.446   3.441  0.00  0.00    -0.302 N 
ATOM      2  C   UNL     1       1.465   2.133   3.199  0.00  0.00    +0.261 C 
ATOM      3  O   UNL     1       2.529   1.547   3.136  0.00  0.00    -0.269 OA
ATOM      4  H   UNL     1      -0.511   1.919   3.539  0.00  0.00    +0.150 HD
ENDROOT
BRANCH   1  10
ATOM      5  C   UNL     1       0.077   1.310   0.958  0.00  0.00    +0.007 C 
ATOM      6  C   UNL     1       0.117  -0.214   1.077  0.00  0.00    -0.012 C 
ATOM      7  C   UNL     1      -1.304  -0.749   1.265  0.00  0.00    +0.003 C 
ATOM      8  C   UNL     1      -1.909  -0.153   2.538  0.00  0.00    +0.002 C 
ATOM      9  C   UNL     1      -1.053  -0.548   3.743  0.00  0.00    +0.028 C 
ATOM     10  C   UNL     1       0.368  -0.014   3.555  0.00  0.00    +0.058 C 
ATOM     11  C   UNL     1       0.974  -0.609   2.282  0.00  0.00    +0.031 C 
BRANCH  10  12
ATOM     12  C   UNL     1       1.225  -0.408   4.760  0.00  0.00    +0.181 C 
BRANCH  12  13
ATOM     13  O   UNL     1       0.668   0.161   5.947  0.00  0.00    -0.393 OA
ATOM     14  H   UNL     1       1.161  -0.049   6.752  0.00  0.00    +0.209 HD
ENDBRANCH  12  13
ENDBRANCH  10  12
ENDBRANCH   1  10
BRANCH   2  15
ATOM     15  C   UNL     1       1.416   3.587   3.011  0.00  0.00    +0.106 A 
ATOM     16  C   UNL     1       2.497   4.422   2.825  0.00  0.00    +0.065 A 
ATOM     17  C   UNL     1       1.996   5.720   2.688  0.00  0.00    +0.144 A 
ATOM     18  C   UNL     1       0.646   5.657   2.791  0.00  0.00    +0.118 A 
ATOM     19  N   UNL     1       0.281   4.366   2.982  0.00  0.00    -0.344 N 
ATOM     20  C   UNL     1      -1.093   3.881   3.136  0.00  0.00    +0.149 C 
BRANCH  17  21
ATOM     21  N   UNL     1       2.797   6.945   2.471  0.00  0.00    +0.058 N 
ATOM     22  O   UNL     1       4.002   6.874   2.396  0.00  0.00    -0.126 OA
ATOM     23  O   UNL     1       2.247   8.017   2.367  0.00  0.00    -0.126 OA
ENDBRANCH  17  21
ENDBRANCH   2  15
TORSDOF 5
