REMARK  Name = ZINC64561753
REMARK  6 active torsions:
REMARK  status: ('A' for Active; 'I' for Inactive)
REMARK    1  A    between atoms: C_1  and  N_2
REMARK    2  A    between atoms: C_3  and  C_5
REMARK    3  A    between atoms: C_9  and  C_11
REMARK    4  A    between atoms: C_11  and  N_12
REMARK    5  A    between atoms: N_15  and  C_16
REMARK    6  A    between atoms: N_25  and  C_26
REMARK                            x       y       z     vdW  Elec       q    Type
REMARK                         _______ _______ _______ _____ _____    ______ ____
ROOT
ATOM      1  N   UNL     1      -4.009  -5.308   1.378  0.00  0.00    -0.295 N 
ATOM      2  C   UNL     1      -5.147  -5.986   1.626  0.00  0.00    +0.304 C 
ATOM      3  O   UNL     1      -5.833  -6.381   0.703  0.00  0.00    -0.252 OA
ATOM      4  N   UNL     1      -5.526  -6.226   2.897  0.00  0.00    -0.269 N 
ATOM      5  H   UNL     1      -3.462  -4.993   2.115  0.00  0.00    +0.151 HD
ATOM      6  H   UNL     1      -4.947  -5.970   3.632  0.00  0.00    +0.156 HD
ENDROOT
BRANCH   4   7
ATOM      7  C   UNL     1      -6.757  -6.844   3.157  0.00  0.00    +0.035 A 
ATOM      8  C   UNL     1      -7.238  -7.822   2.296  0.00  0.00    +0.025 A 
ATOM      9  C   UNL     1      -8.450  -8.428   2.554  0.00  0.00    +0.025 A 
ATOM     10  C   UNL     1      -9.189  -8.062   3.674  0.00  0.00    +0.033 A 
ATOM     11  C   UNL     1      -8.710  -7.088   4.536  0.00  0.00    -0.025 A 
ATOM     12  C   UNL     1      -7.491  -6.484   4.277  0.00  0.00    +0.028 A 
ATOM     13  C   UNL     1      -9.479  -6.676   5.763  0.00  0.00    +0.038 C 
ATOM     14  C   UNL     1     -10.954  -7.051   5.622  0.00  0.00    +0.024 C 
ATOM     15  C   UNL     1     -11.055  -8.530   5.228  0.00  0.00    +0.105 C 
ATOM     16  N   UNL     1     -10.421  -8.688   3.912  0.00  0.00    -0.333 N 
ATOM     17  C   UNL     1     -11.064  -9.488   2.866  0.00  0.00    +0.129 C 
ENDBRANCH   4   7
BRANCH   1  18
ATOM     18  C   UNL     1      -3.598  -5.047  -0.003  0.00  0.00    +0.141 C 
BRANCH  18  23
ATOM     19  C   UNL     1      -1.117  -2.189   0.005  0.00  0.00    +0.037 A 
ATOM     20  C   UNL     1       0.095  -2.881  -0.009  0.00  0.00    +0.013 A 
ATOM     21  C   UNL     1       0.099  -4.260  -0.020  0.00  0.00    +0.001 A 
ATOM     22  C   UNL     1      -1.096  -4.958  -0.018  0.00  0.00    +0.005 A 
ATOM     23  C   UNL     1      -2.301  -4.279  -0.005  0.00  0.00    -0.030 A 
ATOM     24  C   UNL     1      -2.319  -2.899   0.012  0.00  0.00    +0.018 A 
BRANCH  19  27
ATOM     25  C   UNL     1       0.022   1.437   0.022  0.00  0.00    +0.128 C 
ATOM     26  N   UNL     1       0.034  -0.028   0.009  0.00  0.00    -0.314 N 
ATOM     27  C   UNL     1      -1.129  -0.711   0.017  0.00  0.00    +0.244 C 
ATOM     28  O   UNL     1      -2.186  -0.111   0.034  0.00  0.00    -0.270 OA
ATOM     29  H   UNL     1       0.877  -0.506  -0.004  0.00  0.00    +0.149 HD
ENDBRANCH  19  27
ENDBRANCH  18  23
ENDBRANCH   1  18
TORSDOF 4
