REMARK  Name = ZINC37841914
REMARK  5 active torsions:
REMARK  status: ('A' for Active; 'I' for Inactive)
REMARK    1  A    between atoms: C_8  and  C_9
REMARK    2  A    between atoms: C_15  and  C_18
REMARK    3  A    between atoms: C_18  and  N_19
REMARK    4  A    between atoms: N_19  and  S_20
REMARK    5  A    between atoms: S_20  and  N_23
REMARK                            x       y       z     vdW  Elec       q    Type
REMARK                         _______ _______ _______ _____ _____    ______ ____
ROOT
ATOM      1  C   UNL     1      -1.261  -0.764   0.011  0.00  0.00    +0.248 C 
ATOM      2  O   UNL     1      -0.223  -0.138   0.098  0.00  0.00    -0.270 OA
ATOM      3  N   UNL     1      -2.437  -0.111  -0.076  0.00  0.00    -0.297 N 
ATOM      4  C   UNL     1      -2.473   1.354  -0.185  0.00  0.00    +0.108 C 
ATOM      5  C   UNL     1      -3.384   1.908   0.915  0.00  0.00    +0.019 C 
ATOM      6  C   UNL     1      -4.756   1.236   0.823  0.00  0.00    +0.008 C 
ATOM      7  C   UNL     1      -4.603  -0.271   1.036  0.00  0.00    +0.022 C 
ATOM      8  C   UNL     1      -3.707  -0.851  -0.069  0.00  0.00    +0.113 C 
ENDROOT
BRANCH   1  16
ATOM      9  C   UNL     1      -1.002  -2.958   1.196  0.00  0.00    +0.020 A 
ATOM     10  C   UNL     1      -0.983  -4.317   1.156  0.00  0.00    +0.071 A 
ATOM     11  C   UNL     1      -1.194  -4.977  -0.069  0.00  0.00    +0.249 A 
ATOM     12  O   UNL     1      -1.178  -6.196  -0.110  0.00  0.00    -0.268 OA
ATOM     13  N   UNL     1      -1.413  -4.274  -1.195  0.00  0.00    -0.328 N 
ATOM     14  H   UNL     1      -1.556  -4.744  -2.031  0.00  0.00    +0.168 HD
ATOM     15  C   UNL     1      -1.436  -2.928  -1.179  0.00  0.00    +0.099 A 
ATOM     16  C   UNL     1      -1.234  -2.239  -0.001  0.00  0.00    +0.053 A 
ENDBRANCH   1  16
BRANCH   7  17
ATOM     17  C   UNL     1      -5.979  -0.937   0.976  0.00  0.00    +0.112 C 
BRANCH  17  18
ATOM     18  N   UNL     1      -5.848  -2.360   1.298  0.00  0.00    -0.180 NA
ATOM     19  H   UNL     1      -4.973  -2.780   1.291  0.00  0.00    +0.149 HD
BRANCH  18  20
ATOM     20  S   UNL     1      -7.191  -3.252   1.675  0.00  0.00    +0.092 S 
ATOM     21  O   UNL     1      -6.745  -4.581   1.908  0.00  0.00    -0.142 OA
ATOM     22  O   UNL     1      -7.912  -2.509   2.649  0.00  0.00    -0.142 OA
BRANCH  20  23
ATOM     23  N   UNL     1      -8.141  -3.303   0.320  0.00  0.00    -0.193 NA
ATOM     24  H   UNL     1      -8.712  -4.070   0.156  0.00  0.00    +0.145 HD
ATOM     25  H   UNL     1      -8.128  -2.565  -0.310  0.00  0.00    +0.145 HD
ENDBRANCH  20  23
ENDBRANCH  18  20
ENDBRANCH  17  18
ENDBRANCH   7  17
TORSDOF 5
