REMARK  Name = ZINC01044267
REMARK  5 active torsions:
REMARK  status: ('A' for Active; 'I' for Inactive)
REMARK    1  A    between atoms: N_9  and  C1*_10
REMARK    2  A    between atoms: C2*_12  and  O2*_22
REMARK    3  A    between atoms: C3*_14  and  O3*_21
REMARK    4  A    between atoms: C4*_16  and  C5*_19
REMARK    5  A    between atoms: C5*_19  and  O5*_20
REMARK                            x       y       z     vdW  Elec       q    Type
REMARK                         _______ _______ _______ _____ _____    ______ ____
ROOT
ATOM      1  C1* UNL     1      -1.299   2.049   0.019  0.00  0.00    +0.255 C 
ATOM      2  C2* UNL     1      -1.468   2.853   1.334  0.00  0.00    +0.195 C 
ATOM      3  C3* UNL     1      -3.008   2.967   1.448  0.00  0.00    +0.178 C 
ATOM      4  C4* UNL     1      -3.538   1.822   0.564  0.00  0.00    +0.177 C 
ATOM      5  O4* UNL     1      -2.397   1.113   0.054  0.00  0.00    -0.346 OA
ENDROOT
BRANCH   1  14
ATOM      6  C   UNL     1       1.152   2.054   0.002  0.00  0.00    +0.113 A 
ATOM      7  C   UNL     1       2.334   1.401  -0.013  0.00  0.00    +0.094 A 
ATOM      8  C   UNL     1       2.338  -0.015  -0.021  0.00  0.00    +0.267 A 
ATOM      9  O   UNL     1       3.392  -0.626  -0.035  0.00  0.00    -0.267 OA
ATOM     10  N   UNL     1       1.166  -0.680  -0.013  0.00  0.00    -0.274 N 
ATOM     11  H   UNL     1       1.161  -1.680  -0.018  0.00  0.00    +0.173 HD
ATOM     12  C   UNL     1       0.002  -0.004   0.002  0.00  0.00    +0.331 A 
ATOM     13  O   UNL     1      -1.048  -0.618   0.009  0.00  0.00    -0.246 OA
ATOM     14  N   UNL     1      -0.016   1.341   0.009  0.00  0.00    -0.270 N 
ATOM     15  I   UNL     1       4.137   2.469  -0.025  0.00  0.00    -0.037 I 
ENDBRANCH   1  14
BRANCH   3  16
ATOM     16  O3* UNL     1      -3.423   2.787   2.803  0.00  0.00    -0.386 OA
ATOM     17  H3* UNL     1      -4.383   2.791   2.924  0.00  0.00    +0.210 HD
ENDBRANCH   3  16
BRANCH   2  18
ATOM     18  O2* UNL     1      -0.868   4.145   1.222  0.00  0.00    -0.385 OA
ATOM     19  H2* UNL     1      -0.948   4.686   2.020  0.00  0.00    +0.210 HD
ENDBRANCH   2  18
BRANCH   4  20
ATOM     20  C5* UNL     1      -4.408   0.878   1.396  0.00  0.00    +0.190 C 
BRANCH  20  21
ATOM     21  O5* UNL     1      -4.975  -0.121   0.546  0.00  0.00    -0.392 OA
ATOM     22  H5* UNL     1      -5.540  -0.755   1.008  0.00  0.00    +0.210 HD
ENDBRANCH  20  21
ENDBRANCH   4  20
TORSDOF 5
