REMARK  Name = ZINC13732549
REMARK  15 active torsions:
REMARK  status: ('A' for Active; 'I' for Inactive)
REMARK    1  A    between atoms: C_1  and  C_2
REMARK    2  A    between atoms: C_3  and  C_9
REMARK    3  A    between atoms: C_4  and  C_8
REMARK    4  A    between atoms: N_5  and  C_7
REMARK    5  A    between atoms: C_9  and  C_11
REMARK    6  A    between atoms: N_15  and  C_28
REMARK    7  A    between atoms: C_16  and  C_18
REMARK    8  A    between atoms: C_21  and  C_24
REMARK    9  A    between atoms: C_24  and  O_26
REMARK   10  A    between atoms: O_26  and  C_27
REMARK   11  A    between atoms: C_28  and  C_29
REMARK   12  A    between atoms: C_29  and  C_30
REMARK   13  A    between atoms: C_30  and  N_31
REMARK   14  A    between atoms: N_31  and  C_32
REMARK   15  A    between atoms: N_31  and  C_33
REMARK                            x       y       z     vdW  Elec       q    Type
REMARK                         _______ _______ _______ _____ _____    ______ ____
ROOT
ATOM      1  C   UNL     1       0.535  -5.052   0.856  0.00  0.00    +0.076 C 
ATOM      2  C   UNL     1       0.457  -6.286   1.403  0.00  0.00    +0.249 C 
ATOM      3  C   UNL     1       0.306  -7.287   0.327  0.00  0.00    +0.288 C 
ATOM      4  O   UNL     1       0.207  -8.486   0.498  0.00  0.00    -0.266 OA
ATOM      5  N   UNL     1       0.300  -6.676  -0.871  0.00  0.00    -0.284 N 
ATOM      6  C   UNL     1       0.442  -5.233  -0.642  0.00  0.00    +0.145 C 
ATOM      7  O   UNL     1       0.507  -6.561   2.728  0.00  0.00    -0.282 OA
ENDROOT
BRANCH   6   8
ATOM      8  C   UNL     1       1.696  -4.724  -1.304  0.00  0.00    -0.022 A 
ATOM      9  C   UNL     1       2.883  -5.420  -1.158  0.00  0.00    +0.006 A 
ATOM     10  C   UNL     1       4.034  -4.963  -1.766  0.00  0.00    +0.015 A 
ATOM     11  C   UNL     1       4.002  -3.788  -2.520  0.00  0.00    +0.059 A 
ATOM     12  C   UNL     1       2.802  -3.087  -2.658  0.00  0.00    +0.015 A 
ATOM     13  C   UNL     1       1.657  -3.559  -2.050  0.00  0.00    +0.006 A 
BRANCH  11  14
ATOM     14  C   UNL     1       5.231  -3.288  -3.168  0.00  0.00    +0.339 C 
ATOM     15  O   UNL     1       5.200  -2.266  -3.824  0.00  0.00    -0.245 OA
BRANCH  14  16
ATOM     16  O   UNL     1       6.388  -3.967  -3.033  0.00  0.00    -0.464 OA
ATOM     17  C   UNL     1       7.556  -3.417  -3.697  0.00  0.00    +0.280 C 
ENDBRANCH  14  16
ENDBRANCH  11  14
ENDBRANCH   6   8
BRANCH   1  18
ATOM     18  C   UNL     1       0.686  -3.783   1.576  0.00  0.00    +0.199 C 
ATOM     19  O   UNL     1       1.765  -3.221   1.598  0.00  0.00    -0.287 OA
BRANCH  18  22
ATOM     20  C   UNL     1      -2.295  -4.873   1.497  0.00  0.00    +0.068 C 
ATOM     21  C   UNL     1      -1.800  -3.663   2.248  0.00  0.00    +0.071 A 
ATOM     22  C   UNL     1      -0.469  -3.189   2.273  0.00  0.00    +0.065 A 
ATOM     23  C   UNL     1      -0.454  -2.063   3.075  0.00  0.00    +0.047 A 
ATOM     24  N   UNL     1      -1.708  -1.865   3.513  0.00  0.00    -0.271 N 
ATOM     25  N   UNL     1      -2.525  -2.874   2.991  0.00  0.00    -0.176 NA
ATOM     26  C   UNL     1      -2.145  -0.780   4.395  0.00  0.00    +0.172 C 
ATOM     27  C   UNL     1       0.749  -1.215   3.399  0.00  0.00    +0.066 C 
ENDBRANCH  18  22
ENDBRANCH   1  18
BRANCH   5  28
ATOM     28  C   UNL     1       0.173  -7.333  -2.175  0.00  0.00    +0.107 C 
BRANCH  28  29
ATOM     29  C   UNL     1       1.564  -7.691  -2.702  0.00  0.00    +0.000 C 
BRANCH  29  30
ATOM     30  C   UNL     1       1.432  -8.377  -4.063  0.00  0.00    -0.078 C 
BRANCH  30  31
ATOM     31  N   UNL     1       2.768  -8.722  -4.569  0.00  0.00    +0.376 N 
ATOM     32  C   UNL     1       3.405  -9.741  -3.724  0.00  0.00    -0.097 C 
ATOM     33  C   UNL     1       2.702  -9.164  -5.969  0.00  0.00    -0.097 C 
ATOM     34  H   UNL     1       3.388  -7.814  -4.530  0.00  0.00    -0.083 HD
ENDBRANCH  30  31
ENDBRANCH  29  30
ENDBRANCH  28  29
ENDBRANCH   5  28
TORSDOF 9
