REMARK  Name = ZINC66818283
REMARK  9 active torsions:
REMARK  status: ('A' for Active; 'I' for Inactive)
REMARK    1  A    between atoms: C_1  and  C_2
REMARK    2  A    between atoms: C_3  and  C_25
REMARK    3  A    between atoms: C_7  and  C_8
REMARK    4  A    between atoms: N_10  and  C_11
REMARK    5  A    between atoms: C_11  and  C_13
REMARK    6  A    between atoms: C_11  and  C_14
REMARK    7  A    between atoms: C_18  and  S_20
REMARK    8  A    between atoms: S_20  and  N_23
REMARK    9  A    between atoms: N_23  and  C_24
REMARK                            x       y       z     vdW  Elec       q    Type
REMARK                         _______ _______ _______ _____ _____    ______ ____
ROOT
ATOM      1  C   UNL     1       0.072  -4.374   2.149  0.00  0.00    +0.099 C 
ATOM      2  C   UNL     1      -1.359  -4.894   1.995  0.00  0.00    +0.033 C 
ENDROOT
BRANCH   1  10
ATOM      3  C   UNL     1      -0.018   1.503   0.010  0.00  0.00    +0.047 C 
ATOM      4  C   UNL     1       0.002  -0.004   0.002  0.00  0.00    -0.007 A 
ATOM      5  C   UNL     1       0.006  -0.712  -1.188  0.00  0.00    +0.065 A 
ATOM      6  N   UNL     1       0.025  -2.030  -1.175  0.00  0.00    -0.152 NA
ATOM      7  N   UNL     1       0.039  -2.712  -0.089  0.00  0.00    -0.133 NA
ATOM      8  C   UNL     1       0.037  -2.138   1.105  0.00  0.00    +0.159 A 
ATOM      9  C   UNL     1       0.023  -0.733   1.198  0.00  0.00    +0.098 A 
ATOM     10  N   UNL     1       0.053  -2.913   2.253  0.00  0.00    -0.320 N 
ATOM     11  C   UNL     1      -0.011   0.026  -2.502  0.00  0.00    +0.068 C 
ATOM     12  H   UNL     1       0.051  -2.489   3.125  0.00  0.00    +0.148 HD
BRANCH   9  13
ATOM     13  C   UNL     1       0.026  -0.073   2.469  0.00  0.00    +0.103 C 
ATOM     14  N   UNL     1       0.029   0.450   3.477  0.00  0.00    -0.191 NA
ENDBRANCH   9  13
ENDBRANCH   1  10
BRANCH   1  15
ATOM     15  C   UNL     1       0.686  -4.958   3.396  0.00  0.00    -0.026 A 
ATOM     16  C   UNL     1       0.387  -4.417   4.632  0.00  0.00    +0.005 A 
ATOM     17  C   UNL     1       0.950  -4.952   5.775  0.00  0.00    +0.002 A 
ATOM     18  C   UNL     1       1.813  -6.029   5.682  0.00  0.00    +0.028 A 
ATOM     19  C   UNL     1       2.111  -6.570   4.446  0.00  0.00    +0.106 A 
ATOM     20  C   UNL     1       1.544  -6.038   3.303  0.00  0.00    +0.034 A 
BRANCH  19  21
ATOM     21  S   UNL     1       3.210  -7.942   4.327  0.00  0.00    +0.058 S 
ATOM     22  O   UNL     1       3.751  -7.917   3.014  0.00  0.00    -0.153 OA
ATOM     23  O   UNL     1       4.028  -7.910   5.489  0.00  0.00    -0.153 OA
BRANCH  21  24
ATOM     24  N   UNL     1       2.292  -9.316   4.434  0.00  0.00    -0.193 NA
ATOM     25  C   UNL     1       1.315  -9.628   3.386  0.00  0.00    +0.127 C 
ATOM     26  H   UNL     1       2.400  -9.915   5.189  0.00  0.00    +0.148 HD
ENDBRANCH  21  24
ENDBRANCH  19  21
ENDBRANCH   1  15
TORSDOF 5
