REMARK  Name = ZINC26996682
REMARK  9 active torsions:
REMARK  status: ('A' for Active; 'I' for Inactive)
REMARK    1  A    between atoms: C_3  and  O_31
REMARK    2  A    between atoms: C_4  and  C_23
REMARK    3  A    between atoms: C_6  and  O_7
REMARK    4  A    between atoms: O_7  and  C_8
REMARK    5  A    between atoms: C_11  and  C_15
REMARK    6  A    between atoms: C_15  and  CA_16
REMARK    7  A    between atoms: CA_16  and  C_18
REMARK    8  A    between atoms: CA_16  and  N_21
REMARK    9  A    between atoms: C_23  and  C_24
REMARK                            x       y       z     vdW  Elec       q    Type
REMARK                         _______ _______ _______ _____ _____    ______ ____
ROOT
ATOM      1  O   UNL     1      -1.165  -0.701   0.010  0.00  0.00    -0.453 OA
ENDROOT
BRANCH   1   2
ATOM      2  C   UNL     1       0.002  -0.004   0.002  0.00  0.00    +0.165 A 
ATOM      3  C   UNL     1      -0.017   1.384   0.010  0.00  0.00    +0.085 A 
ATOM      4  C   UNL     1       1.172   2.090   0.002  0.00  0.00    +0.027 A 
ATOM      5  C   UNL     1       2.378   1.415  -0.013  0.00  0.00    -0.045 A 
ATOM      6  C   UNL     1       2.400   0.033  -0.021  0.00  0.00    +0.027 A 
ATOM      7  C   UNL     1       1.215  -0.679  -0.013  0.00  0.00    +0.085 A 
ATOM      8 CL   UNL     1       1.244  -2.415  -0.023  0.00  0.00    -0.080 Cl
ATOM      9 CL   UNL     1      -1.531   2.232   0.021  0.00  0.00    -0.080 Cl
BRANCH   5  10
ATOM     10  C   UNL     1       3.672   2.188  -0.021  0.00  0.00    +0.030 C 
BRANCH  10  11
ATOM     11  CA  UNL     1       4.096   2.457  -1.466  0.00  0.00    +0.045 C 
BRANCH  11  12
ATOM     12  N   UNL     1       3.113   3.339  -2.109  0.00  0.00    +0.387 N 
ATOM     13  H1  UNL     1       3.418   3.533  -3.148  0.00  0.00    -0.089 HD
ATOM     14  H2  UNL     1       3.059   4.290  -1.559  0.00  0.00    -0.089 HD
ATOM     15  H3  UNL     1       2.125   2.854  -2.101  0.00  0.00    -0.089 HD
ENDBRANCH  11  12
BRANCH  11  16
ATOM     16  C   UNL     1       5.449   3.121  -1.478  0.00  0.00    +0.342 C 
ATOM     17  O   UNL     1       5.534   4.317  -1.624  0.00  0.00    -0.248 OA
ATOM     18  OXT UNL     1       6.560   2.383  -1.324  0.00  0.00    -0.248 OA
ENDBRANCH  11  16
ENDBRANCH  10  11
ENDBRANCH   5  10
ENDBRANCH   1   2
BRANCH   1  24
ATOM     19  C   UNL     1      -1.108  -0.634  -2.367  0.00  0.00    +0.050 A 
ATOM     20  C   UNL     1      -1.674  -0.965  -3.583  0.00  0.00    +0.049 A 
ATOM     21  C   UNL     1      -2.865  -1.676  -3.623  0.00  0.00    +0.121 A 
ATOM     22  C   UNL     1      -3.484  -2.058  -2.443  0.00  0.00    +0.002 A 
ATOM     23  C   UNL     1      -2.916  -1.732  -1.227  0.00  0.00    +0.053 A 
ATOM     24  C   UNL     1      -1.725  -1.022  -1.187  0.00  0.00    +0.129 A 
BRANCH  21  25
ATOM     25  O   UNL     1      -3.424  -1.997  -4.820  0.00  0.00    -0.506 OA
ATOM     26  H   UNL     1      -4.368  -2.561  -4.852  0.00  0.00    +0.292 HD
ENDBRANCH  21  25
BRANCH  22  27
ATOM     27  C   UNL     1      -4.778  -2.830  -2.487  0.00  0.00    +0.075 C 
BRANCH  27  28
ATOM     28  C   UNL     1      -5.921  -1.881  -2.735  0.00  0.00    -0.027 A 
ATOM     29  C   UNL     1      -6.320  -1.585  -4.031  0.00  0.00    +0.010 A 
ATOM     30  C   UNL     1      -7.371  -0.704  -4.214  0.00  0.00    +0.070 A 
ATOM     31  C   UNL     1      -7.988  -0.148  -3.101  0.00  0.00    +0.249 A 
ATOM     32  N   UNL     1      -7.584  -0.459  -1.881  0.00  0.00    -0.329 N 
ATOM     33  C   UNL     1      -6.584  -1.295  -1.675  0.00  0.00    +0.089 A 
ATOM     34  O   UNL     1      -9.020   0.717  -3.267  0.00  0.00    -0.268 OA
ATOM     35  H   UNL     1      -8.084  -0.017  -1.006  0.00  0.00    +0.168 HD
ENDBRANCH  27  28
ENDBRANCH  22  27
ENDBRANCH   1  24
TORSDOF 9
