REMARK  Name = ZINC04373154
REMARK  5 active torsions:
REMARK  status: ('A' for Active; 'I' for Inactive)
REMARK    1  A    between atoms: C_1  and  C_2
REMARK    2  A    between atoms: C_5  and  N_8
REMARK    3  A    between atoms: C_10  and  N_15
REMARK    4  A    between atoms: N_18  and  C_19
REMARK    5  A    between atoms: C_19  and  C_20
REMARK                            x       y       z     vdW  Elec       q    Type
REMARK                         _______ _______ _______ _____ _____    ______ ____
ROOT
ATOM      1  N   UNL     1       6.313   1.373  -3.375  0.00  0.00    -0.295 N 
ATOM      2  C   UNL     1       5.577   1.904  -2.379  0.00  0.00    +0.300 C 
ATOM      3  O   UNL     1       6.049   2.772  -1.670  0.00  0.00    -0.253 OA
ATOM      4  N   UNL     1       4.316   1.475  -2.169  0.00  0.00    -0.296 N 
ATOM      5  H   UNL     1       5.936   0.681  -3.941  0.00  0.00    +0.151 HD
ATOM      6  H   UNL     1       3.939   0.783  -2.735  0.00  0.00    +0.150 HD
ENDROOT
BRANCH   1   9
ATOM      7  N   UNL     1       9.586   1.137  -4.881  0.00  0.00    -0.270 N 
ATOM      8  C   UNL     1       8.164   1.468  -5.024  0.00  0.00    +0.136 C 
ATOM      9  C   UNL     1       7.682   1.839  -3.603  0.00  0.00    +0.101 C 
ATOM     10  C   UNL     1       8.686   1.065  -2.718  0.00  0.00    +0.120 C 
ATOM     11  C   UNL     1       9.906   0.900  -3.597  0.00  0.00    +0.222 C 
ATOM     12  O   UNL     1      11.012   0.598  -3.201  0.00  0.00    -0.275 OA
BRANCH   7  17
ATOM     13  C   UNL     1      13.264   0.889  -9.194  0.00  0.00    +0.044 C 
ATOM     14  C   UNL     1      12.287   0.955  -8.048  0.00  0.00    -0.050 A 
ATOM     15  C   UNL     1      10.942   1.158  -8.299  0.00  0.00    +0.005 A 
ATOM     16  C   UNL     1      10.044   1.219  -7.251  0.00  0.00    +0.024 A 
ATOM     17  C   UNL     1      10.493   1.076  -5.944  0.00  0.00    +0.036 A 
ATOM     18  C   UNL     1      11.845   0.878  -5.696  0.00  0.00    +0.024 A 
ATOM     19  C   UNL     1      12.737   0.812  -6.748  0.00  0.00    +0.005 A 
ENDBRANCH   7  17
ENDBRANCH   1   9
BRANCH   4  20
ATOM     20  C   UNL     1       3.516   2.053  -1.087  0.00  0.00    +0.153 C 
BRANCH  20  21
ATOM     21  C   UNL     1       2.135   1.394  -1.066  0.00  0.00    +0.228 C 
ATOM     22  C   UNL     1       1.260   2.061   0.004  0.00  0.00    +0.275 C 
ATOM     23  O   UNL     1      -0.017   1.414   0.006  0.00  0.00    -0.485 OA
ATOM     24  C   UNL     1      -0.013   0.053  -0.014  0.00  0.00    +0.162 A 
ATOM     25  C   UNL     1      -1.161  -0.637   0.345  0.00  0.00    +0.049 A 
ATOM     26  C   UNL     1      -1.173  -2.019   0.327  0.00  0.00    +0.004 A 
ATOM     27  C   UNL     1      -0.041  -2.717  -0.048  0.00  0.00    +0.004 A 
ATOM     28  C   UNL     1       1.107  -2.036  -0.406  0.00  0.00    +0.049 A 
ATOM     29  C   UNL     1       1.127  -0.650  -0.389  0.00  0.00    +0.163 A 
ATOM     30  O   UNL     1       2.267   0.007  -0.737  0.00  0.00    -0.480 OA
ENDBRANCH  20  21
ENDBRANCH   4  20
TORSDOF 4
