REMARK  Name = ZINC62497568
REMARK  5 active torsions:
REMARK  status: ('A' for Active; 'I' for Inactive)
REMARK    1  A    between atoms: C_2  and  C_3
REMARK    2  A    between atoms: C_3  and  N_4
REMARK    3  A    between atoms: C_7  and  N_24
REMARK    4  A    between atoms: C_12  and  C_16
REMARK    5  A    between atoms: C_16  and  C_17
REMARK                            x       y       z     vdW  Elec       q    Type
REMARK                         _______ _______ _______ _____ _____    ______ ____
ROOT
ATOM      1  N   UNL     1       1.357   1.975  -0.000  0.00  0.00    -0.253 N 
ATOM      2  C   UNL     1       2.035   2.208   1.204  0.00  0.00    +0.081 A 
ATOM      3  C   UNL     1       1.355   2.184   2.410  0.00  0.00    +0.050 A 
ATOM      4  C   UNL     1       2.039   2.431   3.593  0.00  0.00    +0.027 A 
ATOM      5  C   UNL     1       3.401   2.701   3.565  0.00  0.00    +0.026 A 
ATOM      6  C   UNL     1       4.080   2.720   2.361  0.00  0.00    +0.049 A 
ATOM      7  C   UNL     1       3.404   2.469   1.180  0.00  0.00    +0.143 A 
ATOM      8  O   UNL     1       4.072   2.454  -0.006  0.00  0.00    -0.477 OA
ATOM      9  C   UNL     1       3.345   2.870  -1.164  0.00  0.00    +0.263 C 
ATOM     10  C   UNL     1       1.986   2.217  -1.169  0.00  0.00    +0.262 C 
ATOM     11  O   UNL     1       1.458   1.915  -2.219  0.00  0.00    -0.271 OA
ENDROOT
BRANCH   4  12
ATOM     12  N   UNL     1       1.355   2.407   4.814  0.00  0.00    -0.358 N 
ATOM     13  H   UNL     1       0.404   2.219   4.833  0.00  0.00    +0.142 HD
ATOM     14  H   UNL     1       1.833   2.579   5.640  0.00  0.00    +0.142 HD
ENDBRANCH   4  12
BRANCH   1  15
ATOM     15  C   UNL     1      -0.018   1.468   0.010  0.00  0.00    +0.202 C 
BRANCH  15  17
ATOM     16  C   UNL     1       0.018  -1.178  -0.004  0.00  0.00    +0.005 C 
ATOM     17  C   UNL     1       0.002  -0.004   0.002  0.00  0.00    -0.086 C 
ENDBRANCH  15  17
ENDBRANCH   1  15
BRANCH   9  18
ATOM     18  C   UNL     1       3.185   4.392  -1.145  0.00  0.00    +0.089 C 
BRANCH  18  19
ATOM     19  C   UNL     1       4.539   5.042  -1.269  0.00  0.00    -0.042 A 
ATOM     20  C   UNL     1       5.272   5.331  -0.133  0.00  0.00    +0.004 A 
ATOM     21  C   UNL     1       6.514   5.927  -0.246  0.00  0.00    +0.002 A 
ATOM     22  C   UNL     1       7.024   6.234  -1.494  0.00  0.00    +0.020 A 
ATOM     23  C   UNL     1       6.290   5.945  -2.630  0.00  0.00    +0.041 A 
ATOM     24  C   UNL     1       5.050   5.343  -2.517  0.00  0.00    +0.023 A 
ATOM     25 CL   UNL     1       6.929   6.330  -4.197  0.00  0.00    -0.084 Cl
ENDBRANCH  18  19
ENDBRANCH   9  18
TORSDOF 5
