REMARK  Name = ZINC18095738
REMARK  7 active torsions:
REMARK  status: ('A' for Active; 'I' for Inactive)
REMARK    1  A    between atoms: C_1  and  C_2
REMARK    2  A    between atoms: C_2  and  C_3
REMARK    3  A    between atoms: C_3  and  C_4
REMARK    4  A    between atoms: C_4  and  N_5
REMARK    5  A    between atoms: C_25  and  C_27
REMARK    6  A    between atoms: C_27  and  C_29
REMARK    7  A    between atoms: C_27  and  O_30
REMARK                            x       y       z     vdW  Elec       q    Type
REMARK                         _______ _______ _______ _____ _____    ______ ____
ROOT
ATOM      1  N   UNL     1       1.471  -2.526   2.420  0.00  0.00    -0.242 N 
ATOM      2  C   UNL     1       2.818  -2.755   2.456  0.00  0.00    +0.227 C 
ATOM      3  O   UNL     1       3.566  -2.847   1.506  0.00  0.00    -0.275 OA
ATOM      4  C   UNL     1       3.185  -2.867   3.902  0.00  0.00    +0.109 C 
ATOM      5  C   UNL     1       1.836  -3.516   4.390  0.00  0.00    +0.122 C 
ATOM      6  C   UNL     1       0.854  -2.794   3.616  0.00  0.00    +0.228 C 
ATOM      7  O   UNL     1      -0.272  -2.492   3.949  0.00  0.00    -0.275 OA
ATOM      8  C   UNL     1       2.127  -3.939   5.759  0.00  0.00    +0.136 C 
ATOM      9  C   UNL     1       1.333  -5.133   6.227  0.00  0.00    +0.003 A 
ATOM     10  C   UNL     1       1.150  -6.399   5.718  0.00  0.00    +0.008 A 
ATOM     11  C   UNL     1       0.344  -7.303   6.387  0.00  0.00    +0.000 A 
ATOM     12  C   UNL     1      -0.277  -6.930   7.566  0.00  0.00    +0.002 A 
ATOM     13  C   UNL     1      -0.096  -5.662   8.078  0.00  0.00    +0.023 A 
ATOM     14  C   UNL     1       0.715  -4.746   7.410  0.00  0.00    +0.039 A 
ATOM     15  N   UNL     1       1.050  -3.427   7.721  0.00  0.00    -0.283 N 
ATOM     16  C   UNL     1       1.873  -2.883   6.807  0.00  0.00    +0.243 C 
ATOM     17  O   UNL     1       2.324  -1.757   6.822  0.00  0.00    -0.273 OA
ATOM     18  N   UNL     1       3.582  -4.289   5.759  0.00  0.00    -0.293 NA
ATOM     19  C   UNL     1       4.135  -3.958   4.385  0.00  0.00    +0.096 C 
ATOM     20  H   UNL     1       0.727  -2.958   8.507  0.00  0.00    +0.155 HD
ATOM     21  H   UNL     1       4.076  -3.777   6.474  0.00  0.00    +0.124 HD
ENDROOT
BRANCH  19  22
ATOM     22  C   UNL     1       5.566  -3.424   4.485  0.00  0.00    +0.129 C 
ATOM     23  C   UNL     1       6.494  -4.539   4.971  0.00  0.00    +0.039 C 
BRANCH  22  24
ATOM     24  O   UNL     1       5.996  -2.973   3.199  0.00  0.00    -0.390 OA
ATOM     25  H   UNL     1       5.995  -3.661   2.520  0.00  0.00    +0.210 HD
ENDBRANCH  22  24
ENDBRANCH  19  22
BRANCH   1  26
ATOM     26  C   UNL     1       0.763  -2.041   1.233  0.00  0.00    +0.116 C 
BRANCH  26  27
ATOM     27  C   UNL     1       0.742  -0.511   1.242  0.00  0.00    +0.019 C 
BRANCH  27  29
ATOM     28  C   UNL     1      -0.019   1.526   0.010  0.00  0.00    +0.004 C 
ATOM     29  C   UNL     1       0.002  -0.004   0.002  0.00  0.00    -0.002 C 
ENDBRANCH  27  29
ENDBRANCH  26  27
ENDBRANCH   1  26
TORSDOF 5
