REMARK  Name = ZINC40863072
REMARK  11 active torsions:
REMARK  status: ('A' for Active; 'I' for Inactive)
REMARK    1  A    between atoms: C_1  and  C_2
REMARK    2  A    between atoms: C_2  and  C_3
REMARK    3  A    between atoms: C_2  and  N_4
REMARK    4  A    between atoms: C_7  and  C_11
REMARK    5  A    between atoms: C_12  and  C_24
REMARK    6  A    between atoms: C_14  and  S_17
REMARK    7  A    between atoms: S_17  and  C_18
REMARK    8  A    between atoms: C_18  and  C_19
REMARK    9  A    between atoms: C_19  and  C_21
REMARK   10  A    between atoms: C_19  and  O_23
REMARK   11  A    between atoms: C_21  and  O_22
REMARK                            x       y       z     vdW  Elec       q    Type
REMARK                         _______ _______ _______ _____ _____    ______ ____
ROOT
ATOM      1  C   UNL     1       0.152  -4.645  -2.109  0.00  0.00    +0.075 A 
ATOM      2  C   UNL     1       0.054  -5.467  -3.215  0.00  0.00    +0.098 A 
ATOM      3  N   UNL     1       1.227  -6.114  -3.349  0.00  0.00    -0.221 NA
ATOM      4  C   UNL     1       2.047  -5.743  -2.393  0.00  0.00    +0.167 A 
ATOM      5  N   UNL     1       1.427  -4.827  -1.600  0.00  0.00    -0.332 N 
ATOM      6  H   UNL     1       1.805  -4.386  -0.824  0.00  0.00    +0.168 HD
ENDROOT
BRANCH   1  10
ATOM      7  N   UNL     1      -1.333  -0.291  -0.418  0.00  0.00    -0.327 N 
ATOM      8  C   UNL     1      -1.609  -1.612  -0.753  0.00  0.00    +0.119 A 
ATOM      9  C   UNL     1      -0.596  -2.420  -1.247  0.00  0.00    +0.053 A 
ATOM     10  C   UNL     1      -0.890  -3.747  -1.579  0.00  0.00    +0.005 A 
ATOM     11  C   UNL     1      -2.207  -4.200  -1.395  0.00  0.00    +0.030 A 
ATOM     12  C   UNL     1      -3.152  -3.331  -0.900  0.00  0.00    +0.113 A 
ATOM     13  N   UNL     1      -2.836  -2.086  -0.591  0.00  0.00    -0.240 NA
ATOM     14  H   UNL     1      -2.036   0.278  -0.068  0.00  0.00    +0.148 HD
BRANCH   7  16
ATOM     15  C   UNL     1      -0.047   1.760  -0.767  0.00  0.00    +0.027 C 
ATOM     16  C   UNL     1       0.021   0.242  -0.593  0.00  0.00    +0.066 C 
ATOM     17  C   UNL     1       0.864  -0.093   0.639  0.00  0.00    +0.027 C 
ENDBRANCH   7  16
ENDBRANCH   1  10
BRANCH   2  18
ATOM     18  C   UNL     1      -1.129  -5.612  -4.094  0.00  0.00    +0.003 A 
ATOM     19  C   UNL     1      -1.842  -4.484  -4.499  0.00  0.00    +0.013 A 
ATOM     20  C   UNL     1      -2.943  -4.624  -5.319  0.00  0.00    +0.039 A 
ATOM     21  C   UNL     1      -3.341  -5.883  -5.739  0.00  0.00    +0.123 A 
ATOM     22  C   UNL     1      -2.636  -7.007  -5.339  0.00  0.00    +0.039 A 
ATOM     23  C   UNL     1      -1.530  -6.877  -4.525  0.00  0.00    +0.013 A 
ATOM     24  F   UNL     1      -4.420  -6.014  -6.541  0.00  0.00    -0.205 F 
ENDBRANCH   2  18
BRANCH   4  25
ATOM     25  S   UNL     1       3.693  -6.333  -2.175  0.00  0.00    -0.085 S 
BRANCH  25  26
ATOM     26  C   UNL     1       3.923  -7.507  -3.538  0.00  0.00    +0.111 C 
BRANCH  26  27
ATOM     27  C   UNL     1       5.331  -8.102  -3.467  0.00  0.00    +0.150 C 
BRANCH  27  28
ATOM     28  O   UNL     1       6.296  -7.054  -3.574  0.00  0.00    -0.389 OA
ATOM     29  H   UNL     1       6.241  -6.550  -4.397  0.00  0.00    +0.210 HD
ENDBRANCH  27  28
BRANCH  27  30
ATOM     30  C   UNL     1       5.524  -9.093  -4.617  0.00  0.00    +0.188 C 
BRANCH  30  31
ATOM     31  O   UNL     1       6.795  -9.734  -4.484  0.00  0.00    -0.392 OA
ATOM     32  H   UNL     1       6.985 -10.377  -5.180  0.00  0.00    +0.210 HD
ENDBRANCH  30  31
ENDBRANCH  27  30
ENDBRANCH  26  27
ENDBRANCH  25  26
ENDBRANCH   4  25
TORSDOF 9
