REMARK  Name = ZINC01912309
REMARK  7 active torsions:
REMARK  status: ('A' for Active; 'I' for Inactive)
REMARK    1  A    between atoms: C_1  and  C_2
REMARK    2  A    between atoms: C_2  and  O_4
REMARK    3  A    between atoms: O_4  and  C_5
REMARK    4  A    between atoms: C_5  and  C_6
REMARK    5  A    between atoms: C_6  and  C_7
REMARK    6  A    between atoms: C_7  and  N_8
REMARK    7  A    between atoms: C_17  and  C_19
REMARK                            x       y       z     vdW  Elec       q    Type
REMARK                         _______ _______ _______ _____ _____    ______ ____
ROOT
ATOM      1  N   UNL     1       2.327   4.268   0.002  0.00  0.00    -0.328 N 
ATOM      2  C   UNL     1       1.166   3.525   0.009  0.00  0.00    +0.130 A 
ATOM      3  C   UNL     1       1.209   2.108   0.002  0.00  0.00    +0.040 A 
ATOM      4  C   UNL     1       2.417   1.403  -0.014  0.00  0.00    +0.013 A 
ATOM      5  C   UNL     1       2.400   0.039  -0.021  0.00  0.00    +0.001 A 
ATOM      6  C   UNL     1       1.196  -0.661  -0.013  0.00  0.00    +0.002 A 
ATOM      7  C   UNL     1       0.002  -0.004   0.002  0.00  0.00    +0.028 A 
ATOM      8  C   UNL     1      -0.017   1.398   0.010  0.00  0.00    +0.077 A 
ATOM      9  N   UNL     1      -1.164   2.091   0.019  0.00  0.00    -0.227 NA
ATOM     10  C   UNL     1      -1.148   3.410   0.030  0.00  0.00    +0.162 A 
ATOM     11  N   UNL     1      -0.019   4.117   0.023  0.00  0.00    -0.212 NA
ATOM     12  H   UNL     1       3.188   3.821  -0.009  0.00  0.00    +0.147 HD
ENDROOT
BRANCH  10  13
ATOM     13  C   UNL     1      -2.440   4.137   0.046  0.00  0.00    +0.019 A 
ATOM     14  C   UNL     1      -2.459   5.530   0.059  0.00  0.00    +0.013 A 
ATOM     15  C   UNL     1      -3.665   6.202   0.068  0.00  0.00    +0.021 A 
ATOM     16  C   UNL     1      -4.854   5.493   0.075  0.00  0.00    +0.041 A 
ATOM     17  C   UNL     1      -4.841   4.108   0.069  0.00  0.00    +0.021 A 
ATOM     18  C   UNL     1      -3.641   3.428   0.054  0.00  0.00    +0.013 A 
ATOM     19 CL   UNL     1      -6.367   6.343   0.094  0.00  0.00    -0.084 Cl
ENDBRANCH  10  13
BRANCH   1  20
ATOM     20  C   UNL     1       2.261   5.731   0.009  0.00  0.00    +0.106 C 
BRANCH  20  21
ATOM     21  C   UNL     1       3.679   6.306  -0.002  0.00  0.00    +0.060 C 
BRANCH  21  22
ATOM     22  C   UNL     1       3.609   7.834   0.007  0.00  0.00    +0.233 C 
BRANCH  22  23
ATOM     23  O   UNL     1       4.955   8.380  -0.004  0.00  0.00    -0.465 OA
BRANCH  23  25
ATOM     24  C   UNL     1       6.435  10.356  -0.008  0.00  0.00    +0.136 C 
ATOM     25  C   UNL     1       5.070   9.717   0.002  0.00  0.00    +0.304 C 
ATOM     26  O   UNL     1       4.080  10.409   0.015  0.00  0.00    -0.251 OA
ENDBRANCH  23  25
ENDBRANCH  22  23
ENDBRANCH  21  22
ENDBRANCH  20  21
ENDBRANCH   1  20
TORSDOF 6
