REMARK  Name = ZINC34990245
REMARK  7 active torsions:
REMARK  status: ('A' for Active; 'I' for Inactive)
REMARK    1  A    between atoms: C_1  and  C_2
REMARK    2  A    between atoms: C_2  and  C_4
REMARK    3  A    between atoms: C_2  and  N_11
REMARK    4  A    between atoms: C_4  and  C_5
REMARK    5  A    between atoms: C_5  and  C_6
REMARK    6  A    between atoms: N_11  and  C_12
REMARK    7  A    between atoms: C_17  and  N_18
REMARK                            x       y       z     vdW  Elec       q    Type
REMARK                         _______ _______ _______ _____ _____    ______ ____
ROOT
ATOM      1  N   UNL     1       0.682  -0.572  -1.162  0.00  0.00    -0.339 N 
ATOM      2  H   UNL     1       0.162  -0.945  -1.890  0.00  0.00    +0.146 HD
ENDROOT
BRANCH   1   3
ATOM      3  C   UNL     1       2.079  -0.639  -1.195  0.00  0.00    +0.058 A 
ATOM      4  C   UNL     1       2.821  -0.213  -0.101  0.00  0.00    +0.028 A 
ATOM      5  C   UNL     1       4.200  -0.280  -0.136  0.00  0.00    +0.040 A 
ATOM      6  C   UNL     1       4.843  -0.770  -1.260  0.00  0.00    +0.126 A 
ATOM      7  C   UNL     1       4.104  -1.195  -2.351  0.00  0.00    +0.073 A 
ATOM      8  C   UNL     1       2.725  -1.136  -2.319  0.00  0.00    +0.150 A 
ATOM      9  F   UNL     1       6.192  -0.835  -1.292  0.00  0.00    -0.205 F 
BRANCH   8  10
ATOM     10  N   UNL     1       1.936  -1.596  -3.483  0.00  0.00    +0.058 N 
ATOM     11  O   UNL     1       2.297  -2.562  -4.114  0.00  0.00    -0.126 OA
ATOM     12  O   UNL     1       0.930  -1.006  -3.804  0.00  0.00    -0.126 OA
ENDBRANCH   8  10
ENDBRANCH   1   3
BRANCH   1  14
ATOM     13  C   UNL     1      -0.074   1.571  -0.258  0.00  0.00    +0.028 C 
ATOM     14  C   UNL     1       0.006   0.061  -0.027  0.00  0.00    +0.068 C 
BRANCH  14  15
ATOM     15  C   UNL     1      -1.408  -0.510   0.107  0.00  0.00    +0.029 C 
BRANCH  15  16
ATOM     16  C   UNL     1      -1.326  -1.996   0.462  0.00  0.00    +0.076 C 
BRANCH  16  17
ATOM     17  C   UNL     1      -2.718  -2.558   0.594  0.00  0.00    +0.105 A 
ATOM     18  C   UNL     1      -3.441  -3.110  -0.397  0.00  0.00    +0.044 A 
ATOM     19  C   UNL     1      -4.677  -3.500   0.166  0.00  0.00    +0.041 A 
ATOM     20  C   UNL     1      -4.636  -3.164   1.468  0.00  0.00    +0.195 A 
ATOM     21  O   UNL     1      -3.445  -2.599   1.723  0.00  0.00    -0.468 OA
ENDBRANCH  16  17
ENDBRANCH  15  16
ENDBRANCH  14  15
ENDBRANCH   1  14
TORSDOF 6
