REMARK  Name = ZINC66189449
REMARK  5 active torsions:
REMARK  status: ('A' for Active; 'I' for Inactive)
REMARK    1  A    between atoms: C_3  and  C_16
REMARK    2  A    between atoms: C_5  and  N_7
REMARK    3  A    between atoms: C_8  and  C_10
REMARK    4  A    between atoms: C_16  and  N_17
REMARK    5  A    between atoms: C_23  and  N_26
REMARK                            x       y       z     vdW  Elec       q    Type
REMARK                         _______ _______ _______ _____ _____    ______ ____
ROOT
ATOM      1  C   UNL     1       3.648   2.188  -0.404  0.00  0.00    +0.141 C 
ENDROOT
BRANCH   1   2
ATOM      2  N   UNL     1       4.277   2.441   0.895  0.00  0.00    -0.295 N 
ATOM      3  C   UNL     1       5.438   3.122   0.960  0.00  0.00    +0.302 C 
ATOM      4  O   UNL     1       5.963   3.527  -0.059  0.00  0.00    -0.253 OA
ATOM      5  N   UNL     1       6.017   3.354   2.155  0.00  0.00    -0.287 N 
ATOM      6  C   UNL     1       5.496   2.917   3.458  0.00  0.00    +0.108 C 
ATOM      7  C   UNL     1       6.474   3.429   4.537  0.00  0.00    +0.005 C 
ATOM      8  C   UNL     1       7.189   4.609   3.826  0.00  0.00    -0.049 C 
ATOM      9  C   UNL     1       7.281   4.082   2.370  0.00  0.00    +0.094 C 
ATOM     10  H   UNL     1       3.858   2.117   1.708  0.00  0.00    +0.151 HD
BRANCH   8  11
ATOM     11  N   UNL     1       8.527   4.830   4.390  0.00  0.00    +0.383 N 
ATOM     12  C   UNL     1       8.413   5.167   5.825  0.00  0.00    -0.078 C 
ATOM     13  C   UNL     1       9.531   6.208   6.077  0.00  0.00    -0.020 C 
ATOM     14  C   UNL     1       9.502   7.025   4.759  0.00  0.00    -0.020 C 
ATOM     15  C   UNL     1       9.178   5.955   3.695  0.00  0.00    -0.078 C 
ATOM     16  H   UNL     1       9.084   3.996   4.282  0.00  0.00    -0.081 HD
ENDBRANCH   8  11
ENDBRANCH   1   2
BRANCH   1  19
ATOM     17  C   UNL     1       0.004   1.379   0.172  0.00  0.00    +0.002 A 
ATOM     18  C   UNL     1       1.178   2.086  -0.013  0.00  0.00    +0.005 A 
ATOM     19  C   UNL     1       2.371   1.414  -0.202  0.00  0.00    -0.029 A 
ATOM     20  C   UNL     1       2.394   0.033  -0.205  0.00  0.00    +0.028 A 
ATOM     21  C   UNL     1       1.217  -0.680  -0.018  0.00  0.00    +0.034 A 
ATOM     22  C   UNL     1       0.020  -0.002   0.170  0.00  0.00    +0.023 A 
BRANCH  21  23
ATOM     23  N   UNL     1       1.237  -2.080  -0.021  0.00  0.00    -0.283 N 
ATOM     24  C   UNL     1       2.311  -2.739   0.458  0.00  0.00    +0.246 C 
ATOM     25  O   UNL     1       3.217  -2.125   0.978  0.00  0.00    -0.273 OA
ATOM     26  H   UNL     1       0.479  -2.575  -0.368  0.00  0.00    +0.155 HD
BRANCH  24  27
ATOM     27  C   UNL     1       2.384  -4.240   0.346  0.00  0.00    +0.204 C 
ATOM     28  C   UNL     1       1.272  -4.884   1.202  0.00  0.00    +0.043 C 
ATOM     29  C   UNL     1       1.996  -6.118   1.808  0.00  0.00    +0.031 C 
ATOM     30  C   UNL     1       3.430  -5.560   1.984  0.00  0.00    +0.161 C 
ATOM     31  O   UNL     1       3.643  -4.704   0.849  0.00  0.00    -0.367 OA
ENDBRANCH  24  27
ENDBRANCH  21  23
ENDBRANCH   1  19
TORSDOF 5
