REMARK  Name = ZINC64724112
REMARK  9 active torsions:
REMARK  status: ('A' for Active; 'I' for Inactive)
REMARK    1  A    between atoms: C_1  and  C_2
REMARK    2  A    between atoms: C_2  and  C_3
REMARK    3  A    between atoms: C_3  and  C_4
REMARK    4  A    between atoms: C_3  and  N_18
REMARK    5  A    between atoms: C_4  and  N_5
REMARK    6  A    between atoms: C_6  and  C_8
REMARK    7  A    between atoms: C_8  and  N_9
REMARK    8  A    between atoms: N_9  and  C_10
REMARK    9  A    between atoms: C_13  and  C_16
REMARK                            x       y       z     vdW  Elec       q    Type
REMARK                         _______ _______ _______ _____ _____    ______ ____
ROOT
ATOM      1  C   UNL     1      -1.354  -2.081   0.073  0.00  0.00    +0.089 C 
ENDROOT
BRANCH   1   2
ATOM      2  N   UNL     1      -2.697  -2.656   0.185  0.00  0.00    -0.316 N 
ATOM      3  C   UNL     1      -2.855  -3.993   0.248  0.00  0.00    +0.230 C 
ATOM      4  O   UNL     1      -1.885  -4.720   0.213  0.00  0.00    -0.274 OA
ATOM      5  H   UNL     1      -3.473  -2.074   0.212  0.00  0.00    +0.149 HD
BRANCH   3   6
ATOM      6  C   UNL     1      -4.236  -4.584   0.362  0.00  0.00    +0.197 C 
BRANCH   6   7
ATOM      7  N   UNL     1      -4.139  -6.045   0.414  0.00  0.00    -0.335 N 
ATOM      8  H   UNL     1      -3.271  -6.475   0.374  0.00  0.00    +0.147 HD
BRANCH   7   9
ATOM      9  C   UNL     1      -5.293  -6.816   0.521  0.00  0.00    +0.028 A 
ATOM     10  C   UNL     1      -6.539  -6.197   0.572  0.00  0.00    +0.024 A 
ATOM     11  C   UNL     1      -7.682  -6.957   0.678  0.00  0.00    +0.020 A 
ATOM     12  C   UNL     1      -7.591  -8.351   0.733  0.00  0.00    +0.052 A 
ATOM     13  C   UNL     1      -6.338  -8.969   0.681  0.00  0.00    +0.020 A 
ATOM     14  C   UNL     1      -5.199  -8.204   0.570  0.00  0.00    +0.024 A 
BRANCH  12  15
ATOM     15  C   UNL     1      -8.778  -9.143   0.843  0.00  0.00    +0.099 C 
ATOM     16  N   UNL     1      -9.720  -9.773   0.930  0.00  0.00    -0.191 NA
ENDBRANCH  12  15
ENDBRANCH   7   9
ENDBRANCH   6   7
ENDBRANCH   3   6
ENDBRANCH   1   2
BRANCH   1  17
ATOM     17  C   UNL     1      -1.443  -0.556   0.170  0.00  0.00    -0.051 C 
BRANCH  17  18
ATOM     18  N   UNL     1      -1.704  -0.169   1.563  0.00  0.00    +0.385 N 
ATOM     19  C   UNL     1      -0.704  -0.791   2.443  0.00  0.00    -0.073 C 
ATOM     20  C   UNL     1      -0.798  -0.142   3.825  0.00  0.00    +0.017 C 
ATOM     21  C   UNL     1      -2.230  -0.156   4.297  0.00  0.00    -0.048 A 
ATOM     22  C   UNL     1      -2.488   0.062   5.642  0.00  0.00    +0.004 A 
ATOM     23  C   UNL     1      -3.787   0.059   6.111  0.00  0.00    +0.000 A 
ATOM     24  C   UNL     1      -4.834  -0.160   5.235  0.00  0.00    +0.000 A 
ATOM     25  C   UNL     1      -4.577  -0.378   3.896  0.00  0.00    +0.002 A 
ATOM     26  C   UNL     1      -3.273  -0.378   3.424  0.00  0.00    -0.061 A 
ATOM     27  C   UNL     1      -3.039  -0.628   1.957  0.00  0.00    -0.042 C 
ATOM     28  H   UNL     1      -1.653   0.836   1.649  0.00  0.00    -0.081 HD
ENDBRANCH  17  18
BRANCH  17  30
ATOM     29  C   UNL     1      -0.236   1.587  -0.268  0.00  0.00    +0.002 C 
ATOM     30  C   UNL     1      -0.121   0.061  -0.292  0.00  0.00    -0.017 C 
ENDBRANCH  17  30
ENDBRANCH   1  17
TORSDOF 8
