REMARK  Name = ZINC52789459
REMARK  5 active torsions:
REMARK  status: ('A' for Active; 'I' for Inactive)
REMARK    1  A    between atoms: C_1  and  S_2
REMARK    2  A    between atoms: S_2  and  C_5
REMARK    3  A    between atoms: C_5  and  C_6
REMARK    4  A    between atoms: C_10  and  N_12
REMARK    5  A    between atoms: N_12  and  N_13
REMARK                            x       y       z     vdW  Elec       q    Type
REMARK                         _______ _______ _______ _____ _____    ______ ____
ROOT
ATOM      1  C   UNL     1       0.984  -1.879  -1.702  0.00  0.00    +0.152 A 
ATOM      2  N   UNL     1       2.028  -2.504  -1.201  0.00  0.00    -0.235 NA
ATOM      3  C   UNL     1       2.164  -3.824  -1.316  0.00  0.00    +0.050 A 
ATOM      4  C   UNL     1       1.191  -4.537  -1.970  0.00  0.00    +0.015 A 
ATOM      5  C   UNL     1       0.095  -3.843  -2.496  0.00  0.00    +0.139 A 
ATOM      6  N   UNL     1       0.028  -2.525  -2.337  0.00  0.00    -0.214 NA
ATOM      7  C   UNL     1       1.248  -6.030  -2.139  0.00  0.00    +0.040 C 
ATOM      8  C   UNL     1       2.668  -6.541  -1.898  0.00  0.00    +0.005 C 
ATOM      9  C   UNL     1       3.168  -5.976  -0.564  0.00  0.00    +0.006 C 
ATOM     10  C   UNL     1       3.387  -4.472  -0.726  0.00  0.00    +0.056 C 
ENDROOT
BRANCH   5  11
ATOM     11  N   UNL     1      -0.909  -4.521  -3.169  0.00  0.00    -0.267 N 
ATOM     12  H   UNL     1      -0.855  -5.483  -3.279  0.00  0.00    +0.167 HD
BRANCH  11  13
ATOM     13  N   UNL     1      -1.974  -3.834  -3.679  0.00  0.00    -0.255 NA
ATOM     14  H   UNL     1      -1.668  -3.104  -4.304  0.00  0.00    +0.140 HD
ATOM     15  H   UNL     1      -2.620  -4.457  -4.139  0.00  0.00    +0.140 HD
ENDBRANCH  11  13
ENDBRANCH   5  11
BRANCH   1  16
ATOM     16  C   UNL     1       0.877  -0.385  -1.541  0.00  0.00    +0.241 C 
BRANCH  16  18
ATOM     17  C   UNL     1      -0.022   1.810   0.012  0.00  0.00    +0.194 C 
ATOM     18  S   UNL     1       0.002  -0.004   0.002  0.00  0.00    -0.027 S 
ATOM     19  O   UNL     1       0.798  -0.449   1.092  0.00  0.00    -0.174 OA
ATOM     20  O   UNL     1      -1.335  -0.471  -0.113  0.00  0.00    -0.174 OA
ENDBRANCH  16  18
ENDBRANCH   1  16
TORSDOF 4
