REMARK  Name = ZINC59315746
REMARK  7 active torsions:
REMARK  status: ('A' for Active; 'I' for Inactive)
REMARK    1  A    between atoms: C_1  and  C_2
REMARK    2  A    between atoms: C_10  and  C_11
REMARK    3  A    between atoms: C_11  and  C_13
REMARK    4  A    between atoms: C_11  and  N_14
REMARK    5  A    between atoms: C_15  and  C_17
REMARK    6  A    between atoms: C_24  and  C_28
REMARK    7  A    between atoms: C_25  and  C_27
REMARK                            x       y       z     vdW  Elec       q    Type
REMARK                         _______ _______ _______ _____ _____    ______ ____
ROOT
ATOM      1  N   UNL     1       1.025  -1.119   3.258  0.00  0.00    -0.302 N 
ATOM      2  C   UNL     1       1.577  -0.595   4.370  0.00  0.00    +0.245 C 
ATOM      3  O   UNL     1       1.250   0.514   4.747  0.00  0.00    -0.270 OA
ATOM      4  H   UNL     1       1.286  -2.003   2.958  0.00  0.00    +0.150 HD
ENDROOT
BRANCH   2   5
ATOM      5  C   UNL     1       2.581  -1.368   5.133  0.00  0.00    +0.039 A 
ATOM      6  C   UNL     1       2.959  -2.648   4.689  0.00  0.00    +0.015 A 
ATOM      7  C   UNL     1       3.879  -3.377   5.371  0.00  0.00    +0.030 A 
ATOM      8  C   UNL     1       4.466  -2.856   6.539  0.00  0.00    +0.090 A 
ATOM      9  C   UNL     1       4.093  -1.567   6.997  0.00  0.00    +0.090 A 
ATOM     10  C   UNL     1       3.144  -0.825   6.274  0.00  0.00    +0.043 A 
ATOM     11  N   UNL     1       4.654  -1.072   8.106  0.00  0.00    -0.249 NA
ATOM     12  C   UNL     1       5.543  -1.783   8.760  0.00  0.00    +0.060 A 
ATOM     13  C   UNL     1       5.911  -3.053   8.309  0.00  0.00    +0.060 A 
ATOM     14  N   UNL     1       5.374  -3.561   7.223  0.00  0.00    -0.249 NA
ATOM     15  C   UNL     1       6.935  -3.848   9.077  0.00  0.00    +0.067 C 
ATOM     16  C   UNL     1       6.173  -1.223  10.009  0.00  0.00    +0.067 C 
ENDBRANCH   2   5
BRANCH   1  17
ATOM     17  C   UNL     1       0.030  -0.352   2.503  0.00  0.00    +0.137 C 
ATOM     18  C   UNL     1      -1.354  -0.570   3.116  0.00  0.00    +0.036 C 
BRANCH  17  28
ATOM     19  C   UNL     1      -0.018   1.503   0.010  0.00  0.00    +0.048 C 
ATOM     20  C   UNL     1       0.002  -0.004   0.002  0.00  0.00    +0.000 A 
ATOM     21  C   UNL     1       0.009  -0.879  -1.177  0.00  0.00    +0.023 A 
ATOM     22  C   UNL     1       0.000  -0.660  -2.553  0.00  0.00    +0.012 A 
ATOM     23  C   UNL     1       0.011  -1.726  -3.409  0.00  0.00    +0.001 A 
ATOM     24  C   UNL     1       0.031  -3.023  -2.916  0.00  0.00    +0.004 A 
ATOM     25  C   UNL     1       0.040  -3.259  -1.558  0.00  0.00    +0.047 A 
ATOM     26  C   UNL     1       0.029  -2.190  -0.671  0.00  0.00    +0.136 A 
ATOM     27  O   UNL     1       0.033  -2.100   0.674  0.00  0.00    -0.458 OA
ATOM     28  C   UNL     1       0.023  -0.814   1.069  0.00  0.00    +0.129 A 
ENDBRANCH  17  28
ENDBRANCH   1  17
TORSDOF 3
