REMARK  Name = ZINC58174791
REMARK  10 active torsions:
REMARK  status: ('A' for Active; 'I' for Inactive)
REMARK    1  A    between atoms: C_1  and  C_2
REMARK    2  A    between atoms: C_2  and  N_3
REMARK    3  A    between atoms: N_3  and  C_4
REMARK    4  A    between atoms: C_4  and  C_5
REMARK    5  A    between atoms: C_9  and  N_12
REMARK    6  A    between atoms: N_15  and  C_16
REMARK    7  A    between atoms: C_16  and  C_17
REMARK    8  A    between atoms: C_17  and  N_18
REMARK    9  A    between atoms: C_22  and  C_24
REMARK   10  A    between atoms: C_22  and  C_25
REMARK                            x       y       z     vdW  Elec       q    Type
REMARK                         _______ _______ _______ _____ _____    ______ ____
ROOT
ATOM      1  N   UNL     1      -2.104  -1.436  -5.866  0.00  0.00    -0.268 N 
ATOM      2  C   UNL     1      -1.413  -1.778  -6.972  0.00  0.00    +0.304 C 
ATOM      3  O   UNL     1      -0.212  -1.955  -6.907  0.00  0.00    -0.253 OA
ATOM      4  N   UNL     1      -2.054  -1.923  -8.148  0.00  0.00    -0.298 N 
ATOM      5  H   UNL     1      -3.071  -1.370  -5.899  0.00  0.00    +0.156 HD
ATOM      6  H   UNL     1      -3.012  -1.782  -8.200  0.00  0.00    +0.150 HD
ENDROOT
BRANCH   1  11
ATOM      7  N   UNL     1       0.459  -0.463  -1.077  0.00  0.00    -0.317 N 
ATOM      8  C   UNL     1      -0.169  -0.700  -2.296  0.00  0.00    +0.099 A 
ATOM      9  C   UNL     1       0.480  -0.367  -3.481  0.00  0.00    +0.043 A 
ATOM     10  C   UNL     1      -0.152  -0.607  -4.686  0.00  0.00    +0.028 A 
ATOM     11  C   UNL     1      -1.425  -1.176  -4.667  0.00  0.00    +0.051 A 
ATOM     12  C   UNL     1      -2.010  -1.481  -3.449  0.00  0.00    +0.107 A 
ATOM     13  N   UNL     1      -1.375  -1.244  -2.316  0.00  0.00    -0.348 N 
ATOM     14  H   UNL     1      -1.806  -1.470  -1.477  0.00  0.00    +0.167 HD
BRANCH   7  16
ATOM     15  C   UNL     1       2.853  -0.965  -1.085  0.00  0.00    +0.024 C 
ATOM     16  C   UNL     1       1.795   0.139  -1.045  0.00  0.00    +0.103 C 
ENDBRANCH   7  16
BRANCH   7  17
ATOM     17  C   UNL     1      -0.215  -0.815   0.175  0.00  0.00    +0.103 C 
ATOM     18  C   UNL     1      -1.043   0.377   0.661  0.00  0.00    +0.024 C 
ENDBRANCH   7  17
ENDBRANCH   1  11
BRANCH   4  19
ATOM     19  C   UNL     1      -1.303  -2.295  -9.350  0.00  0.00    +0.121 C 
BRANCH  19  20
ATOM     20  C   UNL     1      -2.260  -2.393 -10.540  0.00  0.00    +0.103 C 
BRANCH  20  21
ATOM     21  N   UNL     1      -1.507  -2.765 -11.745  0.00  0.00    -0.296 NA
ATOM     22  C   UNL     1      -0.965  -4.127 -11.627  0.00  0.00    +0.112 C 
ATOM     23  C   UNL     1      -0.140  -4.451 -12.876  0.00  0.00    +0.176 C 
ATOM     24  O   UNL     1      -0.960  -4.293 -14.037  0.00  0.00    -0.371 OA
ATOM     25  C   UNL     1      -1.504  -2.978 -14.183  0.00  0.00    +0.077 C 
ATOM     26  C   UNL     1      -2.343  -2.639 -12.948  0.00  0.00    +0.119 C 
ATOM     27  C   UNL     1      -2.388  -2.927 -15.431  0.00  0.00    +0.042 C 
ATOM     28  C   UNL     1      -0.365  -1.966 -14.320  0.00  0.00    +0.042 C 
ENDBRANCH  20  21
ENDBRANCH  19  20
ENDBRANCH   4  19
TORSDOF 6
