REMARK  Name = ZINC32883599
REMARK  3 active torsions:
REMARK  status: ('A' for Active; 'I' for Inactive)
REMARK    1  A    between atoms: C_8  and  C_11
REMARK    2  A    between atoms: N_13  and  C_14
REMARK    3  A    between atoms: C_22  and  C_27
REMARK                            x       y       z     vdW  Elec       q    Type
REMARK                         _______ _______ _______ _____ _____    ______ ____
ROOT
ATOM      1  C   UNL     1      -4.978   1.237   0.235  0.00  0.00    +0.105 C 
ATOM      2  C   UNL     1      -6.131   2.143   0.663  0.00  0.00    +0.027 C 
ATOM      3  C   UNL     1      -6.138   3.374  -0.253  0.00  0.00    +0.008 C 
ATOM      4  C   UNL     1      -4.907   4.216   0.069  0.00  0.00    +0.054 C 
ATOM      5  C   UNL     1      -3.659   3.369   0.049  0.00  0.00    +0.024 A 
ATOM      6  C   UNL     1      -3.694   2.019   0.136  0.00  0.00    -0.007 A 
ATOM      7  C   UNL     1      -2.498   1.288   0.125  0.00  0.00    +0.025 A 
ATOM      8  C   UNL     1      -1.284   1.956   0.020  0.00  0.00    +0.101 A 
ATOM      9  C   UNL     1      -1.296   3.372  -0.071  0.00  0.00    +0.261 A 
ATOM     10  O   UNL     1      -0.250   3.990  -0.163  0.00  0.00    -0.267 OA
ATOM     11  N   UNL     1      -2.469   4.025  -0.061  0.00  0.00    -0.325 N 
ATOM     12  H   UNL     1      -2.451   5.121  -0.145  0.00  0.00    +0.169 HD
ENDROOT
BRANCH   8  13
ATOM     13  C   UNL     1      -0.014   1.212   0.009  0.00  0.00    +0.247 C 
ATOM     14  O   UNL     1      -0.022  -0.004  -0.013  0.00  0.00    -0.270 OA
ATOM     15  N   UNL     1       1.157   1.879   0.018  0.00  0.00    -0.325 N 
ATOM     16  H   UNL     1       2.106   1.323   0.009  0.00  0.00    +0.145 HD
ATOM     17  H   UNL     1       1.164   2.979   0.033  0.00  0.00    +0.145 HD
ENDBRANCH   8  13
BRANCH   1  20
ATOM     18  C   UNL     1      -4.275  -1.012   0.853  0.00  0.00    +0.245 C 
ATOM     19  O   UNL     1      -3.922  -1.186  -0.297  0.00  0.00    -0.270 OA
ATOM     20  N   UNL     1      -4.816   0.166   1.221  0.00  0.00    -0.304 N 
ATOM     21  H   UNL     1      -5.135   0.324   2.262  0.00  0.00    +0.150 HD
BRANCH  18  29
ATOM     22  C   UNL     1      -2.555  -4.942  -0.033  0.00  0.00    +0.001 A 
ATOM     23  C   UNL     1      -2.445  -5.895   0.981  0.00  0.00    +0.004 A 
ATOM     24  C   UNL     1      -2.869  -5.609   2.243  0.00  0.00    -0.039 A 
ATOM     25  C   UNL     1      -3.408  -4.349   2.481  0.00  0.00    -0.011 A 
ATOM     26  C   UNL     1      -3.817  -4.130   3.793  0.00  0.00    -0.039 A 
ATOM     27  C   UNL     1      -4.359  -2.922   4.119  0.00  0.00    +0.005 A 
ATOM     28  C   UNL     1      -4.501  -1.915   3.170  0.00  0.00    +0.014 A 
ATOM     29  C   UNL     1      -4.111  -2.091   1.845  0.00  0.00    +0.044 A 
ATOM     30  C   UNL     1      -3.528  -3.377   1.473  0.00  0.00    -0.005 A 
ATOM     31  C   UNL     1      -3.083  -3.701   0.187  0.00  0.00    +0.009 A 
ATOM     32  C   UNL     1      -3.529  -5.394   4.569  0.00  0.00    +0.040 C 
ATOM     33  C   UNL     1      -2.904  -6.368   3.547  0.00  0.00    +0.040 C 
ENDBRANCH  18  29
ENDBRANCH   1  20
TORSDOF 3
