REMARK  Name = ZINC11866968
REMARK  8 active torsions:
REMARK  status: ('A' for Active; 'I' for Inactive)
REMARK    1  A    between atoms: C_4  and  C_7
REMARK    2  A    between atoms: C_7  and  C_9
REMARK    3  A    between atoms: C_7  and  N_15
REMARK    4  A    between atoms: N_11  and  C_12
REMARK    5  A    between atoms: C_12  and  C_13
REMARK    6  A    between atoms: C_16  and  C_18
REMARK    7  A    between atoms: C_18  and  O_19
REMARK    8  A    between atoms: O_19  and  C_20
REMARK                            x       y       z     vdW  Elec       q    Type
REMARK                         _______ _______ _______ _____ _____    ______ ____
ROOT
ATOM      1  N   UNK A   1       2.088   4.346   0.005  0.00  0.00    -0.298 N 
ATOM      2  C   UNK A   0       1.030   3.510   0.011  0.00  0.00    +0.251 C 
ATOM      3  O   UNK A   0      -0.097   3.959   0.024  0.00  0.00    -0.272 OA
ATOM      4  H   UNK A   1       2.989   3.987  -0.005  0.00  0.00    +0.150 HD
ENDROOT
BRANCH   1   5
ATOM      5  C   UNK A   1       1.876   5.795   0.015  0.00  0.00    +0.190 C 
BRANCH   5   9
ATOM      6  C   UNK A   1       1.361   7.132   4.040  0.00  0.00    +0.000 A 
ATOM      7  C   UNK A   1       0.584   7.667   3.029  0.00  0.00    +0.000 A 
ATOM      8  C   UNK A   1       0.751   7.234   1.727  0.00  0.00    +0.006 A 
ATOM      9  C   UNK A   1       1.695   6.267   1.435  0.00  0.00    -0.018 A 
ATOM     10  C   UNK A   1       2.468   5.729   2.446  0.00  0.00    +0.006 A 
ATOM     11  C   UNK A   1       2.304   6.164   3.748  0.00  0.00    +0.000 A 
ENDBRANCH   5   9
BRANCH   5  12
ATOM     12  C   UNK A   1       3.072   6.482  -0.593  0.00  0.00    +0.238 C 
ATOM     13  O   UNK A   1       4.009   5.825  -0.995  0.00  0.00    -0.273 OA
ATOM     14  N   UNK A   1       3.100   7.826  -0.690  0.00  0.00    -0.303 N 
ATOM     15  H   UNK A   1       2.351   8.351  -0.368  0.00  0.00    +0.149 HD
BRANCH  14  16
ATOM     16  C   UNK A   1       4.263   8.493  -1.281  0.00  0.00    +0.229 C 
BRANCH  16  17
ATOM     17  C   UNK A   1       4.045   9.984  -1.271  0.00  0.00    +0.373 C 
ATOM     18  O   UNK A   1       3.024  10.443  -0.817  0.00  0.00    -0.245 OA
ATOM     19  O   UNK A   1       4.986  10.803  -1.767  0.00  0.00    -0.245 OA
ENDBRANCH  16  17
ENDBRANCH  14  16
ENDBRANCH   5  12
ENDBRANCH   1   5
BRANCH   2  20
ATOM     20  C   UNK A   0       1.248   2.019   0.001  0.00  0.00    +0.324 C 
BRANCH  20  21
ATOM     21  O   UNK A   0      -0.016   1.353   0.009  0.00  0.00    -0.483 OA
BRANCH  21  22
ATOM     22  C   UNK A   0       0.002  -0.004   0.002  0.00  0.00    +0.125 A 
ATOM     23  C   UNK A   0       1.222  -0.679  -0.013  0.00  0.00    +0.046 A 
ATOM     24  C   UNK A   0       1.257  -2.043  -0.021  0.00  0.00    +0.015 A 
ATOM     25  C   UNK A   0       0.060  -2.769  -0.013  0.00  0.00    +0.021 A 
ATOM     26  C   UNK A   0      -1.172  -2.094   0.002  0.00  0.00    +0.143 A 
ATOM     27  C   UNK A   0      -1.192  -0.707   0.015  0.00  0.00    +0.092 A 
ATOM     28  O   UNK A   0      -2.321  -2.803   0.007  0.00  0.00    -0.422 OA
ATOM     29  C   UNK A   0      -2.313  -4.142   0.002  0.00  0.00    +0.341 A 
ATOM     30  O   UNK A   0      -3.376  -4.738   0.004  0.00  0.00    -0.245 OA
ATOM     31  C   UNK A   0      -1.109  -4.889  -0.008  0.00  0.00    +0.041 A 
ATOM     32  C   UNK A   0       0.074  -4.237  -0.021  0.00  0.00    -0.027 A 
ATOM     33  C   UNK A   0       1.402  -4.943  -0.052  0.00  0.00    +0.036 C 
ATOM     34  C   UNK A   0       1.246  -6.402   0.374  0.00  0.00    +0.005 C 
ATOM     35  C   UNK A   0       0.107  -7.023  -0.444  0.00  0.00    +0.005 C 
ATOM     36  C   UNK A   0      -1.208  -6.391   0.006  0.00  0.00    +0.042 C 
ENDBRANCH  21  22
ENDBRANCH  20  21
ENDBRANCH   2  20
TORSDOF 8
