REMARK  Name = ZINC41759687
REMARK  8 active torsions:
REMARK  status: ('A' for Active; 'I' for Inactive)
REMARK    1  A    between atoms: C_1  and  C_2
REMARK    2  A    between atoms: C_2  and  C_3
REMARK    3  A    between atoms: C_2  and  C_14
REMARK    4  A    between atoms: C_2  and  N_17
REMARK    5  A    between atoms: N_17  and  C_18
REMARK    6  A    between atoms: C_18  and  C_19
REMARK    7  A    between atoms: C_18  and  C_20
REMARK    8  A    between atoms: C_18  and  C_21
REMARK                            x       y       z     vdW  Elec       q    Type
REMARK                         _______ _______ _______ _____ _____    ______ ____
ROOT
ATOM      1  C   UNL     1      -0.023   0.778   0.647  0.00  0.00    +0.007 C 
ATOM      2  C   UNL     1       0.503  -0.081  -0.505  0.00  0.00    +0.059 C 
ENDROOT
BRANCH   2   3
ATOM      3  C   UNL     1       1.691  -0.880  -0.033  0.00  0.00    -0.044 A 
ATOM      4  C   UNL     1       2.920  -0.714  -0.646  0.00  0.00    +0.006 A 
ATOM      5  C   UNL     1       4.015  -1.443  -0.218  0.00  0.00    +0.049 A 
ATOM      6  C   UNL     1       3.876  -2.340   0.827  0.00  0.00    +0.162 A 
ATOM      7  C   UNL     1       2.643  -2.507   1.442  0.00  0.00    +0.162 A 
ATOM      8  C   UNL     1       1.550  -1.772   1.014  0.00  0.00    +0.052 A 
ATOM      9  O   UNL     1       2.518  -3.393   2.472  0.00  0.00    -0.488 OA
ATOM     10  C   UNL     1       2.650  -4.774   2.128  0.00  0.00    +0.232 C 
ATOM     11  C   UNL     1       4.114  -5.185   2.100  0.00  0.00    +0.082 C 
ATOM     12  C   UNL     1       4.895  -4.471   1.008  0.00  0.00    +0.232 C 
ATOM     13  O   UNL     1       4.949  -3.065   1.260  0.00  0.00    -0.488 OA
ENDBRANCH   2   3
BRANCH   2  14
ATOM     14  C   UNL     1      -0.581  -1.020  -0.967  0.00  0.00    +0.349 C 
ATOM     15  O   UNL     1      -0.637  -1.357  -2.138  0.00  0.00    -0.248 OA
ATOM     16  O   UNL     1      -1.403  -1.442  -0.171  0.00  0.00    -0.248 OA
ENDBRANCH   2  14
BRANCH   2  17
ATOM     17  N   UNL     1       0.908   0.787  -1.619  0.00  0.00    +0.396 N 
ATOM     18  H   UNL     1       1.769   1.257  -1.383  0.00  0.00    -0.083 HD
ATOM     19  H   UNL     1       1.045   0.228  -2.448  0.00  0.00    -0.083 HD
BRANCH  17  20
ATOM     20  C   UNL     1      -0.142   1.784  -1.869  0.00  0.00    -0.075 C 
ATOM     21  C   UNL     1      -0.071   2.878  -0.801  0.00  0.00    -0.011 C 
ATOM     22  C   UNL     1       0.064   2.406  -3.251  0.00  0.00    -0.011 C 
ATOM     23  C   UNL     1      -1.513   1.106  -1.814  0.00  0.00    -0.011 C 
ENDBRANCH  17  20
ENDBRANCH   2  17
TORSDOF 4
