REMARK  Name = ZINC09690565
REMARK  6 active torsions:
REMARK  status: ('A' for Active; 'I' for Inactive)
REMARK    1  A    between atoms: C_1  and  C_2
REMARK    2  A    between atoms: C_2  and  C_21
REMARK    3  A    between atoms: N_5  and  N_9
REMARK    4  A    between atoms: C_10  and  C_12
REMARK    5  A    between atoms: C_12  and  O_13
REMARK    6  A    between atoms: O_13  and  C_14
REMARK                            x       y       z     vdW  Elec       q    Type
REMARK                         _______ _______ _______ _____ _____    ______ ____
ROOT
ATOM      1  C   UNL     1      -0.662  -0.558   1.264  0.00  0.00    +0.047 C 
ATOM      2  C   UNL     1       0.002  -0.004   0.002  0.00  0.00    +0.137 C 
ATOM      3  C   UNL     1       1.480  -0.340  -0.014  0.00  0.00    +0.267 C 
ATOM      4  O   UNL     1       1.980  -1.445  -0.024  0.00  0.00    -0.271 OA
ATOM      5  N   UNL     1       2.123   0.844  -0.014  0.00  0.00    -0.137 N 
ATOM      6  C   UNL     1       1.266   1.871   0.000  0.00  0.00    +0.327 C 
ATOM      7  O   UNL     1       1.608   3.037   0.003  0.00  0.00    -0.251 OA
ATOM      8  N   UNL     1      -0.018   1.469   0.010  0.00  0.00    -0.280 N 
ATOM      9  H   UNL     1      -0.803   2.038   0.017  0.00  0.00    +0.152 HD
ENDROOT
BRANCH   2  10
ATOM     10  C   UNL     1      -0.679  -0.537  -1.232  0.00  0.00    -0.015 A 
ATOM     11  C   UNL     1      -0.255  -1.724  -1.798  0.00  0.00    +0.006 A 
ATOM     12  C   UNL     1      -0.883  -2.215  -2.927  0.00  0.00    +0.000 A 
ATOM     13  C   UNL     1      -1.930  -1.514  -3.496  0.00  0.00    +0.000 A 
ATOM     14  C   UNL     1      -2.351  -0.324  -2.933  0.00  0.00    +0.000 A 
ATOM     15  C   UNL     1      -1.726   0.165  -1.801  0.00  0.00    +0.006 A 
ENDBRANCH   2  10
BRANCH   5  16
ATOM     16  N   UNL     1       3.517   0.983  -0.026  0.00  0.00    -0.221 N 
ATOM     17  C   UNL     1       4.147   1.356  -1.157  0.00  0.00    +0.267 C 
ATOM     18  O   UNL     1       3.508   1.572  -2.165  0.00  0.00    -0.271 OA
ATOM     19  H   UNL     1       4.029   0.810   0.780  0.00  0.00    +0.174 HD
BRANCH  17  20
ATOM     20  C   UNL     1       5.647   1.505  -1.170  0.00  0.00    +0.326 C 
BRANCH  20  21
ATOM     21  O   UNL     1       6.074   1.906  -2.474  0.00  0.00    -0.483 OA
BRANCH  21  22
ATOM     22  C   UNL     1       7.409   2.086  -2.657  0.00  0.00    +0.124 A 
ATOM     23  C   UNL     1       8.288   1.887  -1.602  0.00  0.00    +0.046 A 
ATOM     24  C   UNL     1       9.645   2.066  -1.791  0.00  0.00    +0.006 A 
ATOM     25  C   UNL     1      10.127   2.453  -3.027  0.00  0.00    +0.038 A 
ATOM     26  C   UNL     1       9.252   2.658  -4.081  0.00  0.00    +0.127 A 
ATOM     27  C   UNL     1       7.893   2.475  -3.897  0.00  0.00    +0.084 A 
ATOM     28  F   UNL     1       9.726   3.037  -5.288  0.00  0.00    -0.205 F 
ENDBRANCH  21  22
ENDBRANCH  20  21
ENDBRANCH  17  20
ENDBRANCH   5  16
TORSDOF 5
