REMARK  Name = ZINC42024497
REMARK  4 active torsions:
REMARK  status: ('A' for Active; 'I' for Inactive)
REMARK    1  A    between atoms: C_1  and  C_2
REMARK    2  A    between atoms: N_6  and  C_23
REMARK    3  A    between atoms: C_8  and  C_10
REMARK    4  A    between atoms: N_12  and  C_13
REMARK                            x       y       z     vdW  Elec       q    Type
REMARK                         _______ _______ _______ _____ _____    ______ ____
ROOT
ATOM      1  C   UNL     1      -0.549   0.959  -0.085  0.00  0.00    +0.038 C 
ATOM      2  C   UNL     1      -0.012  -0.451   0.165  0.00  0.00    +0.157 C 
ATOM      3  C   UNL     1       0.716  -0.945  -1.063  0.00  0.00    +0.259 C 
ATOM      4  O   UNL     1       0.110  -1.514  -1.946  0.00  0.00    -0.271 OA
ATOM      5  N   UNL     1       2.045  -0.748  -1.169  0.00  0.00    -0.157 N 
ATOM      6  N   UNL     1       2.758  -0.110  -0.149  0.00  0.00    -0.152 NA
ATOM      7  C   UNL     1       2.236   0.044   1.037  0.00  0.00    +0.200 C 
ATOM      8  N   UNL     1       0.942  -0.428   1.284  0.00  0.00    -0.313 N 
ATOM      9  H   UNL     1       0.681  -0.730   2.168  0.00  0.00    +0.148 HD
ENDROOT
BRANCH   5  10
ATOM     10  C   UNL     1       2.720  -1.187  -2.314  0.00  0.00    +0.060 A 
ATOM     11  C   UNL     1       3.887  -1.931  -2.192  0.00  0.00    +0.025 A 
ATOM     12  C   UNL     1       4.550  -2.362  -3.324  0.00  0.00    +0.002 A 
ATOM     13  C   UNL     1       4.054  -2.054  -4.577  0.00  0.00    +0.000 A 
ATOM     14  C   UNL     1       2.893  -1.313  -4.702  0.00  0.00    +0.002 A 
ATOM     15  C   UNL     1       2.222  -0.884  -3.574  0.00  0.00    +0.025 A 
ENDBRANCH   5  10
BRANCH   7  16
ATOM     16  C   UNL     1       3.003   0.709   2.106  0.00  0.00    +0.279 C 
ATOM     17  O   UNL     1       2.511   0.850   3.209  0.00  0.00    -0.267 OA
ATOM     18  N   UNL     1       4.249   1.161   1.861  0.00  0.00    -0.302 N 
ATOM     19  H   UNL     1       4.641   1.048   0.981  0.00  0.00    +0.150 HD
BRANCH  18  20
ATOM     20  C   UNL     1       5.010   1.821   2.924  0.00  0.00    +0.104 C 
ATOM     21  C   UNL     1       6.524   1.718   2.642  0.00  0.00    +0.032 C 
ATOM     22  C   UNL     1       7.055   3.061   3.187  0.00  0.00    +0.037 C 
ATOM     23  C   UNL     1       5.886   4.018   3.091  0.00  0.00    -0.042 A 
ATOM     24  C   UNL     1       4.709   3.305   2.942  0.00  0.00    -0.024 A 
ATOM     25  C   UNL     1       3.503   3.976   2.836  0.00  0.00    +0.006 A 
ATOM     26  C   UNL     1       3.470   5.357   2.880  0.00  0.00    +0.000 A 
ATOM     27  C   UNL     1       4.643   6.070   3.030  0.00  0.00    +0.000 A 
ATOM     28  C   UNL     1       5.852   5.401   3.133  0.00  0.00    +0.004 A 
ENDBRANCH  18  20
ENDBRANCH   7  16
TORSDOF 3
