REMARK  Name = ZINC21342798
REMARK  9 active torsions:
REMARK  status: ('A' for Active; 'I' for Inactive)
REMARK    1  A    between atoms: C_1  and  C_2
REMARK    2  A    between atoms: C_2  and  C_3
REMARK    3  A    between atoms: C_2  and  C_4
REMARK    4  A    between atoms: C_7  and  C_10
REMARK    5  A    between atoms: C_10  and  C_12
REMARK    6  A    between atoms: C_12  and  C_13
REMARK    7  A    between atoms: C_13  and  O_31
REMARK    8  A    between atoms: N_20  and  C_23
REMARK    9  A    between atoms: C_23  and  N_24
REMARK                            x       y       z     vdW  Elec       q    Type
REMARK                         _______ _______ _______ _____ _____    ______ ____
ROOT
ATOM      1  C   UNL     1       3.864   5.322  -1.680  0.00  0.00    +0.175 C 
ATOM      2  C   UNL     1       4.902   4.277  -1.341  0.00  0.00    +0.014 A 
ATOM      3  C   UNL     1       6.266   4.335  -1.165  0.00  0.00    +0.009 A 
ATOM      4  C   UNL     1       6.971   3.186  -0.854  0.00  0.00    +0.000 A 
ATOM      5  C   UNL     1       6.302   1.983  -0.720  0.00  0.00    +0.002 A 
ATOM      6  C   UNL     1       4.935   1.922  -0.896  0.00  0.00    +0.024 A 
ATOM      7  C   UNL     1       4.218   3.075  -1.210  0.00  0.00    +0.041 A 
ATOM      8  N   UNL     1       2.855   3.268  -1.433  0.00  0.00    -0.285 N 
ATOM      9  C   UNL     1       2.563   4.549  -1.719  0.00  0.00    +0.255 C 
ATOM     10  O   UNL     1       1.463   5.000  -1.961  0.00  0.00    -0.272 OA
ENDROOT
BRANCH   1  11
ATOM     11  O   UNL     1       4.137   5.904  -2.955  0.00  0.00    -0.374 OA
ATOM     12  H   UNL     1       4.205   5.266  -3.849  0.00  0.00    +0.211 HD
ENDBRANCH   1  11
BRANCH   1  13
ATOM     13  C   UNL     1       3.818   6.402  -0.597  0.00  0.00    +0.129 C 
BRANCH  13  14
ATOM     14  C   UNL     1       2.695   7.363  -0.893  0.00  0.00    +0.167 C 
ATOM     15  O   UNL     1       2.000   7.199  -1.873  0.00  0.00    -0.292 OA
BRANCH  14  19
ATOM     16  C   UNL     1       1.966  10.638   1.702  0.00  0.00    -0.045 A 
ATOM     17  C   UNL     1       1.171  10.455   0.584  0.00  0.00    +0.004 A 
ATOM     18  C   UNL     1       1.401   9.393  -0.264  0.00  0.00    +0.011 A 
ATOM     19  C   UNL     1       2.442   8.499   0.007  0.00  0.00    +0.018 A 
ATOM     20  C   UNL     1       3.238   8.688   1.141  0.00  0.00    +0.011 A 
ATOM     21  C   UNL     1       2.998   9.758   1.977  0.00  0.00    +0.004 A 
BRANCH  16  23
ATOM     22  C   UNL     1       1.386  11.279   4.026  0.00  0.00    +0.012 C 
ATOM     23  C   UNL     1       1.707  11.801   2.624  0.00  0.00    +0.013 C 
ATOM     24  C   UNL     1       2.949  12.692   2.683  0.00  0.00    +0.012 C 
ENDBRANCH  16  23
ENDBRANCH  14  19
ENDBRANCH  13  14
ENDBRANCH   1  13
BRANCH   8  25
ATOM     25  C   UNL     1       1.857   2.198  -1.370  0.00  0.00    +0.038 C 
BRANCH  25  26
ATOM     26  N   UNL     1       1.338   2.093   0.001  0.00  0.00    +0.390 N 
ATOM     27  C   UNL     1      -0.018   1.500   0.010  0.00  0.00    -0.077 C 
ATOM     28  C   UNL     1       0.002  -0.004   0.002  0.00  0.00    -0.019 C 
ATOM     29  C   UNL     1      -0.073  -0.502   1.460  0.00  0.00    -0.002 C 
ATOM     30  C   UNL     1       1.214  -0.409   2.141  0.00  0.00    -0.002 C 
ATOM     31  C   UNL     1       1.727   1.044   2.221  0.00  0.00    -0.019 C 
ATOM     32  C   UNL     1       2.312   1.418   0.886  0.00  0.00    -0.077 C 
ATOM     33  H   UNL     1       1.218   3.105   0.414  0.00  0.00    -0.080 HD
ENDBRANCH  25  26
ENDBRANCH   8  25
TORSDOF 7
