REMARK  Name = ZINC61657908
REMARK  7 active torsions:
REMARK  status: ('A' for Active; 'I' for Inactive)
REMARK    1  A    between atoms: C_1  and  C_2
REMARK    2  A    between atoms: N_5  and  C_11
REMARK    3  A    between atoms: C_7  and  C_9
REMARK    4  A    between atoms: C_7  and  C_10
REMARK    5  A    between atoms: C_11  and  C_12
REMARK    6  A    between atoms: C_17  and  C_18
REMARK    7  A    between atoms: N_19  and  O_20
REMARK                            x       y       z     vdW  Elec       q    Type
REMARK                         _______ _______ _______ _____ _____    ______ ____
ROOT
ATOM      1  C   UNL     1      -3.384  -2.273  -1.303  0.00  0.00    -0.005 A 
ATOM      2  C   UNL     1      -4.266  -1.218  -1.463  0.00  0.00    +0.008 A 
ATOM      3  C   UNL     1      -4.809  -0.993  -2.719  0.00  0.00    +0.020 A 
ATOM      4  C   UNL     1      -4.457  -1.823  -3.769  0.00  0.00    +0.111 A 
ATOM      5  N   UNL     1      -3.615  -2.819  -3.591  0.00  0.00    -0.252 NA
ATOM      6  C   UNL     1      -3.069  -3.064  -2.406  0.00  0.00    +0.111 A 
ENDROOT
BRANCH   6   7
ATOM      7  C   UNL     1      -2.121  -4.193  -2.253  0.00  0.00    +0.181 C 
ATOM      8  N   UNL     1      -1.587  -4.441  -1.094  0.00  0.00    -0.070 NA
ATOM      9  N   UNL     1      -1.804  -4.984  -3.345  0.00  0.00    -0.339 N 
ATOM     10  H   UNL     1      -2.203  -4.799  -4.210  0.00  0.00    +0.144 HD
ATOM     11  H   UNL     1      -1.184  -5.723  -3.245  0.00  0.00    +0.144 HD
BRANCH   8  12
ATOM     12  O   UNL     1      -0.681  -5.520  -0.949  0.00  0.00    -0.408 OA
ATOM     13  H   UNL     1      -0.337  -5.626  -0.051  0.00  0.00    +0.328 HD
ENDBRANCH   8  12
ENDBRANCH   6   7
BRANCH   1  14
ATOM     14  C   UNL     1      -2.768  -2.557   0.042  0.00  0.00    +0.122 C 
BRANCH  14  18
ATOM     15  C   UNL     1      -0.019   1.526   0.010  0.00  0.00    +0.039 C 
ATOM     16  C   UNL     1       0.002  -0.004   0.002  0.00  0.00    +0.130 C 
ATOM     17  C   UNL     1      -1.434  -0.535   0.015  0.00  0.00    +0.116 C 
ATOM     18  N   UNL     1      -1.407  -2.003   0.085  0.00  0.00    -0.293 NA
ATOM     19  C   UNL     1      -0.692  -2.455   1.287  0.00  0.00    +0.119 C 
ATOM     20  C   UNL     1       0.736  -1.905   1.261  0.00  0.00    +0.077 C 
ATOM     21  O   UNL     1       0.692  -0.479   1.161  0.00  0.00    -0.368 OA
ATOM     22  C   UNL     1       1.461  -2.304   2.548  0.00  0.00    +0.042 C 
ATOM     23  C   UNL     1       1.483  -2.478   0.055  0.00  0.00    +0.042 C 
ENDBRANCH  14  18
ENDBRANCH   1  14
TORSDOF 4
