REMARK  Name = ZINC64427114
REMARK  8 active torsions:
REMARK  status: ('A' for Active; 'I' for Inactive)
REMARK    1  A    between atoms: C_1  and  C_2
REMARK    2  A    between atoms: C_2  and  C_3
REMARK    3  A    between atoms: C_10  and  N_25
REMARK    4  A    between atoms: C_11  and  C_23
REMARK    5  A    between atoms: C_12  and  C_14
REMARK    6  A    between atoms: C_17  and  O_21
REMARK    7  A    between atoms: C_18  and  O_20
REMARK    8  A    between atoms: O_21  and  C_22
REMARK                            x       y       z     vdW  Elec       q    Type
REMARK                         _______ _______ _______ _____ _____    ______ ____
ROOT
ATOM      1  C   UNL     1      -1.433  -0.534   0.013  0.00  0.00    +0.160 C 
ATOM      2  C   UNL     1      -1.447  -2.036   0.064  0.00  0.00    +0.032 C 
ATOM      3  C   UNL     1      -2.060  -2.417  -1.070  0.00  0.00    +0.243 C 
ATOM      4  N   UNL     1      -2.412  -1.327  -1.789  0.00  0.00    -0.115 NA
ATOM      5  N   UNL     1      -2.108  -0.243  -1.268  0.00  0.00    -0.176 NA
ATOM      6  O   UNL     1      -2.257  -3.732  -1.368  0.00  0.00    -0.422 OA
ATOM      7  C   UNL     1      -2.073  -4.635  -0.385  0.00  0.00    +0.200 C 
ATOM      8  C   UNL     1      -1.463  -4.359   0.790  0.00  0.00    +0.098 C 
ATOM      9  C   UNL     1      -0.922  -2.983   1.100  0.00  0.00    +0.098 C 
ENDROOT
BRANCH   9  10
ATOM     10  C   UNL     1       0.584  -3.004   1.054  0.00  0.00    -0.031 A 
ATOM     11  C   UNL     1       1.234  -3.382  -0.106  0.00  0.00    +0.008 A 
ATOM     12  C   UNL     1       2.615  -3.403  -0.153  0.00  0.00    +0.050 A 
ATOM     13  C   UNL     1       3.352  -3.044   0.964  0.00  0.00    +0.161 A 
ATOM     14  C   UNL     1       2.698  -2.663   2.132  0.00  0.00    +0.159 A 
ATOM     15  C   UNL     1       1.313  -2.640   2.171  0.00  0.00    +0.053 A 
BRANCH  14  16
ATOM     16  O   UNL     1       3.417  -2.310   3.231  0.00  0.00    -0.503 OA
ATOM     17  H   UNL     1       3.628  -1.367   3.277  0.00  0.00    +0.292 HD
ENDBRANCH  14  16
BRANCH  13  18
ATOM     18  O   UNL     1       4.711  -3.064   0.920  0.00  0.00    -0.491 OA
ATOM     19  C   UNL     1       5.314  -3.466  -0.312  0.00  0.00    +0.277 C 
ENDBRANCH  13  18
ENDBRANCH   9  10
BRANCH   7  20
ATOM     20  N   UNL     1      -2.534  -5.912  -0.588  0.00  0.00    -0.328 N 
ATOM     21  H   UNL     1      -2.977  -6.141  -1.420  0.00  0.00    +0.145 HD
ATOM     22  H   UNL     1      -2.417  -6.585   0.101  0.00  0.00    +0.145 HD
ENDBRANCH   7  20
BRANCH   1  24
ATOM     23  C   UNL     1      -0.019   1.526   0.010  0.00  0.00    +0.006 C 
ATOM     24  C   UNL     1       0.002  -0.004   0.002  0.00  0.00    +0.030 C 
ENDBRANCH   1  24
BRANCH   8  25
ATOM     25  C   UNL     1      -1.325  -5.399   1.765  0.00  0.00    +0.101 C 
ATOM     26  N   UNL     1      -1.215  -6.224   2.539  0.00  0.00    -0.191 NA
ENDBRANCH   8  25
TORSDOF 6
