REMARK  Name = ZINC12342442
REMARK  17 active torsions:
REMARK  status: ('A' for Active; 'I' for Inactive)
REMARK    1  A    between atoms: C_1  and  C_2
REMARK    2  A    between atoms: C_2  and  C_3
REMARK    3  A    between atoms: C_2  and  C_4
REMARK    4  A    between atoms: C_4  and  C_5
REMARK    5  A    between atoms: C_5  and  C_7
REMARK    6  A    between atoms: C_5  and  N_18
REMARK    7  A    between atoms: C_13  and  C_15
REMARK    8  A    between atoms: C_19  and  C_21
REMARK    9  A    between atoms: C_21  and  C_23
REMARK   10  A    between atoms: C_21  and  N_26
REMARK   11  A    between atoms: C_23  and  C_24
REMARK   12  A    between atoms: C_23  and  C_25
REMARK   13  A    between atoms: C_27  and  O_29
REMARK   14  A    between atoms: O_29  and  C_30
REMARK   15  A    between atoms: C_30  and  C_31
REMARK   16  A    between atoms: C_30  and  C_32
REMARK   17  A    between atoms: C_30  and  C_33
REMARK                            x       y       z     vdW  Elec       q    Type
REMARK                         _______ _______ _______ _____ _____    ______ ____
ROOT
ATOM      1  C   UNL     1      -1.256   0.205  -0.011  0.00  0.00    +0.159 C 
ENDROOT
BRANCH   1   2
ATOM      2  C   UNL     1      -2.524  -0.286   0.638  0.00  0.00    +0.237 C 
ATOM      3  O   UNL     1      -3.444   0.481   0.828  0.00  0.00    -0.274 OA
ATOM      4  N   UNL     1      -2.636  -1.577   1.007  0.00  0.00    -0.288 N 
ATOM      5  C   UNL     1      -1.569  -2.590   0.923  0.00  0.00    +0.109 C 
ATOM      6  C   UNL     1      -1.948  -3.655   1.983  0.00  0.00    +0.021 C 
ATOM      7  C   UNL     1      -3.494  -3.682   1.858  0.00  0.00    +0.033 C 
ATOM      8  C   UNL     1      -3.841  -2.207   1.566  0.00  0.00    +0.162 C 
BRANCH   8   9
ATOM      9  C   UNL     1      -4.967  -2.137   0.567  0.00  0.00    +0.231 C 
ATOM     10  O   UNL     1      -4.788  -1.612  -0.512  0.00  0.00    -0.274 OA
ATOM     11  N   UNL     1      -6.172  -2.657   0.871  0.00  0.00    -0.328 N 
ATOM     12  H   UNL     1      -6.315  -3.076   1.734  0.00  0.00    +0.145 HD
ATOM     13  H   UNL     1      -6.897  -2.611   0.228  0.00  0.00    +0.145 HD
ENDBRANCH   8   9
ENDBRANCH   1   2
BRANCH   1  14
ATOM     14  N   UNL     1      -1.506   1.496  -0.657  0.00  0.00    -0.302 N 
ATOM     15  C   UNL     1      -0.784   1.860  -1.736  0.00  0.00    +0.234 C 
ATOM     16  O   UNL     1      -0.001   1.080  -2.233  0.00  0.00    -0.274 OA
ATOM     17  H   UNL     1      -2.190   2.088  -0.309  0.00  0.00    +0.150 HD
BRANCH  15  18
ATOM     18  C   UNL     1      -0.952   3.238  -2.324  0.00  0.00    +0.165 C 
BRANCH  18  19
ATOM     19  N   UNL     1       0.189   3.540  -3.192  0.00  0.00    -0.270 N 
ATOM     20  C   UNL     1       0.539   4.821  -3.423  0.00  0.00    +0.401 C 
ATOM     21  O   UNL     1      -0.092   5.725  -2.912  0.00  0.00    -0.226 OA
ATOM     22  H   UNL     1       0.692   2.818  -3.600  0.00  0.00    +0.153 HD
BRANCH  20  23
ATOM     23  O   UNL     1       1.587   5.098  -4.221  0.00  0.00    -0.445 OA
BRANCH  23  24
ATOM     24  C   UNL     1       1.902   6.478  -4.422  0.00  0.00    +0.107 C 
ATOM     25  C   UNL     1       2.226   7.128  -3.076  0.00  0.00    +0.055 C 
ATOM     26  C   UNL     1       3.113   6.595  -5.349  0.00  0.00    +0.055 C 
ATOM     27  C   UNL     1       0.704   7.187  -5.056  0.00  0.00    +0.055 C 
ENDBRANCH  23  24
ENDBRANCH  20  23
ENDBRANCH  18  19
BRANCH  18  28
ATOM     28  C   UNL     1      -2.243   3.289  -3.143  0.00  0.00    +0.012 C 
ATOM     29  C   UNL     1      -2.214   2.195  -4.212  0.00  0.00    +0.009 C 
ATOM     30  C   UNL     1      -3.442   3.067  -2.219  0.00  0.00    +0.009 C 
ENDBRANCH  18  28
ENDBRANCH  15  18
ENDBRANCH   1  14
BRANCH   1  31
ATOM     31  C   UNL     1      -0.169   0.370   1.054  0.00  0.00    +0.034 C 
BRANCH  31  33
ATOM     32  C   UNL     1      -1.633   0.968   2.989  0.00  0.00    +0.007 C 
ATOM     33  C   UNL     1      -0.568   1.487   2.021  0.00  0.00    -0.015 C 
ATOM     34  C   UNL     1       0.661   1.941   2.811  0.00  0.00    +0.007 C 
ENDBRANCH  31  33
ENDBRANCH   1  31
TORSDOF 10
