REMARK  Name = ZINC62666662
REMARK  4 active torsions:
REMARK  status: ('A' for Active; 'I' for Inactive)
REMARK    1  A    between atoms: C_1  and  C_2
REMARK    2  A    between atoms: C_7  and  C_8
REMARK    3  A    between atoms: C_10  and  C_13
REMARK    4  A    between atoms: C_18  and  N_19
REMARK                            x       y       z     vdW  Elec       q    Type
REMARK                         _______ _______ _______ _____ _____    ______ ____
ROOT
ATOM      1  C   UNL     1       0.204   0.148   2.403  0.00  0.00    +0.259 A 
ATOM      2  N   UNL     1       0.428  -0.321   3.608  0.00  0.00    -0.187 NA
ATOM      3  C   UNL     1       0.381   0.678   4.504  0.00  0.00    +0.204 A 
ATOM      4  N   UNL     1       0.124   1.800   3.873  0.00  0.00    -0.056 NA
ATOM      5  O   UNL     1       0.011   1.475   2.496  0.00  0.00    -0.332 OA
ENDROOT
BRANCH   1  12
ATOM      6  C   UNL     1      -1.956   0.525   0.517  0.00  0.00    +0.044 C 
ATOM      7  C   UNL     1      -0.862  -0.473   0.239  0.00  0.00    -0.038 A 
ATOM      8  C   UNL     1      -0.882  -1.213  -0.925  0.00  0.00    +0.007 A 
ATOM      9  C   UNL     1       0.121  -2.130  -1.183  0.00  0.00    +0.038 A 
ATOM     10  C   UNL     1       1.152  -2.312  -0.275  0.00  0.00    +0.124 A 
ATOM     11  C   UNL     1       1.182  -1.577   0.895  0.00  0.00    +0.052 A 
ATOM     12  C   UNL     1       0.175  -0.647   1.156  0.00  0.00    +0.045 A 
ATOM     13  F   UNL     1       2.128  -3.210  -0.533  0.00  0.00    -0.205 F 
ENDBRANCH   1  12
BRANCH   3  14
ATOM     14  C   UNL     1       0.585   0.537   5.966  0.00  0.00    +0.043 A 
ATOM     15  C   UNL     1      -0.302   1.138   6.857  0.00  0.00    +0.013 A 
ATOM     16  C   UNL     1      -0.108   1.004   8.216  0.00  0.00    +0.001 A 
ATOM     17  C   UNL     1       0.964   0.274   8.701  0.00  0.00    +0.002 A 
ATOM     18  C   UNL     1       1.850  -0.326   7.828  0.00  0.00    +0.023 A 
ATOM     19  C   UNL     1       1.665  -0.205   6.457  0.00  0.00    +0.035 A 
BRANCH  19  20
ATOM     20  N   UNL     1       2.554  -0.814   5.575  0.00  0.00    -0.357 N 
ATOM     21  H   UNL     1       2.387  -0.784   4.620  0.00  0.00    +0.142 HD
ATOM     22  H   UNL     1       3.340  -1.269   5.915  0.00  0.00    +0.142 HD
ENDBRANCH  19  20
ENDBRANCH   3  14
TORSDOF 3
