REMARK  Name = ZINC02480154
REMARK  7 active torsions:
REMARK  status: ('A' for Active; 'I' for Inactive)
REMARK    1  A    between atoms: C_1  and  C_2
REMARK    2  A    between atoms: C_3  and  C_21
REMARK    3  A    between atoms: C_4  and  C_10
REMARK    4  A    between atoms: C_13  and  O_18
REMARK    5  A    between atoms: C_15  and  O_16
REMARK    6  A    between atoms: O_16  and  C_17
REMARK    7  A    between atoms: O_18  and  C_19
REMARK                            x       y       z     vdW  Elec       q    Type
REMARK                         _______ _______ _______ _____ _____    ______ ____
ROOT
ATOM      1  C   UNL     1       4.342   5.565   3.340  0.00  0.00    +0.061 C 
ATOM      2  C   UNL     1       3.952   4.986   2.005  0.00  0.00    +0.017 C 
ATOM      3  C   UNL     1       2.726   5.244   1.502  0.00  0.00    +0.055 C 
ATOM      4  C   UNL     1       2.374   4.642   0.157  0.00  0.00    +0.143 C 
ATOM      5  N   UNL     1       3.407   3.819  -0.496  0.00  0.00    -0.315 N 
ATOM      6  C   UNL     1       4.587   3.653   0.132  0.00  0.00    +0.135 C 
ATOM      7  S   UNL     1       5.796   2.700  -0.615  0.00  0.00    -0.019 S 
ATOM      8  N   UNL     1       4.844   4.209   1.323  0.00  0.00    -0.300 N 
ATOM      9  H   UNL     1       3.205   3.357  -1.473  0.00  0.00    +0.149 HD
ATOM     10  H   UNL     1       5.838   4.010   1.749  0.00  0.00    +0.154 HD
ENDROOT
BRANCH   4  11
ATOM     11  C   UNL     1       1.145   3.789   0.337  0.00  0.00    +0.020 A 
ATOM     12  C   UNL     1       1.275   2.437   0.594  0.00  0.00    +0.028 A 
ATOM     13  C   UNL     1       0.149   1.652   0.759  0.00  0.00    +0.060 A 
ATOM     14  C   UNL     1      -1.114   2.219   0.662  0.00  0.00    +0.137 A 
ATOM     15  C   UNL     1      -1.246   3.575   0.409  0.00  0.00    +0.092 A 
ATOM     16  C   UNL     1      -0.115   4.361   0.243  0.00  0.00    +0.129 A 
ATOM     17 BR   UNL     1       0.331  -0.197   1.112  0.00  0.00    -0.047 Br
BRANCH  16  18
ATOM     18  O   UNL     1      -0.242   5.690  -0.011  0.00  0.00    -0.495 OA
ATOM     19  C   UNL     1      -1.562   6.234   0.025  0.00  0.00    +0.277 C 
ENDBRANCH  16  18
BRANCH  14  20
ATOM     20  O   UNL     1      -2.221   1.446   0.819  0.00  0.00    -0.494 OA
ATOM     21  C   UNL     1      -3.488   2.096   0.705  0.00  0.00    +0.277 C 
ENDBRANCH  14  20
ENDBRANCH   4  11
BRANCH   3  22
ATOM     22  C   UNL     1       1.800   6.050   2.208  0.00  0.00    +0.241 C 
ATOM     23  O   UNL     1       1.613   7.204   1.867  0.00  0.00    -0.271 OA
ATOM     24  N   UNL     1       1.125   5.540   3.258  0.00  0.00    -0.326 N 
ATOM     25  H   UNL     1       0.406   6.166   3.806  0.00  0.00    +0.145 HD
ATOM     26  H   UNL     1       1.294   4.498   3.566  0.00  0.00    +0.145 HD
ENDBRANCH   3  22
TORSDOF 4
