REMARK  Name = ZINC36481111
REMARK  15 active torsions:
REMARK  status: ('A' for Active; 'I' for Inactive)
REMARK    1  A    between atoms: C_1  and  C_2
REMARK    2  A    between atoms: C_2  and  C_3
REMARK    3  A    between atoms: C_3  and  C_4
REMARK    4  A    between atoms: C_4  and  N_5
REMARK    5  A    between atoms: C_6  and  C_8
REMARK    6  A    between atoms: C_8  and  C_10
REMARK    7  A    between atoms: C_8  and  N_19
REMARK    8  A    between atoms: C_11  and  O_18
REMARK    9  A    between atoms: C_13  and  O_17
REMARK   10  A    between atoms: C_15  and  O_16
REMARK   11  A    between atoms: N_19  and  C_20
REMARK   12  A    between atoms: C_27  and  C_29
REMARK   13  A    between atoms: C_29  and  C_31
REMARK   14  A    between atoms: C_29  and  O_37
REMARK   15  A    between atoms: O_37  and  C_38
REMARK                            x       y       z     vdW  Elec       q    Type
REMARK                         _______ _______ _______ _____ _____    ______ ____
ROOT
ATOM      1  C   UNL     1      -3.634  -4.821   0.787  0.00  0.00    +0.204 C 
ENDROOT
BRANCH   1   2
ATOM      2  C   UNL     1      -3.969  -3.947  -0.394  0.00  0.00    +0.065 A 
ATOM      3  C   UNL     1      -3.721  -4.399  -1.682  0.00  0.00    +0.129 A 
ATOM      4  C   UNL     1      -4.029  -3.595  -2.769  0.00  0.00    +0.091 A 
ATOM      5  C   UNL     1      -4.585  -2.340  -2.569  0.00  0.00    +0.124 A 
ATOM      6  C   UNL     1      -4.833  -1.889  -1.282  0.00  0.00    +0.091 A 
ATOM      7  C   UNL     1      -4.529  -2.695  -0.194  0.00  0.00    +0.129 A 
BRANCH   7   8
ATOM      8  O   UNL     1      -4.777  -2.255   1.067  0.00  0.00    -0.506 OA
ATOM      9  H   UNL     1      -4.040  -1.772   1.467  0.00  0.00    +0.292 HD
ENDBRANCH   7   8
BRANCH   5  10
ATOM     10  O   UNL     1      -4.886  -1.552  -3.635  0.00  0.00    -0.507 OA
ATOM     11  H   UNL     1      -5.782  -1.677  -3.976  0.00  0.00    +0.292 HD
ENDBRANCH   5  10
BRANCH   3  12
ATOM     12  O   UNL     1      -3.177  -5.628  -1.878  0.00  0.00    -0.506 OA
ATOM     13  H   UNL     1      -3.828  -6.341  -1.941  0.00  0.00    +0.292 HD
ENDBRANCH   3  12
ENDBRANCH   1   2
BRANCH   1  15
ATOM     14  N   UNL     1      -1.423  -3.724   0.635  0.00  0.00    -0.313 N 
ATOM     15  C   UNL     1      -2.147  -4.788   1.031  0.00  0.00    +0.239 C 
ATOM     16  O   UNL     1      -1.603  -5.721   1.584  0.00  0.00    -0.273 OA
ATOM     17  H   UNL     1      -1.858  -2.978   0.193  0.00  0.00    +0.149 HD
BRANCH  14  18
ATOM     18  C   UNL     1       0.023  -3.692   0.871  0.00  0.00    +0.104 C 
BRANCH  18  19
ATOM     19  C   UNL     1       0.600  -2.383   0.329  0.00  0.00    +0.018 C 
BRANCH  19  21
ATOM     20  C   UNL     1       2.687  -1.041   0.034  0.00  0.00    +0.004 C 
ATOM     21  C   UNL     1       2.110  -2.350   0.577  0.00  0.00    -0.002 C 
ENDBRANCH  19  21
ENDBRANCH  18  19
ENDBRANCH  14  18
ENDBRANCH   1  15
BRANCH   1  22
ATOM     22  N   UNL     1      -4.054  -6.197   0.512  0.00  0.00    -0.253 N 
ATOM     23  C   UNL     1      -5.326  -6.453   0.144  0.00  0.00    +0.254 C 
ATOM     24  O   UNL     1      -6.102  -5.537  -0.030  0.00  0.00    -0.272 OA
BRANCH  22  25
ATOM     25  C   UNL     1      -3.136  -7.246   0.631  0.00  0.00    +0.039 A 
ATOM     26  C   UNL     1      -3.369  -8.276   1.533  0.00  0.00    +0.023 A 
ATOM     27  C   UNL     1      -2.460  -9.310   1.648  0.00  0.00    +0.003 A 
ATOM     28  C   UNL     1      -1.320  -9.321   0.867  0.00  0.00    +0.020 A 
ATOM     29  C   UNL     1      -1.084  -8.296  -0.033  0.00  0.00    +0.043 A 
ATOM     30  C   UNL     1      -1.993  -7.262  -0.157  0.00  0.00    +0.043 A 
ATOM     31 CL   UNL     1       0.349  -8.314  -1.012  0.00  0.00    -0.083 Cl
ENDBRANCH  22  25
BRANCH  23  32
ATOM     32  C   UNL     1      -5.782  -7.876  -0.050  0.00  0.00    +0.234 C 
BRANCH  32  33
ATOM     33  C   UNL     1      -5.276  -8.389  -1.373  0.00  0.00    -0.010 A 
ATOM     34  C   UNL     1      -6.005  -8.164  -2.526  0.00  0.00    +0.006 A 
ATOM     35  C   UNL     1      -5.542  -8.636  -3.740  0.00  0.00    +0.000 A 
ATOM     36  C   UNL     1      -4.349  -9.332  -3.801  0.00  0.00    +0.000 A 
ATOM     37  C   UNL     1      -3.619  -9.556  -2.648  0.00  0.00    +0.000 A 
ATOM     38  C   UNL     1      -4.081  -9.081  -1.435  0.00  0.00    +0.006 A 
ENDBRANCH  32  33
BRANCH  32  39
ATOM     39  O   UNL     1      -7.210  -7.924  -0.034  0.00  0.00    -0.366 OA
ATOM     40  C   UNL     1      -7.771  -8.127   1.265  0.00  0.00    +0.195 C 
ENDBRANCH  32  39
ENDBRANCH  23  32
ENDBRANCH   1  22
TORSDOF 13
