REMARK  Name = ZINC04366778
REMARK  10 active torsions:
REMARK  status: ('A' for Active; 'I' for Inactive)
REMARK    1  A    between atoms: C_4  and  C_7
REMARK    2  A    between atoms: C_7  and  C_8
REMARK    3  A    between atoms: C_7  and  C_14
REMARK    4  A    between atoms: C_7  and  O_20
REMARK    5  A    between atoms: O_20  and  C_21
REMARK    6  A    between atoms: C_21  and  C_22
REMARK    7  A    between atoms: C_24  and  O_42
REMARK    8  A    between atoms: C_26  and  O_41
REMARK    9  A    between atoms: C_28  and  N_31
REMARK   10  A    between atoms: C_39  and  N_40
REMARK                            x       y       z     vdW  Elec       q    Type
REMARK                         _______ _______ _______ _____ _____    ______ ____
ROOT
ATOM      1  C   UNL     1      -2.404   0.975   1.836  0.00  0.00    +0.196 C 
ENDROOT
BRANCH   1   2
ATOM      2  C   UNL     1      -3.668   0.193   2.201  0.00  0.00    +0.178 C 
ATOM      3  C   UNL     1      -3.640  -0.207   3.693  0.00  0.00    +0.178 C 
ATOM      4  C   UNL     1      -4.276  -1.616   3.715  0.00  0.00    +0.195 C 
ATOM      5  C   UNL     1      -4.612  -1.899   2.234  0.00  0.00    +0.253 C 
ATOM      6  O   UNL     1      -3.708  -1.059   1.483  0.00  0.00    -0.346 OA
BRANCH   5   7
ATOM      7  N   UNL     1      -4.377  -3.311   1.919  0.00  0.00    -0.286 N 
ATOM      8  C   UNL     1      -3.223  -3.847   1.433  0.00  0.00    +0.203 A 
ATOM      9  N   UNL     1      -3.363  -5.130   1.269  0.00  0.00    -0.231 NA
ATOM     10  C   UNL     1      -4.614  -5.498   1.638  0.00  0.00    +0.147 A 
ATOM     11  C   UNL     1      -5.278  -4.335   2.066  0.00  0.00    +0.167 A 
ATOM     12  N   UNL     1      -6.538  -4.426   2.478  0.00  0.00    -0.216 NA
ATOM     13  C   UNL     1      -7.155  -5.588   2.498  0.00  0.00    +0.225 A 
ATOM     14  N   UNL     1      -6.571  -6.708   2.112  0.00  0.00    -0.219 NA
ATOM     15  C   UNL     1      -5.315  -6.715   1.678  0.00  0.00    +0.147 A 
BRANCH  15  16
ATOM     16  N   UNL     1      -4.711  -7.893   1.276  0.00  0.00    -0.341 N 
ATOM     17  H   UNL     1      -4.432  -7.815   0.319  0.00  0.00    +0.144 HD
ATOM     18  H   UNL     1      -5.206  -8.727   1.308  0.00  0.00    +0.144 HD
ENDBRANCH  15  16
ENDBRANCH   5   7
BRANCH   4  19
ATOM     19  O   UNL     1      -3.345  -2.580   4.211  0.00  0.00    -0.385 OA
ATOM     20  H   UNL     1      -3.098  -2.449   5.137  0.00  0.00    +0.210 HD
ENDBRANCH   4  19
BRANCH   3  21
ATOM     21  O   UNL     1      -2.295  -0.257   4.173  0.00  0.00    -0.386 OA
ATOM     22  H   UNL     1      -2.219  -0.504   5.105  0.00  0.00    +0.210 HD
ENDBRANCH   3  21
ENDBRANCH   1   2
BRANCH   1  23
ATOM     23  O   UNL     1      -2.470   1.373   0.465  0.00  0.00    -0.357 OA
BRANCH  23  24
ATOM     24  C   UNL     1      -1.332   2.114   0.020  0.00  0.00    +0.144 C 
BRANCH  24  28
ATOM     25  C   UNL     1       2.179  -0.275   0.482  0.00  0.00    +0.000 A 
ATOM     26  C   UNL     1       1.844   0.655   1.448  0.00  0.00    +0.000 A 
ATOM     27  C   UNL     1       0.709   1.430   1.298  0.00  0.00    +0.007 A 
ATOM     28  C   UNL     1      -0.091   1.274   0.181  0.00  0.00    -0.007 A 
ATOM     29  C   UNL     1       0.244   0.344  -0.785  0.00  0.00    +0.007 A 
ATOM     30  C   UNL     1       1.379  -0.431  -0.634  0.00  0.00    +0.000 A 
ENDBRANCH  24  28
BRANCH  24  31
ATOM     31  C   UNL     1      -1.198   3.370   0.841  0.00  0.00    -0.007 A 
ATOM     32  C   UNL     1      -0.007   4.072   0.842  0.00  0.00    +0.007 A 
ATOM     33  C   UNL     1       0.114   5.227   1.591  0.00  0.00    +0.000 A 
ATOM     34  C   UNL     1      -0.953   5.675   2.348  0.00  0.00    +0.000 A 
ATOM     35  C   UNL     1      -2.142   4.971   2.351  0.00  0.00    +0.000 A 
ATOM     36  C   UNL     1      -2.265   3.819   1.597  0.00  0.00    +0.007 A 
ENDBRANCH  24  31
BRANCH  24  37
ATOM     37  C   UNL     1      -1.507   2.479  -1.432  0.00  0.00    -0.007 A 
ATOM     38  C   UNL     1      -0.399   2.623  -2.246  0.00  0.00    +0.007 A 
ATOM     39  C   UNL     1      -0.560   2.953  -3.579  0.00  0.00    +0.000 A 
ATOM     40  C   UNL     1      -1.827   3.148  -4.095  0.00  0.00    +0.000 A 
ATOM     41  C   UNL     1      -2.934   3.009  -3.279  0.00  0.00    +0.000 A 
ATOM     42  C   UNL     1      -2.774   2.674  -1.948  0.00  0.00    +0.007 A 
ENDBRANCH  24  37
ENDBRANCH  23  24
ENDBRANCH   1  23
TORSDOF 10
