REMARK  Name = ZINC20493826
REMARK  8 active torsions:
REMARK  status: ('A' for Active; 'I' for Inactive)
REMARK    1  A    between atoms: C_7  and  C_29
REMARK    2  A    between atoms: C_11  and  O_12
REMARK    3  A    between atoms: O_12  and  C_13
REMARK    4  A    between atoms: C_15  and  O_28
REMARK    5  A    between atoms: C_17  and  O_27
REMARK    6  A    between atoms: C_19  and  O_26
REMARK    7  A    between atoms: C_21  and  C_24
REMARK    8  A    between atoms: C_24  and  O_25
REMARK                            x       y       z     vdW  Elec       q    Type
REMARK                         _______ _______ _______ _____ _____    ______ ____
ROOT
ATOM      1  C   UNL     1      -2.643   0.874   0.290  0.00  0.00    +0.047 A 
ATOM      2  C   UNL     1      -3.970   0.566   0.394  0.00  0.00    +0.019 A 
ATOM      3  C   UNL     1      -4.692   0.981   1.513  0.00  0.00    +0.064 A 
ATOM      4  C   UNL     1      -6.128   0.672   1.656  0.00  0.00    +0.193 A 
ATOM      5  O   UNL     1      -6.729   0.043   0.801  0.00  0.00    -0.287 OA
ATOM      6  C   UNL     1      -6.778   1.133   2.821  0.00  0.00    +0.100 A 
ATOM      7  C   UNL     1      -6.072   1.833   3.754  0.00  0.00    +0.158 A 
ATOM      8  O   UNL     1      -4.766   2.108   3.612  0.00  0.00    -0.453 OA
ATOM      9  C   UNL     1      -4.059   1.710   2.534  0.00  0.00    +0.143 A 
ATOM     10  C   UNL     1      -2.710   2.010   2.417  0.00  0.00    +0.092 A 
ATOM     11  C   UNL     1      -2.006   1.591   1.300  0.00  0.00    +0.128 A 
ENDROOT
BRANCH   7  12
ATOM     12  C   UNL     1      -6.769   2.304   4.963  0.00  0.00    +0.113 A 
ATOM     13  C   UNL     1      -6.107   3.012   5.934  0.00  0.00    +0.078 A 
ATOM     14  S   UNL     1      -7.377   3.296   7.081  0.00  0.00    -0.083 S 
ATOM     15  C   UNL     1      -8.659   2.490   6.237  0.00  0.00    +0.156 A 
ATOM     16  N   UNL     1      -8.067   2.063   5.151  0.00  0.00    -0.244 NA
ENDBRANCH   7  12
BRANCH  11  17
ATOM     17  O   UNL     1      -0.686   1.886   1.186  0.00  0.00    -0.461 OA
BRANCH  17  18
ATOM     18  C   UNL     1      -0.017   1.425   0.010  0.00  0.00    +0.339 C 
ATOM     19  C   UNL     1       1.419   1.953  -0.001  0.00  0.00    +0.214 C 
ATOM     20  C   UNL     1       2.171   1.393   1.211  0.00  0.00    +0.180 C 
ATOM     21  C   UNL     1       2.114  -0.137   1.170  0.00  0.00    +0.177 C 
ATOM     22  C   UNL     1       0.650  -0.585   1.135  0.00  0.00    +0.179 C 
ATOM     23  O   UNL     1       0.002  -0.004   0.002  0.00  0.00    -0.331 OA
BRANCH  21  24
ATOM     24  O   UNL     1       2.785  -0.610   0.001  0.00  0.00    -0.386 OA
ATOM     25  H   UNL     1       2.847  -1.690  -0.199  0.00  0.00    +0.210 HD
ENDBRANCH  21  24
BRANCH  20  26
ATOM     26  O   UNL     1       1.556   1.862   2.413  0.00  0.00    -0.386 OA
ATOM     27  H   UNL     1       1.961   1.562   3.390  0.00  0.00    +0.210 HD
ENDBRANCH  20  26
BRANCH  19  28
ATOM     28  O   UNL     1       1.404   3.381   0.065  0.00  0.00    -0.383 OA
ATOM     29  H   UNL     1       2.350   3.942   0.068  0.00  0.00    +0.210 HD
ENDBRANCH  19  28
BRANCH  22  30
ATOM     30  C   UNL     1       0.585  -2.110   1.034  0.00  0.00    +0.190 C 
BRANCH  30  31
ATOM     31  O   UNL     1      -0.776  -2.536   1.118  0.00  0.00    -0.392 OA
ATOM     32  H   UNL     1      -1.022  -3.607   1.063  0.00  0.00    +0.210 HD
ENDBRANCH  30  31
ENDBRANCH  22  30
ENDBRANCH  17  18
ENDBRANCH  11  17
TORSDOF 8
