REMARK  Name = ZINC64940561
REMARK  6 active torsions:
REMARK  status: ('A' for Active; 'I' for Inactive)
REMARK    1  A    between atoms: C_3  and  C_6
REMARK    2  A    between atoms: C_6  and  C_7
REMARK    3  A    between atoms: C_7  and  N_8
REMARK    4  A    between atoms: N_11  and  N_12
REMARK    5  A    between atoms: N_12  and  S_13
REMARK    6  A    between atoms: S_13  and  C_16
REMARK                            x       y       z     vdW  Elec       q    Type
REMARK                         _______ _______ _______ _____ _____    ______ ____
ROOT
ATOM      1  N   UNL     1       8.195   3.427   1.337  0.00  0.00    -0.107 NA
ATOM      2  H   UNL     1       8.256   2.724   0.672  0.00  0.00    +0.172 HD
ENDROOT
BRANCH   1   6
ATOM      3  N   UNL     1       5.633   2.506   1.403  0.00  0.00    -0.298 N 
ATOM      4  C   UNL     1       6.279   2.728   2.565  0.00  0.00    +0.315 C 
ATOM      5  O   UNL     1       5.717   2.517   3.623  0.00  0.00    -0.251 OA
ATOM      6  N   UNL     1       7.547   3.184   2.555  0.00  0.00    -0.216 N 
ATOM      7  H   UNL     1       6.082   2.674   0.560  0.00  0.00    +0.150 HD
ATOM      8  H   UNL     1       8.012   3.344   3.392  0.00  0.00    +0.172 HD
BRANCH   3   9
ATOM      9  C   UNL     1       4.255   2.011   1.414  0.00  0.00    +0.111 C 
BRANCH   9  10
ATOM     10  C   UNL     1       3.761   1.845  -0.024  0.00  0.00    +0.061 C 
BRANCH  10  13
ATOM     11  C   UNL     1      -0.016   1.351   0.009  0.00  0.00    +0.008 A 
ATOM     12  C   UNL     1       1.183   2.038   0.002  0.00  0.00    +0.011 A 
ATOM     13  C   UNL     1       2.343   1.336  -0.013  0.00  0.00    -0.009 A 
ATOM     14  S   UNL     1       1.754  -0.349  -0.017  0.00  0.00    -0.102 S 
ATOM     15  C   UNL     1       0.002  -0.004   0.002  0.00  0.00    +0.045 A 
ENDBRANCH  10  13
ENDBRANCH   9  10
ENDBRANCH   3   9
ENDBRANCH   1   6
BRANCH   1  16
ATOM     16  S   UNL     1       8.854   4.915   1.032  0.00  0.00    +0.074 S 
ATOM     17  O   UNL     1       9.553   4.805  -0.200  0.00  0.00    -0.152 OA
ATOM     18  O   UNL     1       7.821   5.868   1.239  0.00  0.00    -0.152 OA
BRANCH  16  19
ATOM     19  C   UNL     1      10.068   5.211   2.275  0.00  0.00    +0.107 A 
ATOM     20  C   UNL     1       9.708   5.833   3.456  0.00  0.00    +0.030 A 
ATOM     21  C   UNL     1      10.657   6.067   4.433  0.00  0.00    +0.025 A 
ATOM     22  C   UNL     1      11.973   5.675   4.226  0.00  0.00    +0.037 A 
ATOM     23  C   UNL     1      12.331   5.051   3.039  0.00  0.00    -0.024 A 
ATOM     24  C   UNL     1      11.377   4.815   2.069  0.00  0.00    +0.034 A 
ATOM     25  C   UNL     1      13.759   4.625   2.816  0.00  0.00    +0.046 C 
ATOM     26  C   UNL     1      14.701   5.624   3.490  0.00  0.00    +0.101 C 
ATOM     27  C   UNL     1      14.248   5.884   4.901  0.00  0.00    +0.218 C 
ATOM     28  O   UNL     1      15.073   6.074   5.770  0.00  0.00    -0.275 OA
ATOM     29  N   UNL     1      12.938   5.908   5.211  0.00  0.00    -0.285 N 
ATOM     30  H   UNL     1      12.662   6.089   6.123  0.00  0.00    +0.155 HD
ENDBRANCH  16  19
ENDBRANCH   1  16
TORSDOF 6
