REMARK  Name = ZINC40687512
REMARK  5 active torsions:
REMARK  status: ('A' for Active; 'I' for Inactive)
REMARK    1  A    between atoms: C_6  and  S_7
REMARK    2  A    between atoms: S_7  and  C_8
REMARK    3  A    between atoms: C_9  and  N_21
REMARK    4  A    between atoms: C_10  and  N_14
REMARK    5  A    between atoms: N_14  and  C_15
REMARK                            x       y       z     vdW  Elec       q    Type
REMARK                         _______ _______ _______ _____ _____    ______ ____
ROOT
ATOM      1  C   UNL     1      -0.981  -2.575  -0.428  0.00  0.00    +0.127 A 
ATOM      2  C   UNL     1      -1.935  -3.595  -0.426  0.00  0.00    +0.098 A 
ATOM      3  C   UNL     1      -1.492  -4.912  -0.556  0.00  0.00    +0.148 A 
ATOM      4  N   UNL     1      -0.187  -5.145  -0.677  0.00  0.00    -0.219 NA
ATOM      5  C   UNL     1       0.681  -4.153  -0.674  0.00  0.00    +0.224 A 
ATOM      6  N   UNL     1       0.305  -2.896  -0.558  0.00  0.00    -0.227 NA
ENDROOT
BRANCH   2   7
ATOM      7  N   UNL     1      -3.302  -3.304  -0.296  0.00  0.00    -0.353 N 
ATOM      8  H   UNL     1      -3.595  -2.384  -0.205  0.00  0.00    +0.142 HD
ATOM      9  H   UNL     1      -3.953  -4.023  -0.296  0.00  0.00    +0.142 HD
ENDBRANCH   2   7
BRANCH   3  10
ATOM     10  N   UNL     1      -2.400  -5.966  -0.560  0.00  0.00    -0.298 N 
ATOM     11  H   UNL     1      -3.353  -5.785  -0.549  0.00  0.00    +0.154 HD
BRANCH  10  12
ATOM     12  C   UNL     1      -1.941  -7.281  -0.580  0.00  0.00    +0.035 A 
ATOM     13  C   UNL     1      -0.740  -7.629   0.038  0.00  0.00    +0.041 A 
ATOM     14  C   UNL     1      -0.321  -8.942  -0.004  0.00  0.00    +0.084 A 
ATOM     15  N   UNL     1      -1.041  -9.863  -0.617  0.00  0.00    -0.367 N 
ATOM     16  C   UNL     1      -2.183  -9.574  -1.213  0.00  0.00    +0.084 A 
ATOM     17  C   UNL     1      -2.674  -8.285  -1.212  0.00  0.00    +0.041 A 
ATOM     18  H   UNL     1      -0.721 -10.779  -0.631  0.00  0.00    +0.165 HD
ENDBRANCH  10  12
ENDBRANCH   3  10
BRANCH   1  19
ATOM     19  S   UNL     1      -1.471  -0.891  -0.267  0.00  0.00    -0.068 S 
BRANCH  19  25
ATOM     20  C   UNL     1       0.472   0.338  -1.751  0.00  0.00    +0.016 A 
ATOM     21  C   UNL     1       1.647   1.045  -1.912  0.00  0.00    +0.021 A 
ATOM     22  C   UNL     1       2.382   1.429  -0.804  0.00  0.00    +0.041 A 
ATOM     23  C   UNL     1       1.942   1.106   0.468  0.00  0.00    +0.021 A 
ATOM     24  C   UNL     1       0.768   0.398   0.635  0.00  0.00    +0.016 A 
ATOM     25  C   UNL     1       0.028   0.012  -0.476  0.00  0.00    +0.014 A 
ATOM     26 CL   UNL     1       3.858   2.319  -1.009  0.00  0.00    -0.084 Cl
ENDBRANCH  19  25
ENDBRANCH   1  19
TORSDOF 5
