REMARK  Name = ZINC14472061
REMARK  7 active torsions:
REMARK  status: ('A' for Active; 'I' for Inactive)
REMARK    1  A    between atoms: C_1  and  C_2
REMARK    2  A    between atoms: C_2  and  C_3
REMARK    3  A    between atoms: C_2  and  C_4
REMARK    4  A    between atoms: C_4  and  O_5
REMARK    5  A    between atoms: O_5  and  C_6
REMARK    6  A    between atoms: C_19  and  C_22
REMARK    7  A    between atoms: C_26  and  N_28
REMARK                            x       y       z     vdW  Elec       q    Type
REMARK                         _______ _______ _______ _____ _____    ______ ____
ROOT
ATOM      1  C   UNL     1       3.425   1.433  -1.273  0.00  0.00    +0.121 A 
ATOM      2  C   UNL     1       4.008   2.317  -0.376  0.00  0.00    +0.047 A 
ATOM      3  C   UNL     1       5.329   2.684  -0.527  0.00  0.00    +0.027 A 
ATOM      4  C   UNL     1       6.083   2.181  -1.580  0.00  0.00    +0.032 A 
ATOM      5  C   UNL     1       5.486   1.303  -2.491  0.00  0.00    -0.016 A 
ATOM      6  C   UNL     1       4.168   0.933  -2.332  0.00  0.00    +0.051 A 
ATOM      7  C   UNL     1       6.316   0.816  -3.614  0.00  0.00    +0.049 C 
ATOM      8  C   UNL     1       6.044  -0.480  -4.287  0.00  0.00    -0.023 C 
ATOM      9  C   UNL     1       7.194  -0.983  -4.719  0.00  0.00    -0.030 C 
ATOM     10  C   UNL     1       8.349  -0.057  -4.331  0.00  0.00    +0.033 C 
ATOM     11  C   UNL     1       7.776   0.649  -3.095  0.00  0.00    +0.029 C 
ATOM     12  C   UNL     1       8.268   2.057  -2.811  0.00  0.00    +0.105 C 
ATOM     13  N   UNL     1       7.430   2.556  -1.699  0.00  0.00    -0.336 N 
ATOM     14  H   UNL     1       7.819   3.153  -1.041  0.00  0.00    +0.147 HD
ENDROOT
BRANCH  12  15
ATOM     15  C   UNL     1       9.717   2.029  -2.399  0.00  0.00    -0.025 A 
ATOM     16  C   UNL     1      10.061   1.695  -1.102  0.00  0.00    +0.005 A 
ATOM     17  C   UNL     1      11.390   1.669  -0.724  0.00  0.00    +0.003 A 
ATOM     18  C   UNL     1      12.376   1.976  -1.643  0.00  0.00    +0.033 A 
ATOM     19  C   UNL     1      12.033   2.309  -2.940  0.00  0.00    +0.127 A 
ATOM     20  C   UNL     1      10.704   2.331  -3.319  0.00  0.00    +0.038 A 
BRANCH  19  21
ATOM     21  N   UNL     1      13.089   2.639  -3.924  0.00  0.00    +0.056 N 
ATOM     22  O   UNL     1      14.260   2.617  -3.590  0.00  0.00    -0.126 OA
ATOM     23  O   UNL     1      12.786   2.932  -5.066  0.00  0.00    -0.126 OA
ENDBRANCH  19  21
ENDBRANCH  12  15
BRANCH   1  24
ATOM     24  O   UNL     1       2.126   1.061  -1.116  0.00  0.00    -0.492 OA
BRANCH  24  25
ATOM     25  C   UNL     1       1.423   1.615  -0.003  0.00  0.00    +0.232 C 
BRANCH  25  27
ATOM     26  C   UNL     1      -0.753   1.593  -1.232  0.00  0.00    +0.010 C 
ATOM     27  C   UNL     1      -0.013   1.086   0.008  0.00  0.00    +0.020 C 
ATOM     28  C   UNL     1      -0.729   1.579   1.267  0.00  0.00    +0.010 C 
ENDBRANCH  25  27
ENDBRANCH  24  25
ENDBRANCH   1  24
TORSDOF 5
