REMARK  Name = ZINC30587499
REMARK  4 active torsions:
REMARK  status: ('A' for Active; 'I' for Inactive)
REMARK    1  A    between atoms: C_3  and  C_12
REMARK    2  A    between atoms: C_12  and  N_13
REMARK    3  A    between atoms: C_21  and  C_23
REMARK    4  A    between atoms: C_23  and  N_24
REMARK                            x       y       z     vdW  Elec       q    Type
REMARK                         _______ _______ _______ _____ _____    ______ ____
ROOT
ATOM      1  N   UNL     1      -0.265  -2.628  -2.454  0.00  0.00    -0.324 N 
ATOM      2  C   UNL     1      -0.312  -2.005  -1.220  0.00  0.00    +0.131 A 
ATOM      3  C   UNL     1      -0.330  -2.776  -0.024  0.00  0.00    +0.051 A 
ATOM      4  C   UNL     1      -0.304  -4.231   0.128  0.00  0.00    -0.025 A 
ATOM      5  C   UNL     1      -0.329  -4.715   1.387  0.00  0.00    -0.004 A 
ATOM      6  S   UNL     1      -0.388  -3.284   2.431  0.00  0.00    -0.073 S 
ATOM      7  C   UNL     1      -0.378  -2.034   1.173  0.00  0.00    +0.114 A 
ATOM      8  N   UNL     1      -0.405  -0.715   1.166  0.00  0.00    -0.227 NA
ATOM      9  C   UNL     1      -0.386  -0.055   0.025  0.00  0.00    +0.116 A 
ATOM     10  N   UNL     1      -0.346  -0.685  -1.136  0.00  0.00    -0.219 NA
ATOM     11  C   UNL     1      -0.310  -6.153   1.807  0.00  0.00    +0.043 C 
ATOM     12  C   UNL     1      -0.632  -7.021   0.581  0.00  0.00    +0.005 C 
ATOM     13  C   UNL     1       0.228  -6.548  -0.594  0.00  0.00    +0.005 C 
ATOM     14  C   UNL     1      -0.250  -5.176  -1.069  0.00  0.00    +0.037 C 
ATOM     15  H   UNL     1      -0.341  -3.723  -2.521  0.00  0.00    +0.148 HD
ENDROOT
BRANCH   1  16
ATOM     16  C   UNL     1      -0.115  -1.828  -3.673  0.00  0.00    +0.142 C 
BRANCH  16  19
ATOM     17  C   UNL     1       1.065  -3.826  -6.649  0.00  0.00    +0.020 A 
ATOM     18  C   UNL     1       1.090  -2.975  -5.553  0.00  0.00    +0.010 A 
ATOM     19  C   UNL     1      -0.092  -2.740  -4.872  0.00  0.00    +0.012 A 
ATOM     20  C   UNL     1      -1.259  -3.353  -5.313  0.00  0.00    +0.143 A 
ATOM     21  N   UNL     1      -1.243  -4.154  -6.366  0.00  0.00    -0.237 NA
ATOM     22  C   UNL     1      -0.131  -4.401  -7.031  0.00  0.00    +0.113 A 
ATOM     23  N   UNL     1      -2.461  -3.120  -4.638  0.00  0.00    -0.290 N 
ATOM     24  C   UNL     1      -3.388  -4.063  -4.275  0.00  0.00    +0.114 A 
ATOM     25  C   UNL     1      -4.384  -3.409  -3.647  0.00  0.00    +0.130 A 
ATOM     26  N   UNL     1      -4.084  -2.102  -3.634  0.00  0.00    -0.244 NA
ATOM     27  C   UNL     1      -2.935  -1.915  -4.224  0.00  0.00    +0.205 A 
ENDBRANCH  16  19
ENDBRANCH   1  16
BRANCH   9  28
ATOM     28  C   UNL     1      -0.417   1.452   0.044  0.00  0.00    -0.001 C 
BRANCH  28  29
ATOM     29  N   UNL     1       0.957   1.969   0.089  0.00  0.00    +0.384 N 
ATOM     30  C   UNL     1       1.613   1.611   1.354  0.00  0.00    -0.078 C 
ATOM     31  C   UNL     1       3.082   2.037   1.306  0.00  0.00    -0.019 C 
ATOM     32  C   UNL     1       3.163   3.549   1.078  0.00  0.00    -0.004 C 
ATOM     33  C   UNL     1       2.431   3.901  -0.220  0.00  0.00    -0.019 C 
ATOM     34  C   UNL     1       0.981   3.421  -0.128  0.00  0.00    -0.078 C 
ATOM     35  H   UNL     1       1.524   1.498  -0.728  0.00  0.00    -0.081 HD
ENDBRANCH  28  29
ENDBRANCH   9  28
TORSDOF 4
