REMARK  Name = ZINC23486883
REMARK  8 active torsions:
REMARK  status: ('A' for Active; 'I' for Inactive)
REMARK    1  A    between atoms: C_1  and  O_2
REMARK    2  A    between atoms: O_2  and  C_3
REMARK    3  A    between atoms: C_6  and  C_30
REMARK    4  A    between atoms: C_7  and  N_15
REMARK    5  A    between atoms: C_11  and  N_13
REMARK    6  A    between atoms: N_18  and  C_21
REMARK    7  A    between atoms: C_21  and  C_22
REMARK    8  A    between atoms: C_23  and  C_24
REMARK                            x       y       z     vdW  Elec       q    Type
REMARK                         _______ _______ _______ _____ _____    ______ ____
ROOT
ATOM      1  C   UNL     1      -0.725   5.064  -1.740  0.00  0.00    +0.217 A 
ATOM      2  C   UNL     1      -1.667   4.107  -2.071  0.00  0.00    +0.077 A 
ATOM      3  C   UNL     1      -1.897   3.061  -1.177  0.00  0.00    +0.014 A 
ATOM      4  C   UNL     1      -2.869   1.997  -1.425  0.00  0.00    +0.100 A 
ATOM      5  C   UNL     1      -3.006   1.000  -0.446  0.00  0.00    +0.141 A 
ATOM      6  N   UNL     1      -2.280   1.024   0.665  0.00  0.00    -0.216 NA
ATOM      7  C   UNL     1      -1.390   1.962   0.935  0.00  0.00    +0.129 A 
ATOM      8  C   UNL     1      -1.161   3.023   0.036  0.00  0.00    +0.063 A 
ATOM      9  C   UNL     1      -0.219   4.037   0.285  0.00  0.00    +0.131 A 
ATOM     10  N   UNL     1      -0.044   5.004  -0.601  0.00  0.00    -0.198 NA
ATOM     11  N   UNL     1      -0.681   1.907   2.116  0.00  0.00    -0.343 N 
ATOM     12  H   UNL     1       0.062   2.684   2.348  0.00  0.00    +0.144 HD
ATOM     13  H   UNL     1      -0.857   1.085   2.825  0.00  0.00    +0.144 HD
ENDROOT
BRANCH   5  14
ATOM     14  N   UNL     1      -3.914  -0.023  -0.641  0.00  0.00    -0.318 N 
ATOM     15  C   UNL     1      -4.907  -0.061   0.442  0.00  0.00    +0.088 C 
ATOM     16  C   UNL     1      -5.937  -1.153   0.148  0.00  0.00    -0.059 C 
ATOM     17  N   UNL     1      -5.253  -2.447   0.020  0.00  0.00    +0.384 N 
ATOM     18  C   UNL     1      -4.261  -2.409  -1.064  0.00  0.00    -0.059 C 
ATOM     19  C   UNL     1      -3.230  -1.317  -0.770  0.00  0.00    +0.088 C 
ATOM     20  H   UNL     1      -4.720  -2.645   0.962  0.00  0.00    -0.081 HD
BRANCH  17  21
ATOM     21  C   UNL     1      -6.218  -3.535  -0.188  0.00  0.00    -0.051 C 
BRANCH  21  22
ATOM     22  C   UNL     1      -7.062  -3.701   1.050  0.00  0.00    -0.045 C 
ATOM     23  C   UNL     1      -8.383  -3.649   0.962  0.00  0.00    +0.002 C 
BRANCH  23  24
ATOM     24  C   UNL     1      -9.211  -3.812   2.176  0.00  0.00    -0.025 A 
ATOM     25  C   UNL     1      -8.604  -4.026   3.414  0.00  0.00    +0.008 A 
ATOM     26  C   UNL     1      -9.383  -4.172   4.544  0.00  0.00    +0.001 A 
ATOM     27  C   UNL     1     -10.762  -4.117   4.450  0.00  0.00    +0.000 A 
ATOM     28  C   UNL     1     -11.369  -3.909   3.225  0.00  0.00    +0.001 A 
ATOM     29  C   UNL     1     -10.602  -3.757   2.088  0.00  0.00    +0.008 A 
ENDBRANCH  23  24
ENDBRANCH  21  22
ENDBRANCH  17  21
ENDBRANCH   5  14
BRANCH   9  30
ATOM     30  N   UNL     1       0.517   4.027   1.454  0.00  0.00    -0.342 N 
ATOM     31  H   UNL     1       1.254   4.822   1.647  0.00  0.00    +0.144 HD
ATOM     32  H   UNL     1       0.367   3.225   2.192  0.00  0.00    +0.144 HD
ENDBRANCH   9  30
BRANCH   1  34
ATOM     33  C   UNL     1       0.493   7.048  -2.210  0.00  0.00    +0.279 C 
ATOM     34  O   UNL     1      -0.490   6.087  -2.599  0.00  0.00    -0.480 OA
ENDBRANCH   1  34
BRANCH   4  35
ATOM     35  C   UNL     1      -3.652   1.973  -2.623  0.00  0.00    +0.103 C 
ATOM     36  N   UNL     1      -4.273   1.953  -3.574  0.00  0.00    -0.191 NA
ENDBRANCH   4  35
TORSDOF 7
