REMARK  Name = ZINC39880629
REMARK  9 active torsions:
REMARK  status: ('A' for Active; 'I' for Inactive)
REMARK    1  A    between atoms: C_1  and  C_2
REMARK    2  A    between atoms: C_2  and  C_4
REMARK    3  A    between atoms: C_2  and  N_10
REMARK    4  A    between atoms: N_10  and  CA_11
REMARK    5  A    between atoms: CA_11  and  C_13
REMARK    6  A    between atoms: CA_11  and  C_26
REMARK    7  A    between atoms: C_13  and  C_14
REMARK    8  A    between atoms: N_16  and  C_17
REMARK    9  A    between atoms: C_22  and  N_23
REMARK                            x       y       z     vdW  Elec       q    Type
REMARK                         _______ _______ _______ _____ _____    ______ ____
ROOT
ATOM      1  CA  UNL     1       2.126  -0.080   1.122  0.00  0.00    +0.053 C 
ENDROOT
BRANCH   1   2
ATOM      2  N   UNL     1       0.722  -0.506   1.191  0.00  0.00    +0.393 N 
ATOM      3  H1  UNL     1       0.294  -0.121   2.020  0.00  0.00    -0.084 HD
ATOM      4  H2  UNL     1       0.677  -1.513   1.227  0.00  0.00    -0.084 HD
BRANCH   2   6
ATOM      5  C   UNL     1      -0.034   1.504   0.014  0.00  0.00    -0.009 C 
ATOM      6  C   UNL     1       0.005  -0.025   0.002  0.00  0.00    -0.043 C 
BRANCH   6   7
ATOM      7  C   UNL     1      -1.402  -0.564   0.012  0.00  0.00    -0.062 A 
ATOM      8  C   UNL     1      -2.112  -0.621   1.197  0.00  0.00    +0.002 A 
ATOM      9  C   UNL     1      -3.403  -1.115   1.206  0.00  0.00    +0.000 A 
ATOM     10  C   UNL     1      -3.984  -1.552   0.030  0.00  0.00    +0.000 A 
ATOM     11  C   UNL     1      -3.274  -1.494  -1.155  0.00  0.00    +0.000 A 
ATOM     12  C   UNL     1      -1.985  -0.996  -1.165  0.00  0.00    +0.002 A 
ENDBRANCH   6   7
ENDBRANCH   2   6
ENDBRANCH   1   2
BRANCH   1  13
ATOM     13  C   UNL     1       2.798  -0.753  -0.047  0.00  0.00    +0.343 C 
ATOM     14  O   UNL     1       2.165  -1.516  -0.757  0.00  0.00    -0.248 OA
ATOM     15  OXT UNL     1       3.974  -0.534  -0.284  0.00  0.00    -0.248 OA
ENDBRANCH   1  13
BRANCH   1  16
ATOM     16  C   UNL     1       2.842  -0.472   2.416  0.00  0.00    +0.091 C 
BRANCH  16  17
ATOM     17  C   UNL     1       2.250   0.295   3.570  0.00  0.00    +0.216 C 
ATOM     18  O   UNL     1       1.344   1.078   3.377  0.00  0.00    -0.276 OA
ATOM     19  N   UNL     1       2.727   0.111   4.817  0.00  0.00    -0.284 N 
ATOM     20  H   UNL     1       3.395  -0.573   4.985  0.00  0.00    +0.155 HD
BRANCH  19  21
ATOM     21  C   UNL     1       2.258   0.905   5.870  0.00  0.00    +0.064 A 
ATOM     22  C   UNL     1       1.742   2.168   5.612  0.00  0.00    +0.025 A 
ATOM     23  C   UNL     1       1.281   2.950   6.653  0.00  0.00    +0.002 A 
ATOM     24  C   UNL     1       1.332   2.475   7.951  0.00  0.00    +0.002 A 
ATOM     25  C   UNL     1       1.845   1.218   8.211  0.00  0.00    +0.034 A 
ATOM     26  C   UNL     1       2.302   0.429   7.173  0.00  0.00    +0.147 A 
BRANCH  26  27
ATOM     27  N   UNL     1       2.845  -0.920   7.452  0.00  0.00    +0.058 N 
ATOM     28  O   UNL     1       2.802  -1.369   8.573  0.00  0.00    -0.126 OA
ATOM     29  O   UNL     1       3.332  -1.572   6.558  0.00  0.00    -0.126 OA
ENDBRANCH  26  27
ENDBRANCH  19  21
ENDBRANCH  16  17
ENDBRANCH   1  16
TORSDOF 8
