REMARK  Name = ZINC67630555
REMARK  11 active torsions:
REMARK  status: ('A' for Active; 'I' for Inactive)
REMARK    1  A    between atoms: C_1  and  C_2
REMARK    2  A    between atoms: C_2  and  C_4
REMARK    3  A    between atoms: C_2  and  N_11
REMARK    4  A    between atoms: C_8  and  O_10
REMARK    5  A    between atoms: N_11  and  C_12
REMARK    6  A    between atoms: N_15  and  C_16
REMARK    7  A    between atoms: C_16  and  C_17
REMARK    8  A    between atoms: C_20  and  O_23
REMARK    9  A    between atoms: O_23  and  C_24
REMARK   10  A    between atoms: C_24  and  C_25
REMARK   11  A    between atoms: N_27  and  C_28
REMARK                            x       y       z     vdW  Elec       q    Type
REMARK                         _______ _______ _______ _____ _____    ______ ____
ROOT
ATOM      1  N   UNL     1      -1.431  -0.439   0.126  0.00  0.00    -0.282 N 
ATOM      2  C   UNL     1      -2.416  -0.119  -0.910  0.00  0.00    +0.134 C 
ATOM      3  C   UNL     1      -1.825  -1.030   1.272  0.00  0.00    +0.303 C 
ATOM      4  O   UNL     1      -1.008  -1.296   2.131  0.00  0.00    -0.253 OA
ATOM      5  N   UNL     1      -3.126  -1.327   1.464  0.00  0.00    -0.295 N 
ATOM      6  H   UNL     1      -3.778  -1.114   0.778  0.00  0.00    +0.151 HD
ENDROOT
BRANCH   1   8
ATOM      7  C   UNL     1       0.122   1.364  -0.438  0.00  0.00    +0.033 C 
ATOM      8  C   UNL     1      -0.017  -0.117  -0.083  0.00  0.00    +0.104 C 
BRANCH   8   9
ATOM      9  C   UNL     1       0.529  -0.957  -1.208  0.00  0.00    -0.024 A 
ATOM     10  C   UNL     1       1.639  -1.755  -1.000  0.00  0.00    +0.006 A 
ATOM     11  C   UNL     1       2.142  -2.527  -2.031  0.00  0.00    +0.004 A 
ATOM     12  C   UNL     1       1.536  -2.503  -3.273  0.00  0.00    +0.045 A 
ATOM     13  C   UNL     1       0.422  -1.703  -3.484  0.00  0.00    +0.117 A 
ATOM     14  C   UNL     1      -0.084  -0.934  -2.446  0.00  0.00    +0.050 A 
BRANCH  13  15
ATOM     15  O   UNL     1      -0.175  -1.677  -4.705  0.00  0.00    -0.507 OA
ATOM     16  H   UNL     1      -0.873  -2.337  -4.815  0.00  0.00    +0.292 HD
ENDBRANCH  13  15
ENDBRANCH   8   9
ENDBRANCH   1   8
BRANCH   5  17
ATOM     17  C   UNL     1      -3.555  -1.969   2.709  0.00  0.00    +0.141 C 
BRANCH  17  18
ATOM     18  C   UNL     1      -5.045  -2.190   2.672  0.00  0.00    -0.030 A 
ATOM     19  C   UNL     1      -5.899  -1.212   3.147  0.00  0.00    +0.009 A 
ATOM     20  C   UNL     1      -7.266  -1.413   3.115  0.00  0.00    +0.046 A 
ATOM     21  C   UNL     1      -7.780  -2.596   2.606  0.00  0.00    +0.121 A 
ATOM     22  C   UNL     1      -6.921  -3.576   2.130  0.00  0.00    +0.046 A 
ATOM     23  C   UNL     1      -5.555  -3.368   2.160  0.00  0.00    +0.009 A 
BRANCH  21  24
ATOM     24  O   UNL     1      -9.124  -2.796   2.575  0.00  0.00    -0.483 OA
BRANCH  24  25
ATOM     25  C   UNL     1      -9.583  -4.038   2.037  0.00  0.00    +0.324 C 
BRANCH  25  26
ATOM     26  C   UNL     1     -11.089  -4.080   2.083  0.00  0.00    +0.250 C 
ATOM     27  O   UNL     1     -11.708  -3.139   2.532  0.00  0.00    -0.272 OA
ATOM     28  N   UNL     1     -11.747  -5.163   1.625  0.00  0.00    -0.316 N 
ATOM     29  C   UNL     1     -13.211  -5.204   1.670  0.00  0.00    +0.128 C 
ATOM     30  H   UNL     1     -11.252  -5.916   1.266  0.00  0.00    +0.148 HD
ENDBRANCH  25  26
ENDBRANCH  24  25
ENDBRANCH  21  24
ENDBRANCH  17  18
ENDBRANCH   5  17
TORSDOF 8
