REMARK  Name = ZINC29202936
REMARK  8 active torsions:
REMARK  status: ('A' for Active; 'I' for Inactive)
REMARK    1  A    between atoms: C_1  and  C_2
REMARK    2  A    between atoms: N_10  and  C_13
REMARK    3  A    between atoms: C_13  and  C_14
REMARK    4  A    between atoms: C_14  and  C_15
REMARK    5  A    between atoms: N_17  and  C_18
REMARK    6  A    between atoms: C_21  and  N_24
REMARK    7  A    between atoms: N_27  and  C_28
REMARK    8  A    between atoms: C_28  and  C_29
REMARK                            x       y       z     vdW  Elec       q    Type
REMARK                         _______ _______ _______ _____ _____    ______ ____
ROOT
ATOM      1  C   UNL     1      -5.518   4.646  -1.112  0.00  0.00    +0.219 C 
ATOM      2  O   UNL     1      -4.577   5.398  -1.255  0.00  0.00    -0.275 OA
ATOM      3  N   UNL     1      -5.312   3.379  -0.703  0.00  0.00    -0.285 N 
ATOM      4  H   UNL     1      -6.169   2.720  -0.500  0.00  0.00    +0.155 HD
ENDROOT
BRANCH   3   5
ATOM      5  C   UNL     1      -4.006   2.900  -0.537  0.00  0.00    +0.033 A 
ATOM      6  C   UNL     1      -3.009   3.749  -0.074  0.00  0.00    +0.025 A 
ATOM      7  C   UNL     1      -1.722   3.277   0.090  0.00  0.00    +0.025 A 
ATOM      8  C   UNL     1      -1.424   1.954  -0.208  0.00  0.00    +0.035 A 
ATOM      9  C   UNL     1      -2.419   1.107  -0.677  0.00  0.00    +0.025 A 
ATOM     10  C   UNL     1      -3.708   1.577  -0.836  0.00  0.00    +0.025 A 
BRANCH   8  11
ATOM     11  N   UNL     1      -0.118   1.476  -0.042  0.00  0.00    -0.269 N 
ATOM     12  C   UNL     1       0.643   1.933   0.972  0.00  0.00    +0.304 C 
ATOM     13  O   UNL     1       0.226   2.817   1.695  0.00  0.00    -0.253 OA
ATOM     14  N   UNL     1       1.867   1.409   1.185  0.00  0.00    -0.296 N 
ATOM     15  H   UNL     1       0.287   0.727  -0.739  0.00  0.00    +0.156 HD
ATOM     16  H   UNL     1       2.244   0.609   0.531  0.00  0.00    +0.151 HD
BRANCH  14  17
ATOM     17  C   UNL     1       2.694   1.906   2.287  0.00  0.00    +0.132 C 
BRANCH  17  18
ATOM     18  C   UNL     1       4.004   1.161   2.308  0.00  0.00    -0.016 C 
ATOM     19  C   UNL     1       5.134   1.823   2.267  0.00  0.00    +0.005 C 
ENDBRANCH  17  18
ENDBRANCH  14  17
ENDBRANCH   8  11
ENDBRANCH   3   5
BRANCH   1  20
ATOM     20  C   UNL     1      -6.918   5.130  -1.391  0.00  0.00    +0.115 C 
BRANCH  20  21
ATOM     21  C   UNL     1      -6.874   6.593  -1.836  0.00  0.00    +0.126 C 
BRANCH  21  31
ATOM     22  C   UNL     1     -13.832   9.371  -1.825  0.00  0.00    +0.044 C 
ATOM     23  C   UNL     1     -12.551   8.732  -2.296  0.00  0.00    -0.050 A 
ATOM     24  C   UNL     1     -12.428   8.328  -3.612  0.00  0.00    +0.004 A 
ATOM     25  C   UNL     1     -11.256   7.740  -4.060  0.00  0.00    +0.014 A 
ATOM     26  C   UNL     1     -10.200   7.556  -3.182  0.00  0.00    +0.049 A 
ATOM     27  C   UNL     1     -10.325   7.968  -1.840  0.00  0.00    +0.050 A 
ATOM     28  C   UNL     1     -11.503   8.555  -1.406  0.00  0.00    +0.017 A 
ATOM     29  C   UNL     1      -9.040   7.631  -1.191  0.00  0.00    +0.254 C 
ATOM     30  O   UNL     1      -8.759   7.832  -0.027  0.00  0.00    -0.270 OA
ATOM     31  N   UNL     1      -8.235   7.062  -2.107  0.00  0.00    -0.234 N 
ATOM     32  C   UNL     1      -8.841   6.988  -3.305  0.00  0.00    +0.254 C 
ATOM     33  O   UNL     1      -8.355   6.527  -4.318  0.00  0.00    -0.270 OA
ENDBRANCH  21  31
ENDBRANCH  20  21
ENDBRANCH   1  20
TORSDOF 7
