REMARK  Name = ZINC35457323
REMARK  13 active torsions:
REMARK  status: ('A' for Active; 'I' for Inactive)
REMARK    1  A    between atoms: C_1  and  C_2
REMARK    2  A    between atoms: C_2  and  C_4
REMARK    3  A    between atoms: C_2  and  O_34
REMARK    4  A    between atoms: C_4  and  C_6
REMARK    5  A    between atoms: C_4  and  O_33
REMARK    6  A    between atoms: C_7  and  C_8
REMARK    7  A    between atoms: C_9  and  C_10
REMARK    8  A    between atoms: C_10  and  O_12
REMARK    9  A    between atoms: O_12  and  C_13
REMARK   10  A    between atoms: C_21  and  O_32
REMARK   11  A    between atoms: C_22  and  C_31
REMARK   12  A    between atoms: C_25  and  C_29
REMARK   13  A    between atoms: C_25  and  C_30
REMARK                            x       y       z     vdW  Elec       q    Type
REMARK                         _______ _______ _______ _____ _____    ______ ____
ROOT
ATOM      1  C   UNL     1       4.383  -8.411   1.663  0.00  0.00    +0.204 C 
ATOM      2  C   UNL     1       4.331  -8.932   3.076  0.00  0.00    +0.023 C 
ATOM      3  C   UNL     1       5.168  -9.815   3.495  0.00  0.00    +0.009 C 
ATOM      4  C   UNL     1       5.375 -10.472   4.838  0.00  0.00    +0.266 C 
ATOM      5  O   UNL     1       6.797 -10.696   4.902  0.00  0.00    -0.458 OA
ATOM      6  C   UNL     1       7.302 -10.859   3.663  0.00  0.00    +0.344 C 
ATOM      7  O   UNL     1       8.409 -11.275   3.413  0.00  0.00    -0.247 OA
ATOM      8  C   UNL     1       6.263 -10.453   2.654  0.00  0.00    +0.192 C 
ATOM      9  C   UNL     1       6.753  -9.366   1.681  0.00  0.00    +0.018 C 
ATOM     10  C   UNL     1       5.546  -8.941   0.858  0.00  0.00    +0.049 C 
ATOM     11  C   UNL     1       5.862  -8.148  -0.393  0.00  0.00    -0.028 C 
ATOM     12  C   UNL     1       6.918  -8.885  -1.232  0.00  0.00    +0.007 C 
ATOM     13  C   UNL     1       8.172  -9.115  -0.393  0.00  0.00    +0.001 C 
ATOM     14  C   UNL     1       7.833 -10.000   0.802  0.00  0.00    +0.011 C 
ATOM     15  C   UNL     1       4.589  -8.050  -1.259  0.00  0.00    +0.011 C 
ATOM     16  C   UNL     1       6.362  -6.730  -0.130  0.00  0.00    +0.011 C 
ATOM     17  C   UNL     1       7.344  -8.215   2.495  0.00  0.00    +0.015 C 
ENDROOT
BRANCH   8  18
ATOM     18  O   UNL     1       5.769 -11.590   1.944  0.00  0.00    -0.373 OA
ATOM     19  H   UNL     1       5.413 -12.285   2.514  0.00  0.00    +0.211 HD
ENDBRANCH   8  18
BRANCH   1  20
ATOM     20  O   UNL     1       4.375  -6.990   1.734  0.00  0.00    -0.454 OA
BRANCH  20  21
ATOM     21  C   UNL     1       3.171  -6.389   1.832  0.00  0.00    +0.332 C 
ATOM     22  O   UNL     1       2.156  -7.059   1.857  0.00  0.00    -0.246 OA
BRANCH  21  24
ATOM     23  C   UNL     1       1.882  -4.372   2.005  0.00  0.00    +0.007 C 
ATOM     24  C   UNL     1       3.089  -4.975   1.907  0.00  0.00    +0.091 C 
BRANCH  23  26
ATOM     25  C   UNL     1       0.606  -2.319   2.179  0.00  0.00    +0.006 C 
ATOM     26  C   UNL     1       1.797  -2.914   2.082  0.00  0.00    -0.001 C 
BRANCH  25  27
ATOM     27  C   UNL     1       0.519  -0.816   2.258  0.00  0.00    +0.166 C 
BRANCH  27  29
ATOM     28  C   UNL     1      -0.491   1.225   1.232  0.00  0.00    +0.040 C 
ATOM     29  C   UNL     1      -0.402  -0.300   1.151  0.00  0.00    +0.144 C 
BRANCH  29  30
ATOM     30  O   UNL     1      -1.706  -0.862   1.315  0.00  0.00    -0.389 OA
ATOM     31  H   UNL     1      -2.124  -0.645   2.159  0.00  0.00    +0.210 HD
ENDBRANCH  29  30
ENDBRANCH  27  29
BRANCH  27  32
ATOM     32  O   UNL     1       1.823  -0.254   2.095  0.00  0.00    -0.385 OA
ATOM     33  H   UNL     1       2.241  -0.471   1.251  0.00  0.00    +0.210 HD
ENDBRANCH  27  32
ENDBRANCH  25  27
ENDBRANCH  23  26
ENDBRANCH  21  24
ENDBRANCH  20  21
ENDBRANCH   1  20
TORSDOF 9
