REMARK  Name = ZINC64098016
REMARK  5 active torsions:
REMARK  status: ('A' for Active; 'I' for Inactive)
REMARK    1  A    between atoms: C_8  and  C_16
REMARK    2  A    between atoms: C_18  and  O_36
REMARK    3  A    between atoms: C_20  and  O_35
REMARK    4  A    between atoms: N_22  and  C_25
REMARK    5  A    between atoms: C_29  and  C_31
REMARK                            x       y       z     vdW  Elec       q    Type
REMARK                         _______ _______ _______ _____ _____    ______ ____
ROOT
ATOM      1  C   UNL     1       3.301  -1.867   2.679  0.00  0.00    +0.179 C 
ATOM      2  C   UNL     1       4.422  -0.911   2.393  0.00  0.00    +0.200 C 
ATOM      3  N   UNL     1       5.630  -1.134   2.739  0.00  0.00    -0.204 NA
ATOM      4  C   UNL     1       6.071  -2.328   3.442  0.00  0.00    +0.338 C 
ATOM      5  N   UNL     1       4.972  -3.003   4.117  0.00  0.00    -0.225 N 
ATOM      6  C   UNL     1       3.695  -2.814   3.777  0.00  0.00    +0.237 C 
ATOM      7  O   UNL     1       2.831  -3.425   4.370  0.00  0.00    -0.274 OA
ENDROOT
BRANCH   1  14
ATOM      8  C   UNL     1      -0.231   2.078   1.262  0.00  0.00    +0.001 A 
ATOM      9  C   UNL     1       0.964   2.631   0.782  0.00  0.00    +0.002 A 
ATOM     10  C   UNL     1       2.021   1.875   0.416  0.00  0.00    +0.026 A 
ATOM     11  C   UNL     1       1.959   0.458   0.506  0.00  0.00    +0.043 A 
ATOM     12  N   UNL     1       2.847  -0.474   0.239  0.00  0.00    -0.376 N 
ATOM     13  C   UNL     1       2.218  -1.778   0.424  0.00  0.00    +0.124 C 
ATOM     14  C   UNL     1       2.980  -2.664   1.413  0.00  0.00    +0.101 C 
ATOM     15  N   UNL     1       2.130  -3.816   1.754  0.00  0.00    -0.310 NA
ATOM     16  C   UNL     1       0.932  -3.445   2.513  0.00  0.00    +0.085 C 
ATOM     17  C   UNL     1       0.004  -2.576   1.644  0.00  0.00    +0.048 C 
ATOM     18  C   UNL     1       0.859  -1.484   1.041  0.00  0.00    -0.036 C 
ATOM     19  C   UNL     1       0.708  -0.154   1.021  0.00  0.00    -0.001 A 
ATOM     20  C   UNL     1      -0.394   0.742   1.392  0.00  0.00    +0.010 A 
ATOM     21  H   UNL     1       1.886  -4.342   0.928  0.00  0.00    +0.122 HD
ATOM     22  H   UNL     1       3.764  -0.321  -0.035  0.00  0.00    +0.160 HD
ENDBRANCH   1  14
BRANCH   5  23
ATOM     23  C   UNL     1       5.267  -3.886   5.162  0.00  0.00    +0.041 A 
ATOM     24  C   UNL     1       5.367  -3.414   6.465  0.00  0.00    +0.024 A 
ATOM     25  C   UNL     1       5.658  -4.288   7.494  0.00  0.00    +0.002 A 
ATOM     26  C   UNL     1       5.851  -5.631   7.229  0.00  0.00    +0.012 A 
ATOM     27  C   UNL     1       5.753  -6.104   5.933  0.00  0.00    +0.057 A 
ATOM     28  C   UNL     1       5.456  -5.236   4.900  0.00  0.00    +0.036 A 
BRANCH  27  29
ATOM     29  C   UNL     1       5.965  -7.569   5.649  0.00  0.00    +0.417 C 
ATOM     30  F   UNL     1       6.245  -8.240   6.844  0.00  0.00    -0.166 F 
ATOM     31  F   UNL     1       4.807  -8.104   5.073  0.00  0.00    -0.166 F 
ATOM     32  F   UNL     1       7.038  -7.722   4.765  0.00  0.00    -0.166 F 
ENDBRANCH  27  29
ENDBRANCH   5  23
BRANCH   4  33
ATOM     33  O   UNL     1       6.660  -3.229   2.502  0.00  0.00    -0.356 OA
ATOM     34  H   UNL     1       7.426  -2.866   2.038  0.00  0.00    +0.214 HD
ENDBRANCH   4  33
BRANCH   2  35
ATOM     35  O   UNL     1       4.140   0.236   1.740  0.00  0.00    -0.495 OA
ATOM     36  H   UNL     1       4.909   0.803   1.591  0.00  0.00    +0.293 HD
ENDBRANCH   2  35
TORSDOF 5
