REMARK  Name = ZINC27986468
REMARK  6 active torsions:
REMARK  status: ('A' for Active; 'I' for Inactive)
REMARK    1  A    between atoms: C_5  and  C_6
REMARK    2  A    between atoms: N_7  and  N_8
REMARK    3  A    between atoms: C_9  and  C_11
REMARK    4  A    between atoms: C_11  and  C_12
REMARK    5  A    between atoms: C_12  and  C_13
REMARK    6  A    between atoms: N_15  and  N_16
REMARK                            x       y       z     vdW  Elec       q    Type
REMARK                         _______ _______ _______ _____ _____    ______ ____
ROOT
ATOM      1  N   UNL     1       0.002  -0.004   0.002  0.00  0.00    -0.207 N 
ATOM      2  C   UNL     1      -1.156  -0.694   0.009  0.00  0.00    +0.233 C 
ATOM      3  O   UNL     1      -2.215  -0.102   0.023  0.00  0.00    -0.274 OA
ATOM      4  H   UNL     1       0.962  -0.541  -0.010  0.00  0.00    +0.177 HD
ENDROOT
BRANCH   1   6
ATOM      5  C   UNL     1       1.101   2.062   0.003  0.00  0.00    +0.176 C 
ATOM      6  N   UNL     1      -0.017   1.397   0.010  0.00  0.00    -0.185 NA
BRANCH   5  11
ATOM      7  C   UNL     1       2.175   4.345   0.010  0.00  0.00    +0.052 A 
ATOM      8  C   UNL     1       1.693   5.666   0.017  0.00  0.00    +0.056 A 
ATOM      9  C   UNL     1       0.345   5.597   0.030  0.00  0.00    +0.165 A 
ATOM     10  O   UNL     1      -0.021   4.305   0.026  0.00  0.00    -0.448 OA
ATOM     11  C   UNL     1       1.081   3.528   0.011  0.00  0.00    +0.149 A 
ATOM     12  I   UNL     1      -0.961   7.235   0.052  0.00  0.00    -0.001 I 
ENDBRANCH   5  11
ENDBRANCH   1   6
BRANCH   2  13
ATOM     13  C   UNL     1      -1.135  -2.201   0.001  0.00  0.00    +0.107 C 
BRANCH  13  14
ATOM     14  C   UNL     1      -2.571  -2.730   0.012  0.00  0.00    +0.106 C 
BRANCH  14  15
ATOM     15  C   UNL     1      -2.550  -4.237   0.004  0.00  0.00    +0.227 C 
ATOM     16  O   UNL     1      -1.492  -4.829  -0.010  0.00  0.00    -0.275 OA
ATOM     17  N   UNL     1      -3.708  -4.927   0.011  0.00  0.00    -0.254 N 
ATOM     18  H   UNL     1      -4.668  -4.390   0.023  0.00  0.00    +0.169 HD
BRANCH  17  19
ATOM     19  N   UNL     1      -3.690  -6.293   0.004  0.00  0.00    -0.254 NA
ATOM     20  H   UNL     1      -4.722  -6.673   0.011  0.00  0.00    +0.140 HD
ATOM     21  H   UNL     1      -3.175  -6.647  -0.901  0.00  0.00    +0.140 HD
ENDBRANCH  17  19
ENDBRANCH  14  15
ENDBRANCH  13  14
ENDBRANCH   2  13
TORSDOF 6
