REMARK  Name = ZINC02776817
REMARK  4 active torsions:
REMARK  status: ('A' for Active; 'I' for Inactive)
REMARK    1  A    between atoms: C_1  and  N_2
REMARK    2  A    between atoms: C_3  and  C_8
REMARK    3  A    between atoms: N_10  and  C_11
REMARK    4  A    between atoms: C_12  and  C_21
REMARK                            x       y       z     vdW  Elec       q    Type
REMARK                         _______ _______ _______ _____ _____    ______ ____
ROOT
ATOM      1  C   UNL     1       2.336   1.414   0.139  0.00  0.00    +0.085 A 
ATOM      2  C   UNL     1       3.576   2.035   0.158  0.00  0.00    +0.068 A 
ATOM      3  C   UNL     1       4.756   1.189   0.279  0.00  0.00    -0.023 A 
ATOM      4  C   UNL     1       4.502  -0.136   0.344  0.00  0.00    -0.004 A 
ATOM      5  S   UNL     1       2.737  -0.267   0.263  0.00  0.00    -0.077 S 
ATOM      6  C   UNL     1       5.493  -1.253   0.445  0.00  0.00    +0.043 C 
ATOM      7  C   UNL     1       6.501  -0.937   1.558  0.00  0.00    +0.005 C 
ATOM      8  C   UNL     1       7.663  -0.158   0.950  0.00  0.00    +0.001 C 
ATOM      9  C   UNL     1       7.163   0.725  -0.192  0.00  0.00    +0.005 C 
ATOM     10  C   UNL     1       6.169   1.757   0.330  0.00  0.00    +0.037 C 
ENDROOT
BRANCH   2  11
ATOM     11  C   UNL     1       3.695   3.493   0.064  0.00  0.00    +0.244 C 
ATOM     12  O   UNL     1       3.692   4.171   1.075  0.00  0.00    -0.270 OA
ATOM     13  N   UNL     1       3.807   4.083  -1.143  0.00  0.00    -0.325 N 
ATOM     14  H   UNL     1       3.809   3.543  -1.948  0.00  0.00    +0.145 HD
ATOM     15  H   UNL     1       3.885   5.048  -1.205  0.00  0.00    +0.145 HD
ENDBRANCH   2  11
BRANCH   1  18
ATOM     16  C   UNL     1      -0.020   1.221   0.031  0.00  0.00    +0.268 C 
ATOM     17  O   UNL     1       0.087   0.010   0.017  0.00  0.00    -0.268 OA
ATOM     18  N   UNL     1       1.083   1.995   0.039  0.00  0.00    -0.274 N 
ATOM     19  H   UNL     1       1.000   2.960  -0.025  0.00  0.00    +0.156 HD
BRANCH  16  22
ATOM     20  C   UNL     1      -1.519   2.357   2.487  0.00  0.00    +0.173 C 
ATOM     21  N   UNL     1      -2.023   2.345   1.112  0.00  0.00    -0.261 N 
ATOM     22  C   UNL     1      -1.353   1.842   0.032  0.00  0.00    +0.136 A 
ATOM     23  C   UNL     1      -2.180   2.038  -1.062  0.00  0.00    +0.063 A 
ATOM     24  C   UNL     1      -3.326   2.655  -0.553  0.00  0.00    +0.149 A 
ATOM     25  N   UNL     1      -3.161   2.808   0.736  0.00  0.00    -0.178 NA
ATOM     26  I   UNL     1      -1.797   1.517  -3.054  0.00  0.00    -0.040 I 
ENDBRANCH  16  22
ENDBRANCH   1  18
TORSDOF 3
