REMARK  Name = ZINC36499272
REMARK  16 active torsions:
REMARK  status: ('A' for Active; 'I' for Inactive)
REMARK    1  A    between atoms: C_1  and  C_2
REMARK    2  A    between atoms: C_2  and  C_3
REMARK    3  A    between atoms: C_2  and  C_4
REMARK    4  A    between atoms: C_2  and  C_5
REMARK    5  A    between atoms: C_5  and  C_6
REMARK    6  A    between atoms: C_6  and  C_7
REMARK    7  A    between atoms: C_6  and  C_8
REMARK    8  A    between atoms: C_6  and  N_9
REMARK    9  A    between atoms: C_10  and  C_12
REMARK   10  A    between atoms: C_12  and  C_14
REMARK   11  A    between atoms: C_12  and  N_23
REMARK   12  A    between atoms: C_15  and  O_22
REMARK   13  A    between atoms: C_17  and  O_21
REMARK   14  A    between atoms: C_19  and  O_20
REMARK   15  A    between atoms: N_23  and  C_24
REMARK   16  A    between atoms: C_24  and  C_25
REMARK                            x       y       z     vdW  Elec       q    Type
REMARK                         _______ _______ _______ _____ _____    ______ ____
ROOT
ATOM      1  C   UNL     1       5.810   0.244  -3.873  0.00  0.00    +0.199 C 
ENDROOT
BRANCH   1   2
ATOM      2  C   UNL     1       5.247   1.597  -4.223  0.00  0.00    +0.065 A 
ATOM      3  C   UNL     1       5.610   2.213  -5.412  0.00  0.00    +0.129 A 
ATOM      4  C   UNL     1       5.091   3.458  -5.734  0.00  0.00    +0.091 A 
ATOM      5  C   UNL     1       4.210   4.088  -4.868  0.00  0.00    +0.124 A 
ATOM      6  C   UNL     1       3.846   3.471  -3.680  0.00  0.00    +0.091 A 
ATOM      7  C   UNL     1       4.361   2.224  -3.360  0.00  0.00    +0.129 A 
BRANCH   7   8
ATOM      8  O   UNL     1       4.001   1.618  -2.198  0.00  0.00    -0.506 OA
ATOM      9  H   UNL     1       4.575   1.832  -1.449  0.00  0.00    +0.292 HD
ENDBRANCH   7   8
BRANCH   5  10
ATOM     10  O   UNL     1       3.703   5.308  -5.183  0.00  0.00    -0.507 OA
ATOM     11  H   UNL     1       2.876   5.273  -5.684  0.00  0.00    +0.292 HD
ENDBRANCH   5  10
BRANCH   3  12
ATOM     12  O   UNL     1       6.473   1.596  -6.260  0.00  0.00    -0.506 OA
ATOM     13  H   UNL     1       6.042   1.091  -6.963  0.00  0.00    +0.292 HD
ENDBRANCH   3  12
ENDBRANCH   1   2
BRANCH   1  15
ATOM     14  N   UNL     1       3.772  -1.134  -3.614  0.00  0.00    -0.308 N 
ATOM     15  C   UNL     1       4.815  -0.511  -3.030  0.00  0.00    +0.239 C 
ATOM     16  O   UNL     1       4.953  -0.559  -1.826  0.00  0.00    -0.273 OA
ATOM     17  H   UNL     1       3.662  -1.096  -4.577  0.00  0.00    +0.149 HD
BRANCH  14  18
ATOM     18  C   UNL     1       2.805  -1.868  -2.794  0.00  0.00    +0.030 C 
ATOM     19  C   UNL     1       2.165  -0.914  -1.783  0.00  0.00    +0.031 C 
ATOM     20  C   UNL     1       3.521  -2.996  -2.049  0.00  0.00    +0.031 C 
BRANCH  18  21
ATOM     21  C   UNL     1       1.719  -2.460  -3.695  0.00  0.00    +0.031 C 
BRANCH  21  23
ATOM     22  C   UNL     1       2.246  -1.573  -5.970  0.00  0.00    +0.010 C 
ATOM     23  C   UNL     1       1.323  -1.434  -4.758  0.00  0.00    -0.036 C 
ATOM     24  C   UNL     1       1.450  -0.024  -4.179  0.00  0.00    +0.010 C 
ATOM     25  C   UNL     1      -0.125  -1.680  -5.189  0.00  0.00    +0.010 C 
ENDBRANCH  21  23
ENDBRANCH  18  21
ENDBRANCH  14  18
ENDBRANCH   1  15
BRANCH   1  26
ATOM     26  N   UNL     1       7.057   0.413  -3.123  0.00  0.00    -0.281 N 
ATOM     27  C   UNL     1       7.301   1.568  -2.473  0.00  0.00    +0.329 C 
ATOM     28  O   UNL     1       6.538   2.503  -2.591  0.00  0.00    -0.279 OA
BRANCH  26  29
ATOM     29  C   UNL     1       8.039  -0.673  -3.080  0.00  0.00    +0.182 C 
BRANCH  29  30
ATOM     30  C   UNL     1       9.203  -0.334  -3.976  0.00  0.00    +0.122 A 
ATOM     31  C   UNL     1      10.202   0.517  -3.680  0.00  0.00    +0.046 A 
ATOM     32  C   UNL     1      11.069   0.534  -4.796  0.00  0.00    +0.041 A 
ATOM     33  C   UNL     1      10.549  -0.307  -5.707  0.00  0.00    +0.195 A 
ATOM     34  O   UNL     1       9.421  -0.835  -5.203  0.00  0.00    -0.466 OA
ENDBRANCH  29  30
ENDBRANCH  26  29
ENDBRANCH   1  26
TORSDOF 11
