REMARK  Name = ZINC63645352
REMARK  8 active torsions:
REMARK  status: ('A' for Active; 'I' for Inactive)
REMARK    1  A    between atoms: C_1  and  C_2
REMARK    2  A    between atoms: C_2  and  C_3
REMARK    3  A    between atoms: C_2  and  N_13
REMARK    4  A    between atoms: C_6  and  N_9
REMARK    5  A    between atoms: C_14  and  C_16
REMARK    6  A    between atoms: C_16  and  O_17
REMARK    7  A    between atoms: O_17  and  C_18
REMARK    8  A    between atoms: C_21  and  N_25
REMARK                            x       y       z     vdW  Elec       q    Type
REMARK                         _______ _______ _______ _____ _____    ______ ____
ROOT
ATOM      1  N   UNL     1       0.826  -0.288   1.176  0.00  0.00    -0.306 N 
ATOM      2  C   UNL     1       0.241  -0.420   2.383  0.00  0.00    +0.251 C 
ATOM      3  O   UNL     1      -0.959  -0.283   2.494  0.00  0.00    -0.272 OA
ATOM      4  H   UNL     1       1.785  -0.398   1.088  0.00  0.00    +0.149 HD
ENDROOT
BRANCH   1   6
ATOM      5  C   UNL     1      -0.191   1.534  -0.099  0.00  0.00    +0.033 C 
ATOM      6  C   UNL     1       0.012   0.021  -0.002  0.00  0.00    +0.100 C 
BRANCH   6   7
ATOM      7  C   UNL     1       0.715  -0.472  -1.241  0.00  0.00    -0.027 A 
ATOM      8  C   UNL     1       2.086  -0.335  -1.357  0.00  0.00    +0.007 A 
ATOM      9  C   UNL     1       2.733  -0.785  -2.491  0.00  0.00    +0.023 A 
ATOM     10  C   UNL     1       2.005  -1.376  -3.515  0.00  0.00    +0.035 A 
ATOM     11  C   UNL     1       0.628  -1.513  -3.396  0.00  0.00    +0.023 A 
ATOM     12  C   UNL     1      -0.012  -1.065  -2.257  0.00  0.00    +0.007 A 
BRANCH  10  13
ATOM     13  N   UNL     1       2.658  -1.833  -4.666  0.00  0.00    -0.270 N 
ATOM     14  C   UNL     1       3.907  -2.331  -4.579  0.00  0.00    +0.301 C 
ATOM     15  O   UNL     1       4.431  -2.473  -3.491  0.00  0.00    -0.253 OA
ATOM     16  N   UNL     1       4.576  -2.671  -5.699  0.00  0.00    -0.313 N 
ATOM     17  H   UNL     1       2.211  -1.792  -5.526  0.00  0.00    +0.156 HD
ATOM     18  H   UNL     1       4.158  -2.558  -6.567  0.00  0.00    +0.146 HD
ATOM     19  H   UNL     1       5.475  -3.030  -5.636  0.00  0.00    +0.146 HD
ENDBRANCH  10  13
ENDBRANCH   6   7
ENDBRANCH   1   6
BRANCH   2  20
ATOM     20  C   UNL     1       1.077  -0.738   3.596  0.00  0.00    +0.324 C 
BRANCH  20  21
ATOM     21  O   UNL     1       0.235  -0.826   4.746  0.00  0.00    -0.483 OA
BRANCH  21  22
ATOM     22  C   UNL     1       0.837  -1.109   5.932  0.00  0.00    +0.124 A 
ATOM     23  C   UNL     1       2.211  -1.292   5.987  0.00  0.00    +0.048 A 
ATOM     24  C   UNL     1       2.822  -1.579   7.192  0.00  0.00    +0.039 A 
ATOM     25  C   UNL     1       2.065  -1.684   8.344  0.00  0.00    +0.161 A 
ATOM     26  C   UNL     1       0.694  -1.503   8.293  0.00  0.00    +0.157 A 
ATOM     27  C   UNL     1       0.079  -1.210   7.088  0.00  0.00    +0.086 A 
ATOM     28  F   UNL     1      -0.044  -1.607   9.420  0.00  0.00    -0.203 F 
BRANCH  25  29
ATOM     29  N   UNL     1       2.723  -1.993   9.634  0.00  0.00    +0.059 N 
ATOM     30  O   UNL     1       3.920  -2.152   9.680  0.00  0.00    -0.126 OA
ATOM     31  O   UNL     1       2.062  -2.085  10.642  0.00  0.00    -0.126 OA
ENDBRANCH  25  29
ENDBRANCH  21  22
ENDBRANCH  20  21
ENDBRANCH   2  20
TORSDOF 7
