REMARK  Name = ZINC67412916
REMARK  9 active torsions:
REMARK  status: ('A' for Active; 'I' for Inactive)
REMARK    1  A    between atoms: C_1  and  C_2
REMARK    2  A    between atoms: C_4  and  C_7
REMARK    3  A    between atoms: C_7  and  N_8
REMARK    4  A    between atoms: N_11  and  C_12
REMARK    5  A    between atoms: C_12  and  C_14
REMARK    6  A    between atoms: C_12  and  C_15
REMARK    7  A    between atoms: C_19  and  S_21
REMARK    8  A    between atoms: S_21  and  N_24
REMARK    9  A    between atoms: N_24  and  C_25
REMARK                            x       y       z     vdW  Elec       q    Type
REMARK                         _______ _______ _______ _____ _____    ______ ____
ROOT
ATOM      1  C   UNL     1       3.234  -6.255  -3.848  0.00  0.00    +0.102 C 
ATOM      2  C   UNL     1       3.191  -5.822  -5.315  0.00  0.00    +0.033 C 
ENDROOT
BRANCH   1   6
ATOM      3  N   UNL     1       1.424  -3.694  -1.928  0.00  0.00    -0.292 N 
ATOM      4  C   UNL     1       1.681  -4.756  -2.717  0.00  0.00    +0.300 C 
ATOM      5  O   UNL     1       0.763  -5.404  -3.182  0.00  0.00    -0.253 OA
ATOM      6  N   UNL     1       2.955  -5.100  -2.990  0.00  0.00    -0.293 N 
ATOM      7  H   UNL     1       2.156  -3.177  -1.557  0.00  0.00    +0.151 HD
ATOM      8  H   UNL     1       3.687  -4.583  -2.619  0.00  0.00    +0.151 HD
BRANCH   3   9
ATOM      9  C   UNL     1       0.039  -3.320  -1.631  0.00  0.00    +0.183 C 
BRANCH   9  13
ATOM     10  C   UNL     1      -0.018   1.503   0.010  0.00  0.00    +0.069 C 
ATOM     11  C   UNL     1       0.002  -0.004   0.002  0.00  0.00    +0.081 A 
ATOM     12  C   UNL     1       0.008  -0.824  -1.141  0.00  0.00    +0.072 A 
ATOM     13  C   UNL     1       0.027  -2.108  -0.735  0.00  0.00    +0.154 A 
ATOM     14  O   UNL     1       0.034  -2.119   0.606  0.00  0.00    -0.358 OA
ATOM     15  N   UNL     1       0.023  -0.775   1.052  0.00  0.00    -0.083 NA
ENDBRANCH   9  13
ENDBRANCH   3   9
ENDBRANCH   1   6
BRANCH   1  16
ATOM     16  C   UNL     1       4.601  -6.801  -3.525  0.00  0.00    -0.026 A 
ATOM     17  C   UNL     1       5.646  -5.936  -3.260  0.00  0.00    +0.005 A 
ATOM     18  C   UNL     1       6.900  -6.437  -2.964  0.00  0.00    +0.002 A 
ATOM     19  C   UNL     1       7.109  -7.804  -2.933  0.00  0.00    +0.028 A 
ATOM     20  C   UNL     1       6.063  -8.668  -3.197  0.00  0.00    +0.106 A 
ATOM     21  C   UNL     1       4.808  -8.167  -3.489  0.00  0.00    +0.034 A 
BRANCH  20  22
ATOM     22  S   UNL     1       6.329 -10.410  -3.159  0.00  0.00    +0.058 S 
ATOM     23  O   UNL     1       5.323 -10.993  -3.976  0.00  0.00    -0.153 OA
ATOM     24  O   UNL     1       7.715 -10.614  -3.394  0.00  0.00    -0.153 OA
BRANCH  22  25
ATOM     25  N   UNL     1       6.032 -10.916  -1.610  0.00  0.00    -0.193 NA
ATOM     26  C   UNL     1       4.683 -10.810  -1.051  0.00  0.00    +0.127 C 
ATOM     27  H   UNL     1       6.753 -11.282  -1.073  0.00  0.00    +0.148 HD
ENDBRANCH  22  25
ENDBRANCH  20  22
ENDBRANCH   1  16
TORSDOF 6
