REMARK  Name = ZINC35489930
REMARK  1 active torsions:
REMARK  status: ('A' for Active; 'I' for Inactive)
REMARK    1  A    between atoms: C_5  and  C_7
REMARK                            x       y       z     vdW  Elec       q    Type
REMARK                         _______ _______ _______ _____ _____    ______ ____
ROOT
ATOM      1  C   UNL     1       1.228  -2.186  -0.022  0.00  0.00    +0.154 C 
ATOM      2  C   UNL     1       1.439  -2.691  -1.412  0.00  0.00    +0.073 A 
ATOM      3  C   UNL     1       2.545  -2.493  -2.354  0.00  0.00    +0.199 A 
ATOM      4  O   UNL     1       3.603  -1.977  -2.042  0.00  0.00    -0.287 OA
ATOM      5  C   UNL     1       2.252  -2.982  -3.725  0.00  0.00    +0.065 A 
ATOM      6  C   UNL     1       3.118  -2.689  -4.779  0.00  0.00    +0.030 A 
ATOM      7  C   UNL     1       2.828  -3.146  -6.045  0.00  0.00    +0.019 A 
ATOM      8  C   UNL     1       1.679  -3.893  -6.269  0.00  0.00    +0.019 A 
ATOM      9  C   UNL     1       0.819  -4.190  -5.237  0.00  0.00    +0.048 A 
ATOM     10  C   UNL     1       1.091  -3.740  -3.945  0.00  0.00    +0.140 A 
ATOM     11  O   UNL     1       0.233  -4.053  -2.947  0.00  0.00    -0.450 OA
ATOM     12  C   UNL     1       0.351  -3.445  -1.751  0.00  0.00    +0.199 A 
ATOM     13  C   UNL     1      -0.583  -3.446  -0.612  0.00  0.00    +0.289 C 
ATOM     14  O   UNL     1      -1.652  -4.022  -0.590  0.00  0.00    -0.266 OA
ATOM     15  N   UNL     1      -0.079  -2.714   0.404  0.00  0.00    -0.230 N 
ATOM     16  C   UNL     1      -0.684  -2.497   1.635  0.00  0.00    +0.191 A 
ATOM     17  N   UNL     1      -0.268  -1.793   2.678  0.00  0.00    -0.126 NA
ATOM     18  N   UNL     1      -0.953  -1.698   3.733  0.00  0.00    -0.148 NA
ATOM     19  C   UNL     1      -2.123  -2.291   3.865  0.00  0.00    +0.183 A 
ATOM     20  S   UNL     1      -2.256  -3.079   2.264  0.00  0.00    -0.038 S 
ATOM     21 BR   UNL     1       3.996  -2.756  -7.481  0.00  0.00    -0.050 Br
ENDROOT
BRANCH   1  26
ATOM     22  C   UNL     1      -0.017   1.378   0.010  0.00  0.00    +0.001 A 
ATOM     23  C   UNL     1       1.171   2.087   0.002  0.00  0.00    +0.003 A 
ATOM     24  C   UNL     1       2.377   1.414  -0.013  0.00  0.00    +0.039 A 
ATOM     25  C   UNL     1       2.397   0.029  -0.021  0.00  0.00    +0.129 A 
ATOM     26  C   UNL     1       1.208  -0.679  -0.013  0.00  0.00    +0.013 A 
ATOM     27  C   UNL     1       0.002  -0.004   0.002  0.00  0.00    +0.008 A 
ATOM     28  F   UNL     1       3.577  -0.630  -0.036  0.00  0.00    -0.205 F 
ENDBRANCH   1  26
TORSDOF 1
