REMARK  Name = ZINC15956671
REMARK  7 active torsions:
REMARK  status: ('A' for Active; 'I' for Inactive)
REMARK    1  A    between atoms: C_1  and  C_2
REMARK    2  A    between atoms: C_7  and  C_8
REMARK    3  A    between atoms: C_17  and  C_20
REMARK    4  A    between atoms: C_20  and  C_21
REMARK    5  A    between atoms: C_21  and  C_22
REMARK    6  A    between atoms: N_27  and  C_30
REMARK    7  A    between atoms: C_30  and  C_31
REMARK                            x       y       z     vdW  Elec       q    Type
REMARK                         _______ _______ _______ _____ _____    ______ ____
ROOT
ATOM      1  C   UNL     1       0.223   1.504  -0.088  0.00  0.00    +0.044 C 
ATOM      2  C   UNL     1       0.190  -0.003  -0.075  0.00  0.00    -0.046 A 
ATOM      3  C   UNL     1       0.165  -0.702  -1.268  0.00  0.00    +0.004 A 
ATOM      4  C   UNL     1       0.134  -2.085  -1.255  0.00  0.00    +0.008 A 
ATOM      5  C   UNL     1       0.128  -2.763  -0.057  0.00  0.00    +0.004 A 
ATOM      6  C   UNL     1       0.153  -2.071   1.150  0.00  0.00    +0.042 A 
ATOM      7  C   UNL     1       0.190  -0.678   1.128  0.00  0.00    -0.026 A 
ATOM      8  C   UNL     1       0.224   0.093   2.422  0.00  0.00    +0.046 C 
ATOM      9  N   UNL     1       0.139  -2.967   2.221  0.00  0.00    -0.283 N 
ATOM     10  C   UNL     1       0.105  -4.249   1.810  0.00  0.00    +0.243 C 
ATOM     11  O   UNL     1       0.085  -5.236   2.515  0.00  0.00    -0.273 OA
ATOM     12  C   UNL     1       0.096  -4.221   0.306  0.00  0.00    +0.136 C 
ATOM     13  C   UNL     1      -1.149  -4.914  -0.262  0.00  0.00    +0.122 C 
ATOM     14  C   UNL     1      -0.662  -6.341  -0.640  0.00  0.00    +0.107 C 
ATOM     15  C   UNL     1       0.826  -6.374  -0.231  0.00  0.00    +0.068 C 
ATOM     16  N   UNL     1       1.253  -4.944  -0.254  0.00  0.00    -0.295 NA
ATOM     17  C   UNL     1      -0.782  -6.362  -2.147  0.00  0.00    +0.227 C 
ATOM     18  O   UNL     1      -0.492  -7.300  -2.859  0.00  0.00    -0.275 OA
ATOM     19  N   UNL     1      -1.258  -5.186  -2.572  0.00  0.00    -0.237 N 
ATOM     20  C   UNL     1      -1.513  -4.290  -1.591  0.00  0.00    +0.229 C 
ATOM     21  O   UNL     1      -1.956  -3.172  -1.742  0.00  0.00    -0.275 OA
ATOM     22  H   UNL     1       0.154  -2.697   3.152  0.00  0.00    +0.155 HD
ATOM     23  H   UNL     1       1.456  -4.631  -1.191  0.00  0.00    +0.123 HD
ENDROOT
BRANCH  15  24
ATOM     24  C   UNL     1       1.640  -7.176  -1.249  0.00  0.00    +0.028 C 
BRANCH  24  25
ATOM     25  C   UNL     1       3.084  -7.301  -0.761  0.00  0.00    +0.097 C 
BRANCH  25  26
ATOM     26  C   UNL     1       3.886  -8.091  -1.764  0.00  0.00    +0.211 C 
ATOM     27  O   UNL     1       3.354  -8.511  -2.770  0.00  0.00    -0.276 OA
ATOM     28  N   UNL     1       5.194  -8.329  -1.543  0.00  0.00    -0.329 N 
ATOM     29  H   UNL     1       5.619  -7.993  -0.739  0.00  0.00    +0.145 HD
ATOM     30  H   UNL     1       5.710  -8.838  -2.189  0.00  0.00    +0.145 HD
ENDBRANCH  25  26
ENDBRANCH  24  25
ENDBRANCH  15  24
BRANCH  19  31
ATOM     31  C   UNL     1      -1.492  -4.892  -3.988  0.00  0.00    +0.153 C 
BRANCH  31  32
ATOM     32  C   UNL     1      -2.834  -5.440  -4.400  0.00  0.00    -0.011 A 
ATOM     33  C   UNL     1      -2.920  -6.686  -4.991  0.00  0.00    +0.006 A 
ATOM     34  C   UNL     1      -4.151  -7.189  -5.369  0.00  0.00    +0.000 A 
ATOM     35  C   UNL     1      -5.297  -6.445  -5.155  0.00  0.00    +0.001 A 
ATOM     36  C   UNL     1      -5.213  -5.199  -4.564  0.00  0.00    +0.020 A 
ATOM     37  C   UNL     1      -3.981  -4.698  -4.180  0.00  0.00    +0.046 A 
ATOM     38 CL   UNL     1      -3.875  -3.135  -3.431  0.00  0.00    -0.083 Cl
ENDBRANCH  31  32
ENDBRANCH  19  31
TORSDOF 5
