REMARK  Name = ZINC29080955
REMARK  13 active torsions:
REMARK  status: ('A' for Active; 'I' for Inactive)
REMARK    1  A    between atoms: C_1  and  C_2
REMARK    2  A    between atoms: C_2  and  C_4
REMARK    3  A    between atoms: C_2  and  N_13
REMARK    4  A    between atoms: C_7  and  C_10
REMARK    5  A    between atoms: C_10  and  C_11
REMARK    6  A    between atoms: C_10  and  C_12
REMARK    7  A    between atoms: C_14  and  C_16
REMARK    8  A    between atoms: C_18  and  O_26
REMARK    9  A    between atoms: C_19  and  O_24
REMARK   10  A    between atoms: C_21  and  O_22
REMARK   11  A    between atoms: O_22  and  C_23
REMARK   12  A    between atoms: O_24  and  C_25
REMARK   13  A    between atoms: O_26  and  C_27
REMARK                            x       y       z     vdW  Elec       q    Type
REMARK                         _______ _______ _______ _____ _____    ______ ____
ROOT
ATOM      1  N   UNL     1       0.688  -0.476  -1.203  0.00  0.00    -0.305 N 
ATOM      2  C   UNL     1       0.006  -0.608  -2.358  0.00  0.00    +0.248 C 
ATOM      3  O   UNL     1      -1.178  -0.335  -2.400  0.00  0.00    -0.270 OA
ATOM      4  H   UNL     1       1.632  -0.695  -1.170  0.00  0.00    +0.150 HD
ENDROOT
BRANCH   2   5
ATOM      5  C   UNL     1       0.696  -1.083  -3.570  0.00  0.00    +0.082 A 
ATOM      6  C   UNL     1       2.057  -1.404  -3.524  0.00  0.00    +0.066 A 
ATOM      7  C   UNL     1       2.698  -1.848  -4.661  0.00  0.00    +0.162 A 
ATOM      8  C   UNL     1       1.992  -1.978  -5.858  0.00  0.00    +0.165 A 
ATOM      9  C   UNL     1       0.644  -1.663  -5.911  0.00  0.00    +0.095 A 
ATOM     10  C   UNL     1      -0.011  -1.221  -4.773  0.00  0.00    +0.136 A 
BRANCH  10  11
ATOM     11  O   UNL     1      -1.333  -0.917  -4.824  0.00  0.00    -0.494 OA
ATOM     12  C   UNL     1      -1.988  -1.082  -6.084  0.00  0.00    +0.277 C 
ENDBRANCH  10  11
BRANCH   8  13
ATOM     13  O   UNL     1       2.629  -2.416  -6.974  0.00  0.00    -0.491 OA
ATOM     14  C   UNL     1       1.847  -2.526  -8.166  0.00  0.00    +0.277 C 
ENDBRANCH   8  13
BRANCH   7  15
ATOM     15  O   UNL     1       4.022  -2.160  -4.616  0.00  0.00    -0.491 OA
ATOM     16  C   UNL     1       4.683  -2.003  -3.359  0.00  0.00    +0.277 C 
ENDBRANCH   7  15
ENDBRANCH   2   5
BRANCH   1  18
ATOM     17  C   UNL     1      -0.019   1.526   0.010  0.00  0.00    +0.033 C 
ATOM     18  C   UNL     1       0.002  -0.004   0.002  0.00  0.00    +0.100 C 
BRANCH  18  19
ATOM     19  C   UNL     1       0.731  -0.503   1.223  0.00  0.00    -0.027 A 
ATOM     20  C   UNL     1       2.113  -0.514   1.247  0.00  0.00    +0.006 A 
ATOM     21  C   UNL     1       2.782  -0.972   2.366  0.00  0.00    +0.004 A 
ATOM     22  C   UNL     1       2.068  -1.419   3.463  0.00  0.00    -0.045 A 
ATOM     23  C   UNL     1       0.686  -1.407   3.439  0.00  0.00    +0.004 A 
ATOM     24  C   UNL     1       0.017  -0.945   2.321  0.00  0.00    +0.006 A 
BRANCH  22  25
ATOM     25  C   UNL     1       2.797  -1.919   4.683  0.00  0.00    +0.013 C 
ATOM     26  C   UNL     1       2.414  -1.063   5.892  0.00  0.00    +0.012 C 
ATOM     27  C   UNL     1       2.410  -3.376   4.947  0.00  0.00    +0.012 C 
ENDBRANCH  22  25
ENDBRANCH  18  19
ENDBRANCH   1  18
TORSDOF 7
