REMARK  Name = ZINC38643256
REMARK  8 active torsions:
REMARK  status: ('A' for Active; 'I' for Inactive)
REMARK    1  A    between atoms: C_1  and  C_2
REMARK    2  A    between atoms: C_17  and  C_32
REMARK    3  A    between atoms: C_20  and  O_31
REMARK    4  A    between atoms: C_23  and  C_30
REMARK    5  A    between atoms: C_24  and  C_25
REMARK    6  A    between atoms: C_24  and  O_29
REMARK    7  A    between atoms: C_25  and  C_27
REMARK    8  A    between atoms: C_27  and  O_28
REMARK                            x       y       z     vdW  Elec       q    Type
REMARK                         _______ _______ _______ _____ _____    ______ ____
ROOT
ATOM      1  C   UNL     1      -0.112   1.423  -0.322  0.00  0.00    +0.011 C 
ATOM      2  C   UNL     1      -0.020  -0.100  -0.206  0.00  0.00    +0.026 C 
ATOM      3  C   UNL     1       0.784  -0.678  -1.403  0.00  0.00    +0.011 C 
ATOM      4  C   UNL     1       1.570  -1.829  -0.764  0.00  0.00    +0.002 C 
ATOM      5  C   UNL     1       2.816  -2.272  -1.510  0.00  0.00    -0.000 C 
ATOM      6  C   UNL     1       2.430  -2.819  -2.886  0.00  0.00    +0.008 C 
ATOM      7  C   UNL     1       3.693  -3.228  -3.650  0.00  0.00    +0.032 C 
ATOM      8  C   UNL     1       4.468  -4.209  -2.791  0.00  0.00    -0.056 C 
ATOM      9  C   UNL     1       4.847  -5.365  -3.318  0.00  0.00    +0.051 C 
ATOM     10  C   UNL     1       5.582  -6.351  -2.510  0.00  0.00    +0.179 C 
ATOM     11  O   UNL     1       5.965  -7.396  -3.001  0.00  0.00    -0.288 OA
ATOM     12  C   UNL     1       5.844  -6.043  -1.094  0.00  0.00    +0.047 C 
ATOM     13  C   UNL     1       5.463  -4.880  -0.590  0.00  0.00    -0.012 C 
ATOM     14  C   UNL     1       4.772  -3.817  -1.375  0.00  0.00    +0.013 C 
ATOM     15  C   UNL     1       3.491  -3.367  -0.669  0.00  0.00    +0.035 C 
ATOM     16  C   UNL     1       3.813  -2.878   0.740  0.00  0.00    +0.120 C 
ATOM     17  C   UNL     1       2.570  -2.309   1.442  0.00  0.00    +0.041 C 
ATOM     18  C   UNL     1       2.020  -1.195   0.580  0.00  0.00    +0.009 C 
ATOM     19  C   UNL     1       0.759  -0.491   1.075  0.00  0.00    +0.134 C 
ATOM     20  C   UNL     1       3.126  -0.170   0.325  0.00  0.00    +0.015 C 
ATOM     21  C   UNL     1       5.690  -2.594  -1.415  0.00  0.00    +0.020 C 
ENDROOT
BRANCH  19  22
ATOM     22  C   UNL     1       1.124   0.743   1.860  0.00  0.00    +0.190 C 
ATOM     23  O   UNL     1       1.814   1.597   1.357  0.00  0.00    -0.292 OA
BRANCH  22  24
ATOM     24  C   UNL     1       0.627   0.910   3.273  0.00  0.00    +0.233 C 
BRANCH  24  25
ATOM     25  O   UNL     1       1.103   2.150   3.801  0.00  0.00    -0.387 OA
ATOM     26  H   UNL     1       0.822   2.325   4.709  0.00  0.00    +0.210 HD
ENDBRANCH  24  25
ENDBRANCH  22  24
ENDBRANCH  19  22
BRANCH  19  27
ATOM     27  O   UNL     1      -0.022  -1.377   1.878  0.00  0.00    -0.380 OA
ATOM     28  H   UNL     1      -0.856  -0.997   2.187  0.00  0.00    +0.211 HD
ENDBRANCH  19  27
BRANCH  16  29
ATOM     29  O   UNL     1       4.322  -3.971   1.508  0.00  0.00    -0.391 OA
ATOM     30  H   UNL     1       4.551  -3.739   2.418  0.00  0.00    +0.210 HD
ENDBRANCH  16  29
TORSDOF 5
