REMARK  Name = ZINC45313899
REMARK  12 active torsions:
REMARK  status: ('A' for Active; 'I' for Inactive)
REMARK    1  A    between atoms: C_1  and  C_2
REMARK    2  A    between atoms: C_2  and  C_3
REMARK    3  A    between atoms: C_6  and  C_9
REMARK    4  A    between atoms: C_9  and  C_11
REMARK    5  A    between atoms: C_9  and  N_12
REMARK    6  A    between atoms: N_12  and  C_13
REMARK    7  A    between atoms: C_13  and  C_15
REMARK    8  A    between atoms: C_13  and  C_16
REMARK    9  A    between atoms: C_16  and  C_18
REMARK   10  A    between atoms: C_19  and  N_28
REMARK   11  A    between atoms: N_20  and  C_27
REMARK   12  A    between atoms: N_23  and  C_26
REMARK                            x       y       z     vdW  Elec       q    Type
REMARK                         _______ _______ _______ _____ _____    ______ ____
ROOT
ATOM      1  C   UNL     1      -7.416  -0.329  -0.490  0.00  0.00    -0.001 C 
ATOM      2  C   UNL     1      -7.254  -1.845  -0.624  0.00  0.00    -0.006 C 
ENDROOT
BRANCH   1   3
ATOM      3  N   UNL     1      -6.133   0.327  -0.773  0.00  0.00    +0.390 N 
ATOM      4  H   UNL     1      -6.261   1.328  -0.782  0.00  0.00    -0.084 HD
ATOM      5  H   UNL     1      -5.792   0.025  -1.674  0.00  0.00    -0.084 HD
BRANCH   3   6
ATOM      6  C   UNL     1      -5.159  -0.033   0.266  0.00  0.00    -0.043 C 
ATOM      7  C   UNL     1      -3.786   0.533  -0.104  0.00  0.00    -0.009 C 
BRANCH   6  11
ATOM      8  C   UNL     1      -6.405   1.595   4.013  0.00  0.00    -0.048 A 
ATOM      9  C   UNL     1      -5.860   0.326   3.958  0.00  0.00    +0.004 A 
ATOM     10  C   UNL     1      -5.457  -0.201   2.745  0.00  0.00    +0.002 A 
ATOM     11  C   UNL     1      -5.599   0.541   1.587  0.00  0.00    -0.062 A 
ATOM     12  C   UNL     1      -6.145   1.810   1.643  0.00  0.00    +0.002 A 
ATOM     13  C   UNL     1      -6.552   2.336   2.855  0.00  0.00    +0.004 A 
BRANCH   8  15
ATOM     14  C   UNL     1      -8.307   1.802   5.590  0.00  0.00    +0.009 C 
ATOM     15  C   UNL     1      -6.844   2.170   5.335  0.00  0.00    +0.032 C 
ENDBRANCH   8  15
ENDBRANCH   6  11
ENDBRANCH   3   6
ENDBRANCH   1   3
BRANCH   1  16
ATOM     16  C   UNL     1      -8.454   0.153  -1.470  0.00  0.00    +0.158 C 
ATOM     17  O   UNL     1      -8.110   0.661  -2.519  0.00  0.00    -0.294 OA
BRANCH  16  18
ATOM     18  C   UNL     1      -9.826   0.016  -1.170  0.00  0.00    +0.118 A 
ATOM     19  C   UNL     1     -10.812   0.352  -2.113  0.00  0.00    +0.116 A 
ATOM     20  N   UNL     1     -12.127   0.201  -1.776  0.00  0.00    -0.284 N 
ATOM     21  C   UNL     1     -12.490  -0.258  -0.568  0.00  0.00    +0.333 A 
ATOM     22  O   UNL     1     -13.673  -0.374  -0.317  0.00  0.00    -0.246 OA
ATOM     23  N   UNL     1     -11.593  -0.595   0.373  0.00  0.00    -0.263 N 
ATOM     24  C   UNL     1     -10.269  -0.488   0.137  0.00  0.00    +0.269 A 
ATOM     25  O   UNL     1      -9.458  -0.799   0.990  0.00  0.00    -0.267 OA
ATOM     26  C   UNL     1     -12.058  -1.090   1.671  0.00  0.00    +0.157 C 
ATOM     27  C   UNL     1     -13.163   0.548  -2.752  0.00  0.00    +0.155 C 
BRANCH  19  28
ATOM     28  N   UNL     1     -10.463   0.820  -3.342  0.00  0.00    -0.344 N 
ATOM     29  H   UNL     1      -9.605   0.580  -3.726  0.00  0.00    +0.144 HD
ATOM     30  H   UNL     1     -11.072   1.393  -3.834  0.00  0.00    +0.144 HD
ENDBRANCH  19  28
ENDBRANCH  16  18
ENDBRANCH   1  16
TORSDOF 7
