REMARK  Name = ZINC51149434
REMARK  6 active torsions:
REMARK  status: ('A' for Active; 'I' for Inactive)
REMARK    1  A    between atoms: C_3  and  N_20
REMARK    2  A    between atoms: C_4  and  C_10
REMARK    3  A    between atoms: C_6  and  N_7
REMARK    4  A    between atoms: C_10  and  O_11
REMARK    5  A    between atoms: O_11  and  C_12
REMARK    6  A    between atoms: N_20  and  N_21
REMARK                            x       y       z     vdW  Elec       q    Type
REMARK                         _______ _______ _______ _____ _____    ______ ____
ROOT
ATOM      1  C   UNL     1      -0.017   1.378   0.010  0.00  0.00    +0.034 A 
ATOM      2  C   UNL     1       1.169   2.087   0.002  0.00  0.00    +0.027 A 
ATOM      3  C   UNL     1       2.381   1.409  -0.013  0.00  0.00    +0.047 A 
ATOM      4  C   UNL     1       2.396   0.020  -0.021  0.00  0.00    +0.014 A 
ATOM      5  C   UNL     1       1.207  -0.682  -0.013  0.00  0.00    +0.041 A 
ATOM      6  C   UNL     1       0.002  -0.004   0.002  0.00  0.00    +0.127 A 
ENDROOT
BRANCH   6   7
ATOM      7  N   UNL     1      -1.270  -0.760   0.010  0.00  0.00    +0.056 N 
ATOM      8  O   UNL     1      -2.325  -0.168   0.023  0.00  0.00    -0.126 OA
ATOM      9  O   UNL     1      -1.256  -1.969   0.004  0.00  0.00    -0.126 OA
ENDBRANCH   6   7
BRANCH   3  10
ATOM     10  N   UNL     1       3.582   2.122  -0.021  0.00  0.00    -0.283 N 
ATOM     11  H   UNL     1       4.428   1.647  -0.032  0.00  0.00    +0.166 HD
BRANCH  10  12
ATOM     12  N   UNL     1       3.565   3.488  -0.014  0.00  0.00    -0.257 NA
ATOM     13  H   UNL     1       3.042   3.839   0.774  0.00  0.00    +0.140 HD
ATOM     14  H   UNL     1       4.503   3.861  -0.021  0.00  0.00    +0.140 HD
ENDBRANCH  10  12
ENDBRANCH   3  10
BRANCH   4  15
ATOM     15  C   UNL     1       3.709  -0.720  -0.038  0.00  0.00    +0.266 C 
BRANCH  15  16
ATOM     16  O   UNL     1       3.462  -2.128  -0.043  0.00  0.00    -0.486 OA
BRANCH  16  17
ATOM     17  C   UNL     1       4.549  -2.945  -0.058  0.00  0.00    +0.139 A 
ATOM     18  C   UNL     1       5.826  -2.403  -0.062  0.00  0.00    +0.048 A 
ATOM     19  C   UNL     1       6.928  -3.234  -0.077  0.00  0.00    +0.019 A 
ATOM     20  C   UNL     1       6.761  -4.608  -0.088  0.00  0.00    +0.019 A 
ATOM     21  C   UNL     1       5.489  -5.151  -0.085  0.00  0.00    +0.039 A 
ATOM     22  C   UNL     1       4.382  -4.323  -0.064  0.00  0.00    +0.084 A 
ATOM     23 CL   UNL     1       2.786  -5.005  -0.052  0.00  0.00    -0.080 Cl
ATOM     24 BR   UNL     1       8.273  -5.743  -0.109  0.00  0.00    -0.050 Br
ENDBRANCH  16  17
ENDBRANCH  15  16
ENDBRANCH   4  15
TORSDOF 6
