REMARK  Name = ZINC09402975
REMARK  10 active torsions:
REMARK  status: ('A' for Active; 'I' for Inactive)
REMARK    1  A    between atoms: C_1  and  C_2
REMARK    2  A    between atoms: C_5  and  N_8
REMARK    3  A    between atoms: N_8  and  S_9
REMARK    4  A    between atoms: S_9  and  C_12
REMARK    5  A    between atoms: C_16  and  C_18
REMARK    6  A    between atoms: N_20  and  C_21
REMARK    7  A    between atoms: C_21  and  C_23
REMARK    8  A    between atoms: C_21  and  C_24
REMARK    9  A    between atoms: C_24  and  C_26
REMARK   10  A    between atoms: C_24  and  N_62
REMARK                            x       y       z     vdW  Elec       q    Type
REMARK                         _______ _______ _______ _____ _____    ______ ____
ROOT
ATOM      1  C   UNL     1      -2.700  -0.246   0.309  0.00  0.00    +0.109 A 
ATOM      2  C   UNL     1      -3.337   0.943   0.618  0.00  0.00    +0.029 A 
ATOM      3  C   UNL     1      -4.599   1.209   0.118  0.00  0.00    +0.003 A 
ATOM      4  C   UNL     1      -5.235   0.284  -0.684  0.00  0.00    +0.013 A 
ATOM      5  C   UNL     1      -4.600  -0.920  -0.995  0.00  0.00    +0.039 A 
ATOM      6  C   UNL     1      -3.324  -1.179  -0.491  0.00  0.00    +0.041 A 
ENDROOT
BRANCH   5   7
ATOM      7  C   UNL     1      -5.276  -1.915  -1.853  0.00  0.00    +0.244 C 
ATOM      8  O   UNL     1      -4.721  -2.963  -2.122  0.00  0.00    -0.270 OA
ATOM      9  N   UNL     1      -6.508  -1.662  -2.338  0.00  0.00    -0.310 N 
ATOM     10  H   UNL     1      -6.951  -0.826  -2.123  0.00  0.00    +0.149 HD
BRANCH   9  11
ATOM     11  C   UNL     1      -7.178  -2.649  -3.189  0.00  0.00    +0.061 C 
ATOM     12  C   UNL     1      -6.795  -2.406  -4.650  0.00  0.00    +0.026 C 
BRANCH  11  13
ATOM     13  C   UNL     1      -8.694  -2.515  -3.029  0.00  0.00    -0.010 C 
BRANCH  13  18
ATOM     14  C   UNL     1      -8.984  -4.856  -3.631  0.00  0.00    -0.078 C 
ATOM     15  C   UNL     1     -10.127  -5.683  -4.272  0.00  0.00    -0.020 C 
ATOM     16  C   UNL     1     -11.377  -4.814  -4.000  0.00  0.00    -0.020 C 
ATOM     17  C   UNL     1     -10.835  -3.391  -3.771  0.00  0.00    -0.078 C 
ATOM     18  N   UNL     1      -9.384  -3.474  -3.943  0.00  0.00    +0.386 N 
ATOM     19  H   UNL     1      -9.136  -3.252  -4.914  0.00  0.00    -0.081 HD
ENDBRANCH  13  18
BRANCH  13  20
ATOM     20  C   UNL     1      -9.111  -1.106  -3.364  0.00  0.00    -0.022 A 
ATOM     21  C   UNL     1      -9.399  -0.079  -2.527  0.00  0.00    +0.009 A 
ATOM     22  C   UNL     1      -9.761   1.142  -3.063  0.00  0.00    +0.008 A 
ATOM     23  C   UNL     1      -9.828   1.274  -4.411  0.00  0.00    +0.045 A 
ATOM     24  S   UNL     1      -9.363  -0.358  -4.965  0.00  0.00    -0.103 S 
ENDBRANCH  13  20
ENDBRANCH  11  13
ENDBRANCH   9  11
ENDBRANCH   5   7
BRANCH   1  25
ATOM     25  S   UNL     1      -1.089  -0.571   0.947  0.00  0.00    +0.072 S 
ATOM     26  O   UNL     1      -0.890  -1.975   0.849  0.00  0.00    -0.150 OA
ATOM     27  O   UNL     1      -0.991   0.128   2.179  0.00  0.00    -0.150 OA
BRANCH  25  28
ATOM     28  N   UNL     1      -0.003   0.134  -0.085  0.00  0.00    -0.216 N 
ATOM     29  H   UNL     1       0.577   0.843   0.232  0.00  0.00    +0.174 HD
BRANCH  28  34
ATOM     30  C   UNL     1       0.330  -1.603  -5.473  0.00  0.00    +0.044 C 
ATOM     31  C   UNL     1       0.241  -1.141  -4.042  0.00  0.00    -0.050 A 
ATOM     32  C   UNL     1       0.203   0.211  -3.753  0.00  0.00    +0.005 A 
ATOM     33  C   UNL     1       0.122   0.637  -2.442  0.00  0.00    +0.025 A 
ATOM     34  C   UNL     1       0.079  -0.294  -1.413  0.00  0.00    +0.048 A 
ATOM     35  C   UNL     1       0.123  -1.651  -1.705  0.00  0.00    +0.025 A 
ATOM     36  C   UNL     1       0.198  -2.071  -3.019  0.00  0.00    +0.005 A 
ENDBRANCH  28  34
ENDBRANCH  25  28
ENDBRANCH   1  25
TORSDOF 8
