REMARK  Name = ZINC39337489
REMARK  2 active torsions:
REMARK  status: ('A' for Active; 'I' for Inactive)
REMARK    1  A    between atoms: C_4  and  C_7
REMARK    2  A    between atoms: C_11  and  N_23
REMARK                            x       y       z     vdW  Elec       q    Type
REMARK                         _______ _______ _______ _____ _____    ______ ____
ROOT
ATOM      1  C   UNL     1       3.711  -0.707  -0.038  0.00  0.00    +0.081 C 
ATOM      2  C   UNL     1       3.782  -1.637  -1.231  0.00  0.00    -0.014 A 
ATOM      3  C   UNL     1       3.833  -1.371  -2.584  0.00  0.00    +0.038 A 
ATOM      4  C   UNL     1       3.915  -2.407  -3.495  0.00  0.00    +0.127 A 
ATOM      5  C   UNL     1       3.946  -3.715  -3.047  0.00  0.00    +0.034 A 
ATOM      6  C   UNL     1       3.885  -3.988  -1.697  0.00  0.00    +0.026 A 
ATOM      7  C   UNL     1       3.792  -2.948  -0.770  0.00  0.00    +0.039 A 
ATOM      8  N   UNL     1       3.669  -2.994   0.612  0.00  0.00    -0.277 N 
ATOM      9  C   UNL     1       3.822  -1.634   1.177  0.00  0.00    +0.179 C 
ATOM     10  C   UNL     1       2.661  -1.445   2.125  0.00  0.00    +0.254 C 
ATOM     11  O   UNL     1       2.223  -0.339   2.365  0.00  0.00    -0.272 OA
ATOM     12  N   UNL     1       2.125  -2.548   2.698  0.00  0.00    -0.204 N 
ATOM     13  N   UNL     1       2.637  -3.829   2.471  0.00  0.00    -0.172 NA
ATOM     14  C   UNL     1       3.392  -4.081   1.430  0.00  0.00    +0.209 C 
ATOM     15  H   UNL     1       1.360  -2.446   3.286  0.00  0.00    +0.177 HD
ENDROOT
BRANCH   1  19
ATOM     16  C   UNL     1      -0.017   1.378   0.010  0.00  0.00    +0.000 A 
ATOM     17  C   UNL     1       1.171   2.086   0.002  0.00  0.00    +0.000 A 
ATOM     18  C   UNL     1       2.377   1.411  -0.013  0.00  0.00    +0.004 A 
ATOM     19  C   UNL     1       2.396   0.029  -0.020  0.00  0.00    -0.038 A 
ATOM     20  C   UNL     1       1.208  -0.679  -0.012  0.00  0.00    +0.004 A 
ATOM     21  C   UNL     1       0.002  -0.004   0.002  0.00  0.00    +0.000 A 
ENDBRANCH   1  19
BRANCH   4  22
ATOM     22  N   UNL     1       3.969  -2.119  -4.946  0.00  0.00    +0.056 N 
ATOM     23  O   UNL     1       3.942  -0.975  -5.336  0.00  0.00    -0.126 OA
ATOM     24  O   UNL     1       4.041  -3.027  -5.741  0.00  0.00    -0.126 OA
ENDBRANCH   4  22
TORSDOF 2
