REMARK  Name = ZINC28887156
REMARK  9 active torsions:
REMARK  status: ('A' for Active; 'I' for Inactive)
REMARK    1  A    between atoms: C_1  and  O_2
REMARK    2  A    between atoms: O_2  and  C_3
REMARK    3  A    between atoms: C_3  and  C_5
REMARK    4  A    between atoms: C_8  and  S_11
REMARK    5  A    between atoms: S_11  and  C_12
REMARK    6  A    between atoms: C_13  and  C_31
REMARK    7  A    between atoms: C_14  and  C_21
REMARK    8  A    between atoms: C_15  and  C_19
REMARK    9  A    between atoms: C_16  and  N_18
REMARK                            x       y       z     vdW  Elec       q    Type
REMARK                         _______ _______ _______ _____ _____    ______ ____
ROOT
ATOM      1  C   UNL     1       5.793  -1.286  -1.095  0.00  0.00    +0.122 A 
ATOM      2  C   UNL     1       4.574  -0.583  -1.128  0.00  0.00    +0.093 A 
ATOM      3  C   UNL     1       3.699  -0.684  -0.028  0.00  0.00    +0.023 A 
ATOM      4  C   UNL     1       4.094  -1.487   1.062  0.00  0.00    +0.100 A 
ATOM      5  C   UNL     1       5.330  -2.156   1.002  0.00  0.00    +0.136 A 
ATOM      6  N   UNL     1       6.120  -2.033  -0.052  0.00  0.00    -0.223 NA
ENDROOT
BRANCH   3   7
ATOM      7  C   UNL     1       2.408   0.036  -0.015  0.00  0.00    -0.012 A 
ATOM      8  C   UNL     1       2.384   1.432  -0.005  0.00  0.00    +0.012 A 
ATOM      9  C   UNL     1       1.179   2.100   0.008  0.00  0.00    +0.050 A 
ATOM     10  C   UNL     1      -0.015   1.390   0.012  0.00  0.00    +0.162 A 
ATOM     11  C   UNL     1       0.002  -0.002   0.000  0.00  0.00    +0.163 A 
ATOM     12  C   UNL     1       1.209  -0.678  -0.012  0.00  0.00    +0.058 A 
ATOM     13  O   UNL     1      -1.160  -0.712  -0.004  0.00  0.00    -0.485 OA
ATOM     14  C   UNL     1      -2.344  -0.010   0.388  0.00  0.00    +0.270 C 
ATOM     15  C   UNL     1      -2.366   1.340  -0.341  0.00  0.00    +0.270 C 
ATOM     16  O   UNL     1      -1.193   2.070   0.034  0.00  0.00    -0.485 OA
ENDBRANCH   3   7
BRANCH   5  17
ATOM     17  N   UNL     1       5.726  -2.949   2.061  0.00  0.00    -0.342 N 
ATOM     18  H   UNL     1       6.691  -3.476   2.022  0.00  0.00    +0.144 HD
ATOM     19  H   UNL     1       5.077  -3.054   2.942  0.00  0.00    +0.144 HD
ENDBRANCH   5  17
BRANCH   4  20
ATOM     20  C   UNL     1       3.248  -1.622   2.209  0.00  0.00    +0.103 C 
ATOM     21  N   UNL     1       2.577  -1.729   3.120  0.00  0.00    -0.191 NA
ENDBRANCH   4  20
BRANCH   2  22
ATOM     22  C   UNL     1       4.229   0.222  -2.261  0.00  0.00    +0.102 C 
ATOM     23  N   UNL     1       3.955   0.860  -3.160  0.00  0.00    -0.191 NA
ENDBRANCH   2  22
BRANCH   1  24
ATOM     24  S   UNL     1       6.899  -1.171  -2.463  0.00  0.00    -0.069 S 
BRANCH  24  28
ATOM     25  C   UNL     1      10.413  -3.517  -0.832  0.00  0.00    +0.059 A 
ATOM     26  C   UNL     1       9.457  -4.152  -1.631  0.00  0.00    +0.016 A 
ATOM     27  C   UNL     1       8.394  -3.439  -2.124  0.00  0.00    +0.016 A 
ATOM     28  C   UNL     1       8.266  -2.084  -1.828  0.00  0.00    +0.014 A 
ATOM     29  C   UNL     1       9.219  -1.447  -1.036  0.00  0.00    +0.016 A 
ATOM     30  C   UNL     1      10.281  -2.156  -0.537  0.00  0.00    +0.016 A 
BRANCH  25  31
ATOM     31  C   UNL     1      11.556  -4.280  -0.300  0.00  0.00    +0.339 C 
ATOM     32  O   UNL     1      11.669  -5.463  -0.557  0.00  0.00    -0.245 OA
BRANCH  31  34
ATOM     33  C   UNL     1      13.575  -4.481   0.958  0.00  0.00    +0.280 C 
ATOM     34  O   UNL     1      12.476  -3.667   0.470  0.00  0.00    -0.464 OA
ENDBRANCH  31  34
ENDBRANCH  25  31
ENDBRANCH  24  28
ENDBRANCH   1  24
TORSDOF 8
