REMARK  Name = ZINC05069062
REMARK  6 active torsions:
REMARK  status: ('A' for Active; 'I' for Inactive)
REMARK    1  A    between atoms: C_1  and  C_2
REMARK    2  A    between atoms: C_8  and  N_10
REMARK    3  A    between atoms: C_11  and  C_13
REMARK    4  A    between atoms: C_13  and  S_14
REMARK    5  A    between atoms: S_14  and  C_15
REMARK    6  A    between atoms: C_19  and  N_20
REMARK                            x       y       z     vdW  Elec       q    Type
REMARK                         _______ _______ _______ _____ _____    ______ ____
ROOT
ATOM      1  N   UNL     1       0.031  -0.392   2.498  0.00  0.00    -0.312 N 
ATOM      2  C   UNL     1       1.002  -1.057   3.155  0.00  0.00    +0.223 C 
ATOM      3  O   UNL     1       1.860  -0.442   3.752  0.00  0.00    -0.275 OA
ATOM      4  H   UNL     1      -0.655  -0.884   2.020  0.00  0.00    +0.149 HD
ENDROOT
BRANCH   1  11
ATOM      5  C   UNL     1      -0.013   1.086   0.008  0.00  0.00    +0.009 C 
ATOM      6  C   UNL     1      -0.729   1.579   1.267  0.00  0.00    +0.006 C 
ATOM      7  C   UNL     1      -0.750   3.109   1.275  0.00  0.00    +0.005 C 
ATOM      8  C   UNL     1      -1.466   3.603   2.534  0.00  0.00    +0.000 C 
ATOM      9  C   UNL     1      -0.726   3.096   3.774  0.00  0.00    +0.002 C 
ATOM     10  C   UNL     1      -0.705   1.566   3.765  0.00  0.00    +0.022 C 
ATOM     11  C   UNL     1       0.011   1.072   2.506  0.00  0.00    +0.076 C 
ENDBRANCH   1  11
BRANCH   2  12
ATOM     12  C   UNL     1       1.023  -2.564   3.147  0.00  0.00    +0.170 C 
BRANCH  12  13
ATOM     13  S   UNL     1       2.441  -3.155   4.111  0.00  0.00    -0.113 S 
BRANCH  13  14
ATOM     14  C   UNL     1       2.327  -4.910   4.006  0.00  0.00    +0.046 A 
ATOM     15  C   UNL     1       1.300  -5.508   3.293  0.00  0.00    +0.024 A 
ATOM     16  C   UNL     1       1.243  -6.861   3.234  0.00  0.00    +0.048 A 
ATOM     17  S   UNL     1       2.665  -7.336   4.203  0.00  0.00    -0.072 S 
ATOM     18  C   UNL     1       3.247  -5.701   4.620  0.00  0.00    +0.177 A 
BRANCH  18  19
ATOM     19  N   UNL     1       4.425  -5.308   5.426  0.00  0.00    +0.064 N 
ATOM     20  O   UNL     1       4.671  -4.129   5.611  0.00  0.00    -0.126 OA
ATOM     21  O   UNL     1       5.148  -6.163   5.905  0.00  0.00    -0.126 OA
ENDBRANCH  18  19
ENDBRANCH  13  14
ENDBRANCH  12  13
ENDBRANCH   2  12
TORSDOF 5
