REMARK  Name = ZINC24277936
REMARK  8 active torsions:
REMARK  status: ('A' for Active; 'I' for Inactive)
REMARK    1  A    between atoms: C_3  and  C_18
REMARK    2  A    between atoms: C_5  and  S_7
REMARK    3  A    between atoms: S_7  and  N_10
REMARK    4  A    between atoms: N_10  and  C_11
REMARK    5  A    between atoms: N_20  and  C_21
REMARK    6  A    between atoms: C_21  and  C_22
REMARK    7  A    between atoms: N_24  and  C_25
REMARK    8  A    between atoms: C_25  and  C_26
REMARK                            x       y       z     vdW  Elec       q    Type
REMARK                         _______ _______ _______ _____ _____    ______ ____
ROOT
ATOM      1  C   UNL     1      -4.596   1.052   0.291  0.00  0.00    +0.003 A 
ATOM      2  C   UNL     1      -5.233   0.175  -0.562  0.00  0.00    +0.013 A 
ATOM      3  C   UNL     1      -4.597  -1.006  -0.947  0.00  0.00    +0.039 A 
ATOM      4  C   UNL     1      -3.319  -1.292  -0.464  0.00  0.00    +0.042 A 
ATOM      5  C   UNL     1      -2.693  -0.406   0.388  0.00  0.00    +0.111 A 
ATOM      6  C   UNL     1      -3.331   0.761   0.769  0.00  0.00    +0.029 A 
ENDROOT
BRANCH   3   7
ATOM      7  C   UNL     1      -5.274  -1.951  -1.860  0.00  0.00    +0.245 C 
ATOM      8  O   UNL     1      -4.718  -2.979  -2.193  0.00  0.00    -0.270 OA
ATOM      9  N   UNL     1      -6.509  -1.672  -2.324  0.00  0.00    -0.303 N 
ATOM     10  H   UNL     1      -7.012  -0.741  -2.023  0.00  0.00    +0.150 HD
BRANCH   9  11
ATOM     11  C   UNL     1      -7.180  -2.608  -3.229  0.00  0.00    +0.200 C 
BRANCH  11  12
ATOM     12  C   UNL     1      -8.537  -2.066  -3.598  0.00  0.00    +0.231 C 
ATOM     13  O   UNL     1      -8.906  -1.002  -3.148  0.00  0.00    -0.274 OA
ATOM     14  N   UNL     1      -9.339  -2.763  -4.427  0.00  0.00    -0.307 N 
ATOM     15  H   UNL     1      -9.003  -3.728  -4.834  0.00  0.00    +0.149 HD
BRANCH  14  16
ATOM     16  C   UNL     1     -10.658  -2.235  -4.785  0.00  0.00    +0.178 C 
BRANCH  16  17
ATOM     17  C   UNL     1     -11.348  -3.198  -5.716  0.00  0.00    +0.122 A 
ATOM     18  C   UNL     1     -12.147  -4.215  -5.345  0.00  0.00    +0.046 A 
ATOM     19  C   UNL     1     -12.575  -4.853  -6.532  0.00  0.00    +0.041 A 
ATOM     20  C   UNL     1     -12.012  -4.188  -7.557  0.00  0.00    +0.195 A 
ATOM     21  O   UNL     1     -11.275  -3.183  -7.057  0.00  0.00    -0.466 OA
ENDBRANCH  16  17
ENDBRANCH  14  16
ENDBRANCH  11  12
ENDBRANCH   9  11
ENDBRANCH   3   7
BRANCH   5  22
ATOM     22  S   UNL     1      -1.079  -0.765   0.999  0.00  0.00    +0.092 S 
ATOM     23  O   UNL     1      -0.879  -2.161   0.820  0.00  0.00    -0.148 OA
ATOM     24  O   UNL     1      -0.977  -0.138   2.269  0.00  0.00    -0.148 OA
BRANCH  22  25
ATOM     25  N   UNL     1       0.002  -0.001   0.004  0.00  0.00    -0.098 NA
BRANCH  25  26
ATOM     26  C   UNL     1       0.066  -0.339  -1.349  0.00  0.00    +0.076 A 
ATOM     27  C   UNL     1       0.110   0.658  -2.315  0.00  0.00    +0.027 A 
ATOM     28  C   UNL     1       0.173   0.321  -3.652  0.00  0.00    +0.003 A 
ATOM     29  C   UNL     1       0.194  -1.009  -4.032  0.00  0.00    +0.020 A 
ATOM     30  C   UNL     1       0.152  -2.005  -3.073  0.00  0.00    +0.043 A 
ATOM     31  C   UNL     1       0.093  -1.674  -1.732  0.00  0.00    +0.046 A 
ATOM     32 CL   UNL     1       0.180  -3.673  -3.554  0.00  0.00    -0.083 Cl
ENDBRANCH  25  26
ENDBRANCH  22  25
ENDBRANCH   5  22
TORSDOF 8
