REMARK  Name = ZINC45682906
REMARK  4 active torsions:
REMARK  status: ('A' for Active; 'I' for Inactive)
REMARK    1  A    between atoms: C_1  and  C_2
REMARK    2  A    between atoms: C_2  and  C_4
REMARK    3  A    between atoms: C_2  and  N_10
REMARK    4  A    between atoms: N_13  and  C_14
REMARK                            x       y       z     vdW  Elec       q    Type
REMARK                         _______ _______ _______ _____ _____    ______ ____
ROOT
ATOM      1  N   UNL     1      -1.372  -0.511   0.012  0.00  0.00    -0.294 N 
ATOM      2  C   UNL     1      -2.051  -0.643  -1.145  0.00  0.00    +0.300 C 
ATOM      3  O   UNL     1      -1.522  -0.341  -2.197  0.00  0.00    -0.253 OA
ATOM      4  N   UNL     1      -3.315  -1.109  -1.135  0.00  0.00    -0.297 N 
ATOM      5  H   UNL     1      -1.794  -0.752   0.852  0.00  0.00    +0.151 HD
ATOM      6  H   UNL     1      -3.737  -1.350  -0.295  0.00  0.00    +0.151 HD
ENDROOT
BRANCH   4   7
ATOM      7  C   UNL     1      -4.053  -1.252  -2.393  0.00  0.00    +0.074 C 
ATOM      8  C   UNL     1      -4.643   0.118  -2.784  0.00  0.00    +0.022 C 
ATOM      9  C   UNL     1      -4.940   0.106  -4.260  0.00  0.00    +0.002 C 
ATOM     10  C   UNL     1      -6.398  -0.287  -4.564  0.00  0.00    +0.000 C 
ATOM     11  C   UNL     1      -6.897  -1.452  -3.688  0.00  0.00    +0.000 C 
ATOM     12  C   UNL     1      -5.864  -2.534  -3.525  0.00  0.00    +0.002 C 
ATOM     13  C   UNL     1      -5.079  -2.270  -2.224  0.00  0.00    +0.022 C 
ENDBRANCH   4   7
BRANCH   1  15
ATOM     14  C   UNL     1      -0.019   1.526   0.010  0.00  0.00    +0.030 C 
ATOM     15  C   UNL     1       0.002  -0.004   0.002  0.00  0.00    +0.100 C 
BRANCH  15  16
ATOM     16  C   UNL     1       0.742  -0.511   1.242  0.00  0.00    +0.138 C 
ATOM     17  C   UNL     1       0.764  -2.055   1.244  0.00  0.00    +0.035 C 
ATOM     18  C   UNL     1       0.543  -2.385   2.745  0.00  0.00    +0.031 C 
ATOM     19  C   UNL     1      -0.399  -1.230   3.166  0.00  0.00    +0.160 C 
ATOM     20  O   UNL     1       0.057  -0.084   2.425  0.00  0.00    -0.375 OA
ENDBRANCH  15  16
ENDBRANCH   1  15
TORSDOF 3
