REMARK  Name = ZINC49691828
REMARK  3 active torsions:
REMARK  status: ('A' for Active; 'I' for Inactive)
REMARK    1  A    between atoms: C_7  and  N_15
REMARK    2  A    between atoms: C_8  and  C_11
REMARK    3  A    between atoms: N_12  and  O_13
REMARK                            x       y       z     vdW  Elec       q    Type
REMARK                         _______ _______ _______ _____ _____    ______ ____
ROOT
ATOM      1  C   UNL     1       0.058   1.363   0.215  0.00  0.00    +0.001 A 
ATOM      2  C   UNL     1       1.255   2.067   0.314  0.00  0.00    +0.002 A 
ATOM      3  C   UNL     1       2.454   1.424   0.267  0.00  0.00    +0.026 A 
ATOM      4  C   UNL     1       2.492   0.028   0.116  0.00  0.00    +0.048 A 
ATOM      5  C   UNL     1       1.274  -0.686   0.016  0.00  0.00    +0.020 A 
ATOM      6  C   UNL     1       0.056   0.008   0.068  0.00  0.00    +0.012 A 
ATOM      7  C   UNL     1       1.311  -2.092  -0.135  0.00  0.00    +0.051 A 
ATOM      8  C   UNL     1       2.566  -2.710  -0.179  0.00  0.00    +0.055 A 
ATOM      9  C   UNL     1       3.723  -1.926  -0.072  0.00  0.00    +0.096 A 
ATOM     10  N   UNL     1       3.661  -0.625   0.068  0.00  0.00    -0.360 N 
ATOM     11  H   UNL     1       4.486  -0.120   0.138  0.00  0.00    +0.165 HD
ENDROOT
BRANCH   7  12
ATOM     12  N   UNL     1       0.148  -2.830  -0.236  0.00  0.00    -0.327 N 
ATOM     13  C   UNL     1      -0.418  -3.110  -1.557  0.00  0.00    +0.118 C 
ATOM     14  C   UNL     1      -1.769  -2.399  -1.695  0.00  0.00    +0.122 C 
ATOM     15  S   UNL     1      -2.858  -2.952  -0.348  0.00  0.00    +0.025 S 
ATOM     16  O   UNL     1      -4.025  -2.141  -0.320  0.00  0.00    -0.257 OA
ATOM     17  C   UNL     1      -1.865  -2.636   1.142  0.00  0.00    +0.122 C 
ATOM     18  C   UNL     1      -0.501  -3.327   0.978  0.00  0.00    +0.118 C 
ENDBRANCH   7  12
BRANCH   8  19
ATOM     19  C   UNL     1       2.671  -4.176  -0.335  0.00  0.00    +0.166 C 
ATOM     20  N   UNL     1       3.363  -4.678  -1.317  0.00  0.00    -0.071 NA
ATOM     21  N   UNL     1       2.032  -5.015   0.562  0.00  0.00    -0.340 N 
ATOM     22  H   UNL     1       1.516  -4.641   1.294  0.00  0.00    +0.144 HD
ATOM     23  H   UNL     1       2.100  -5.977   0.460  0.00  0.00    +0.144 HD
BRANCH  20  24
ATOM     24  O   UNL     1       4.094  -3.824  -2.178  0.00  0.00    -0.408 OA
ATOM     25  H   UNL     1       4.636  -4.291  -2.828  0.00  0.00    +0.328 HD
ENDBRANCH  20  24
ENDBRANCH   8  19
TORSDOF 3
