REMARK  Name = ZINC02251146
REMARK  9 active torsions:
REMARK  status: ('A' for Active; 'I' for Inactive)
REMARK    1  A    between atoms: C_1  and  C_2
REMARK    2  A    between atoms: C_2  and  C_3
REMARK    3  A    between atoms: C_3  and  C_4
REMARK    4  A    between atoms: C_4  and  C_5
REMARK    5  A    between atoms: C_5  and  N_6
REMARK    6  A    between atoms: C_7  and  C_9
REMARK    7  A    between atoms: N_20  and  N_23
REMARK    8  A    between atoms: C_21  and  N_22
REMARK    9  A    between atoms: C_24  and  C_25
REMARK                            x       y       z     vdW  Elec       q    Type
REMARK                         _______ _______ _______ _____ _____    ______ ____
ROOT
ATOM      1  C   UNL     1       5.425   7.043   0.765  0.00  0.00    +0.105 A 
ATOM      2  C   UNL     1       5.461   7.081  -0.706  0.00  0.00    +0.124 A 
ATOM      3  C   UNL     1       4.260   6.364  -1.143  0.00  0.00    +0.183 A 
ATOM      4  N   UNL     1       4.017   6.233  -2.430  0.00  0.00    -0.224 NA
ATOM      5  C   UNL     1       4.866   6.753  -3.325  0.00  0.00    +0.092 A 
ATOM      6  C   UNL     1       4.614   6.618  -4.703  0.00  0.00    +0.030 A 
ATOM      7  C   UNL     1       5.482   7.149  -5.606  0.00  0.00    +0.002 A 
ATOM      8  C   UNL     1       6.624   7.830  -5.188  0.00  0.00    +0.002 A 
ATOM      9  C   UNL     1       6.902   7.981  -3.864  0.00  0.00    +0.030 A 
ATOM     10  C   UNL     1       6.027   7.445  -2.900  0.00  0.00    +0.090 A 
ATOM     11  N   UNL     1       6.290   7.588  -1.596  0.00  0.00    -0.241 NA
ATOM     12  N   UNL     1       3.597   5.954  -0.002  0.00  0.00    -0.198 N 
ATOM     13  C   UNL     1       4.269   6.353   1.115  0.00  0.00    +0.134 A 
ENDROOT
BRANCH   1  15
ATOM     14  N   UNL     1       7.461   6.889   2.089  0.00  0.00    -0.311 N 
ATOM     15  C   UNL     1       6.407   7.623   1.679  0.00  0.00    +0.250 C 
ATOM     16  O   UNL     1       6.274   8.768   2.070  0.00  0.00    -0.270 OA
ATOM     17  H   UNL     1       7.567   5.977   1.778  0.00  0.00    +0.149 HD
BRANCH  14  18
ATOM     18  C   UNL     1       8.445   7.470   3.005  0.00  0.00    +0.104 C 
BRANCH  18  19
ATOM     19  C   UNL     1       9.530   6.436   3.311  0.00  0.00    +0.019 C 
BRANCH  19  20
ATOM     20  C   UNL     1      10.559   7.043   4.267  0.00  0.00    +0.001 C 
BRANCH  20  22
ATOM     21  C   UNL     1      12.672   6.615   5.529  0.00  0.00    +0.004 C 
ATOM     22  C   UNL     1      11.644   6.008   4.573  0.00  0.00    -0.003 C 
ENDBRANCH  20  22
ENDBRANCH  19  20
ENDBRANCH  18  19
ENDBRANCH  14  18
ENDBRANCH   1  15
BRANCH  13  23
ATOM     23  N   UNL     1       3.865   6.105   2.402  0.00  0.00    -0.342 N 
ATOM     24  H   UNL     1       3.046   5.612   2.566  0.00  0.00    +0.144 HD
ATOM     25  H   UNL     1       4.399   6.422   3.147  0.00  0.00    +0.144 HD
ENDBRANCH  13  23
BRANCH  12  26
ATOM     26  N   UNL     1       2.396   5.233   0.006  0.00  0.00    -0.171 NA
ATOM     27  C   UNL     1       2.418   3.936  -0.001  0.00  0.00    +0.141 C 
BRANCH  27  28
ATOM     28  C   UNL     1       1.153   3.177   0.008  0.00  0.00    -0.004 A 
ATOM     29  C   UNL     1       1.173   1.780   0.000  0.00  0.00    +0.009 A 
ATOM     30  C   UNL     1      -0.013   1.076   0.008  0.00  0.00    +0.002 A 
ATOM     31  C   UNL     1      -1.221   1.750   0.017  0.00  0.00    +0.020 A 
ATOM     32  C   UNL     1      -1.249   3.134   0.030  0.00  0.00    +0.042 A 
ATOM     33  C   UNL     1      -0.070   3.851   0.022  0.00  0.00    +0.029 A 
ATOM     34 CL   UNL     1      -2.771   3.969   0.048  0.00  0.00    -0.084 Cl
ENDBRANCH  27  28
ENDBRANCH  12  26
TORSDOF 8
