REMARK  Name = ZINC02342471
REMARK  8 active torsions:
REMARK  status: ('A' for Active; 'I' for Inactive)
REMARK    1  A    between atoms: C_1  and  C_2
REMARK    2  A    between atoms: C_2  and  S_3
REMARK    3  A    between atoms: S_3  and  C_4
REMARK    4  A    between atoms: C_5  and  C_25
REMARK    5  A    between atoms: C_6  and  C_16
REMARK    6  A    between atoms: C_19  and  C_22
REMARK    7  A    between atoms: C_22  and  C_23
REMARK    8  A    between atoms: C_22  and  C_24
REMARK                            x       y       z     vdW  Elec       q    Type
REMARK                         _______ _______ _______ _____ _____    ______ ____
ROOT
ATOM      1  C   UNL     1      -1.508  -2.383   0.004  0.00  0.00    +0.111 C 
ATOM      2  C   UNL     1      -2.641  -3.179   0.005  0.00  0.00    +0.073 C 
ATOM      3  C   UNL     1      -2.434  -4.683  -0.006  0.00  0.00    +0.097 C 
ATOM      4  C   UNL     1      -0.991  -5.152  -0.017  0.00  0.00    +0.029 C 
ATOM      5  C   UNL     1      -0.713  -6.465  -0.030  0.00  0.00    +0.162 C 
ATOM      6  C   UNL     1       0.708  -6.964  -0.040  0.00  0.00    +0.080 C 
ATOM      7  C   UNL     1       1.599  -5.937  -0.744  0.00  0.00    +0.014 C 
ATOM      8  C   UNL     1       1.470  -4.593  -0.023  0.00  0.00    +0.056 C 
ATOM      9  C   UNL     1       0.019  -4.172  -0.015  0.00  0.00    +0.050 C 
ATOM     10  N   UNL     1      -0.276  -2.896  -0.011  0.00  0.00    -0.244 NA
ATOM     11  O   UNL     1      -1.725  -7.355  -0.034  0.00  0.00    -0.292 OA
ENDROOT
BRANCH   3  12
ATOM     12  C   UNL     1      -3.116  -5.244  -1.226  0.00  0.00    -0.035 A 
ATOM     13  C   UNL     1      -2.728  -4.831  -2.487  0.00  0.00    +0.005 A 
ATOM     14  C   UNL     1      -3.354  -5.346  -3.607  0.00  0.00    +0.004 A 
ATOM     15  C   UNL     1      -4.369  -6.274  -3.466  0.00  0.00    -0.045 A 
ATOM     16  C   UNL     1      -4.756  -6.688  -2.205  0.00  0.00    +0.004 A 
ATOM     17  C   UNL     1      -4.127  -6.177  -1.086  0.00  0.00    +0.005 A 
BRANCH  15  18
ATOM     18  C   UNL     1      -5.052  -6.834  -4.687  0.00  0.00    +0.013 C 
ATOM     19  C   UNL     1      -4.866  -8.352  -4.723  0.00  0.00    +0.012 C 
ATOM     20  C   UNL     1      -6.545  -6.504  -4.632  0.00  0.00    +0.012 C 
ENDBRANCH  15  18
ENDBRANCH   3  12
BRANCH   2  21
ATOM     21  C   UNL     1      -3.954  -2.608   0.015  0.00  0.00    +0.098 C 
ATOM     22  N   UNL     1      -4.995  -2.154   0.024  0.00  0.00    -0.191 NA
ENDBRANCH   2  21
BRANCH   1  23
ATOM     23  S   UNL     1      -1.700  -0.632   0.015  0.00  0.00    -0.105 S 
BRANCH  23  25
ATOM     24  C   UNL     1      -0.019   1.526   0.010  0.00  0.00    +0.015 C 
ATOM     25  C   UNL     1       0.002  -0.004   0.002  0.00  0.00    +0.072 C 
ENDBRANCH  23  25
ENDBRANCH   1  23
TORSDOF 5
