REMARK  Name = ZINC00996339
REMARK  5 active torsions:
REMARK  status: ('A' for Active; 'I' for Inactive)
REMARK    1  A    between atoms: C_1  and  C_2
REMARK    2  A    between atoms: C_3  and  C_11
REMARK    3  A    between atoms: C_7  and  N_8
REMARK    4  A    between atoms: N_13  and  C_14
REMARK    5  A    between atoms: C_15  and  C_25
REMARK                            x       y       z     vdW  Elec       q    Type
REMARK                         _______ _______ _______ _____ _____    ______ ____
ROOT
ATOM      1  C   UNL     1      -2.266   1.240   3.220  0.00  0.00    +0.085 A 
ATOM      2  C   UNL     1      -1.406   2.208   2.744  0.00  0.00    +0.068 A 
ATOM      3  C   UNL     1      -0.510   1.859   1.635  0.00  0.00    -0.023 A 
ATOM      4  C   UNL     1      -0.697   0.620   1.152  0.00  0.00    -0.004 A 
ATOM      5  S   UNL     1      -1.932  -0.114   2.194  0.00  0.00    -0.077 S 
ATOM      6  C   UNL     1      -0.036  -0.042  -0.025  0.00  0.00    +0.043 C 
ATOM      7  C   UNL     1      -0.756   0.471  -1.284  0.00  0.00    +0.005 C 
ATOM      8  C   UNL     1      -0.741   2.005  -1.256  0.00  0.00    +0.000 C 
ATOM      9  C   UNL     1       0.721   2.393  -1.298  0.00  0.00    +0.000 C 
ATOM     10  C   UNL     1       1.410   2.361   0.056  0.00  0.00    +0.005 C 
ATOM     11  C   UNL     1       0.523   2.889   1.177  0.00  0.00    +0.037 C 
ENDROOT
BRANCH   2  12
ATOM     12  C   UNL     1      -1.383   3.549   3.336  0.00  0.00    +0.244 C 
ATOM     13  O   UNL     1      -2.103   4.423   2.891  0.00  0.00    -0.270 OA
ATOM     14  N   UNL     1      -0.563   3.814   4.372  0.00  0.00    -0.325 N 
ATOM     15  H   UNL     1       0.011   3.117   4.727  0.00  0.00    +0.145 HD
ATOM     16  H   UNL     1      -0.547   4.701   4.764  0.00  0.00    +0.145 HD
ENDBRANCH   2  12
BRANCH   1  19
ATOM     17  C   UNL     1      -3.943   0.268   4.579  0.00  0.00    +0.249 C 
ATOM     18  O   UNL     1      -3.835  -0.769   3.954  0.00  0.00    -0.270 OA
ATOM     19  N   UNL     1      -3.177   1.330   4.260  0.00  0.00    -0.275 N 
ATOM     20  H   UNL     1      -3.263   2.158   4.759  0.00  0.00    +0.156 HD
BRANCH  17  23
ATOM     21  C   UNL     1      -5.779  -1.915   5.067  0.00  0.00    +0.047 C 
ATOM     22  C   UNL     1      -5.805  -0.682   5.934  0.00  0.00    -0.008 A 
ATOM     23  C   UNL     1      -4.914   0.364   5.689  0.00  0.00    +0.042 A 
ATOM     24  C   UNL     1      -4.949   1.505   6.493  0.00  0.00    +0.013 A 
ATOM     25  C   UNL     1      -5.858   1.589   7.527  0.00  0.00    +0.003 A 
ATOM     26  C   UNL     1      -6.734   0.545   7.768  0.00  0.00    +0.033 A 
ATOM     27  C   UNL     1      -6.705  -0.588   6.975  0.00  0.00    +0.130 A 
BRANCH  27  28
ATOM     28  N   UNL     1      -7.646  -1.699   7.240  0.00  0.00    +0.057 N 
ATOM     29  O   UNL     1      -8.526  -1.567   8.073  0.00  0.00    -0.126 OA
ATOM     30  O   UNL     1      -7.542  -2.746   6.626  0.00  0.00    -0.126 OA
ENDBRANCH  27  28
ENDBRANCH  17  23
ENDBRANCH   1  19
TORSDOF 4
