REMARK  Name = ZINC29494406
REMARK  13 active torsions:
REMARK  status: ('A' for Active; 'I' for Inactive)
REMARK    1  A    between atoms: C_1  and  C_2
REMARK    2  A    between atoms: C_2  and  C_3
REMARK    3  A    between atoms: C_3  and  N_4
REMARK    4  A    between atoms: C_5  and  S_7
REMARK    5  A    between atoms: S_7  and  C_8
REMARK    6  A    between atoms: C_8  and  C_9
REMARK    7  A    between atoms: N_11  and  C_12
REMARK    8  A    between atoms: N_11  and  C_15
REMARK    9  A    between atoms: C_12  and  C_13
REMARK   10  A    between atoms: C_13  and  C_14
REMARK   11  A    between atoms: C_15  and  C_16
REMARK   12  A    between atoms: N_18  and  C_19
REMARK   13  A    between atoms: C_24  and  C_25
REMARK                            x       y       z     vdW  Elec       q    Type
REMARK                         _______ _______ _______ _____ _____    ______ ____
ROOT
ATOM      1  C   UNL     1       2.545   0.395   0.999  0.00  0.00    +0.226 C 
ATOM      2  O   UNL     1       2.202   0.856   2.067  0.00  0.00    -0.275 OA
ATOM      3  N   UNL     1       1.922   0.779  -0.132  0.00  0.00    -0.292 N 
ENDROOT
BRANCH   1   4
ATOM      4  C   UNL     1       3.669  -0.608   0.937  0.00  0.00    +0.173 C 
BRANCH   4   5
ATOM      5  S   UNL     1       4.295  -0.915   2.607  0.00  0.00    -0.084 S 
BRANCH   5   7
ATOM      6  N   UNL     1       5.776  -2.459   1.016  0.00  0.00    -0.368 N 
ATOM      7  C   UNL     1       5.561  -2.087   2.248  0.00  0.00    +0.126 C 
ATOM      8  N   UNL     1       6.323  -2.611   3.267  0.00  0.00    -0.339 N 
ATOM      9  H   UNL     1       6.143  -2.298   4.306  0.00  0.00    +0.144 HD
ATOM     10  H   UNL     1       7.114  -3.342   3.042  0.00  0.00    +0.144 HD
ATOM     11  H   UNL     1       5.228  -1.976   0.193  0.00  0.00    +0.161 HD
BRANCH   6  12
ATOM     12  C   UNL     1       6.746  -3.518   0.729  0.00  0.00    +0.114 C 
BRANCH  12  14
ATOM     13  C   UNL     1       7.033  -5.835  -0.161  0.00  0.00    +0.005 C 
ATOM     14  C   UNL     1       6.020  -4.728   0.139  0.00  0.00    +0.018 C 
ENDBRANCH  12  14
ENDBRANCH   6  12
ENDBRANCH   5   7
ENDBRANCH   4   5
ENDBRANCH   1   4
BRANCH   3  15
ATOM     15  C   UNL     1       2.336   0.222  -1.422  0.00  0.00    +0.108 C 
BRANCH  15  16
ATOM     16  C   UNL     1       3.430   1.102  -2.030  0.00  0.00    +0.016 C 
ATOM     17  C   UNL     1       3.863   0.520  -3.377  0.00  0.00    +0.005 C 
ENDBRANCH  15  16
ENDBRANCH   3  15
BRANCH   3  18
ATOM     18  C   UNL     1       0.829   1.753  -0.072  0.00  0.00    +0.203 C 
BRANCH  18  19
ATOM     19  C   UNL     1      -0.480   1.029   0.104  0.00  0.00    +0.235 C 
ATOM     20  O   UNL     1      -0.500  -0.182   0.173  0.00  0.00    -0.274 OA
ATOM     21  N   UNL     1      -1.631   1.727   0.180  0.00  0.00    -0.284 N 
ATOM     22  H   UNL     1      -1.607   2.826   0.206  0.00  0.00    +0.155 HD
BRANCH  21  23
ATOM     23  C   UNL     1      -2.856   1.052   0.227  0.00  0.00    +0.036 A 
ATOM     24  C   UNL     1      -2.966  -0.228  -0.300  0.00  0.00    +0.023 A 
ATOM     25  C   UNL     1      -4.176  -0.892  -0.249  0.00  0.00    +0.002 A 
ATOM     26  C   UNL     1      -5.279  -0.280   0.317  0.00  0.00    +0.000 A 
ATOM     27  C   UNL     1      -5.175   0.996   0.837  0.00  0.00    +0.005 A 
ATOM     28  C   UNL     1      -3.966   1.665   0.794  0.00  0.00    -0.029 A 
ATOM     29  C   UNL     1      -3.853   3.056   1.360  0.00  0.00    +0.045 C 
ENDBRANCH  21  23
ENDBRANCH  18  19
ENDBRANCH   3  18
TORSDOF 10
