REMARK  Name = ZINC07766125
REMARK  7 active torsions:
REMARK  status: ('A' for Active; 'I' for Inactive)
REMARK    1  A    between atoms: C_1  and  C_2
REMARK    2  A    between atoms: C_2  and  C_4
REMARK    3  A    between atoms: C_2  and  S_15
REMARK    4  A    between atoms: N_6  and  C_7
REMARK    5  A    between atoms: S_15  and  C_16
REMARK    6  A    between atoms: N_20  and  C_21
REMARK    7  A    between atoms: C_24  and  O_27
REMARK                            x       y       z     vdW  Elec       q    Type
REMARK                         _______ _______ _______ _____ _____    ______ ____
ROOT
ATOM      1  C   UNL     1      -0.010   1.544  -0.007  0.00  0.00    +0.029 C 
ATOM      2  C   UNL     1       0.003   0.014  -0.005  0.00  0.00    +0.137 C 
ENDROOT
BRANCH   2   3
ATOM      3  C   UNL     1       0.708  -0.483  -1.241  0.00  0.00    +0.230 C 
ATOM      4  O   UNL     1       0.067  -0.779  -2.227  0.00  0.00    -0.274 OA
ATOM      5  N   UNL     1       2.051  -0.601  -1.250  0.00  0.00    -0.282 N 
ATOM      6  H   UNL     1       2.568  -0.304  -0.485  0.00  0.00    +0.155 HD
BRANCH   5   7
ATOM      7  C   UNL     1       2.698  -1.150  -2.363  0.00  0.00    +0.072 A 
ATOM      8  C   UNL     1       2.200  -0.926  -3.638  0.00  0.00    +0.064 A 
ATOM      9  C   UNL     1       2.842  -1.470  -4.736  0.00  0.00    +0.125 A 
ATOM     10  C   UNL     1       3.982  -2.238  -4.563  0.00  0.00    +0.041 A 
ATOM     11  C   UNL     1       4.480  -2.463  -3.294  0.00  0.00    +0.043 A 
ATOM     12  C   UNL     1       3.846  -1.917  -2.193  0.00  0.00    +0.145 A 
ATOM     13  F   UNL     1       4.337  -2.133  -0.953  0.00  0.00    -0.204 F 
ATOM     14  F   UNL     1       2.357  -1.252  -5.978  0.00  0.00    -0.205 F 
ENDBRANCH   5   7
ENDBRANCH   2   3
BRANCH   2  15
ATOM     15  S   UNL     1      -1.702  -0.605   0.009  0.00  0.00    -0.072 S 
BRANCH  15  16
ATOM     16  C   UNL     1      -2.337  -0.070   1.563  0.00  0.00    +0.215 A 
ATOM     17  N   UNL     1      -1.691   0.625   2.474  0.00  0.00    -0.101 NA
ATOM     18  N   UNL     1      -2.446   0.848   3.489  0.00  0.00    -0.022 NA
ATOM     19  N   UNL     1      -3.609   0.323   3.307  0.00  0.00    -0.038 NA
ATOM     20  N   UNL     1      -3.586  -0.292   2.043  0.00  0.00    -0.187 N 
BRANCH  20  21
ATOM     21  C   UNL     1      -4.631  -0.987   1.414  0.00  0.00    +0.070 A 
ATOM     22  C   UNL     1      -4.778  -0.919   0.035  0.00  0.00    +0.031 A 
ATOM     23  C   UNL     1      -5.806  -1.603  -0.583  0.00  0.00    +0.047 A 
ATOM     24  C   UNL     1      -6.690  -2.358   0.173  0.00  0.00    +0.117 A 
ATOM     25  C   UNL     1      -6.543  -2.426   1.551  0.00  0.00    +0.047 A 
ATOM     26  C   UNL     1      -5.513  -1.747   2.169  0.00  0.00    +0.031 A 
BRANCH  24  27
ATOM     27  O   UNL     1      -7.702  -3.032  -0.437  0.00  0.00    -0.507 OA
ATOM     28  H   UNL     1      -7.470  -3.932  -0.704  0.00  0.00    +0.292 HD
ENDBRANCH  24  27
ENDBRANCH  20  21
ENDBRANCH  15  16
ENDBRANCH   2  15
TORSDOF 6
