REMARK  Name = ZINC28258247
REMARK  9 active torsions:
REMARK  status: ('A' for Active; 'I' for Inactive)
REMARK    1  A    between atoms: C_1  and  C_2
REMARK    2  A    between atoms: C_2  and  C_3
REMARK    3  A    between atoms: C_2  and  C_4
REMARK    4  A    between atoms: C_2  and  N_33
REMARK    5  A    between atoms: N_6  and  C_7
REMARK    6  A    between atoms: C_7  and  C_9
REMARK    7  A    between atoms: C_7  and  C_17
REMARK    8  A    between atoms: C_9  and  C_10
REMARK    9  A    between atoms: C_10  and  C_11
REMARK                            x       y       z     vdW  Elec       q    Type
REMARK                         _______ _______ _______ _____ _____    ______ ____
ROOT
ATOM      1  C   UNL     1      -0.630  -2.211   0.923  0.00  0.00    +0.159 C 
ENDROOT
BRANCH   1   2
ATOM      2  C   UNL     1      -0.659  -0.705   0.944  0.00  0.00    +0.236 C 
ATOM      3  O   UNL     1      -1.279  -0.122   1.810  0.00  0.00    -0.274 OA
ATOM      4  N   UNL     1       0.002  -0.004   0.002  0.00  0.00    -0.300 N 
ATOM      5  C   UNL     1      -0.018   1.465   0.010  0.00  0.00    +0.108 C 
ATOM      6  C   UNL     1       1.427   1.977  -0.001  0.00  0.00    +0.030 C 
ATOM      7  C   UNL     1       2.176   1.354  -1.175  0.00  0.00    -0.001 C 
ATOM      8  C   UNL     1       1.513   1.769  -2.501  0.00  0.00    +0.016 C 
ATOM      9  C   UNL     1       2.725   1.898  -3.450  0.00  0.00    +0.036 C 
ATOM     10  C   UNL     1       3.902   2.209  -2.550  0.00  0.00    -0.044 A 
ATOM     11  C   UNL     1       3.586   1.893  -1.240  0.00  0.00    -0.038 A 
ATOM     12  C   UNL     1       4.521   2.093  -0.239  0.00  0.00    +0.004 A 
ATOM     13  C   UNL     1       5.766   2.608  -0.543  0.00  0.00    +0.000 A 
ATOM     14  C   UNL     1       6.081   2.925  -1.850  0.00  0.00    +0.000 A 
ATOM     15  C   UNL     1       5.150   2.726  -2.851  0.00  0.00    +0.004 A 
ATOM     16  C   UNL     1       2.195  -0.167  -1.055  0.00  0.00    +0.030 C 
ATOM     17  C   UNL     1       0.757  -0.696  -1.052  0.00  0.00    +0.108 C 
ENDBRANCH   1   2
BRANCH   1  20
ATOM     18  C   UNL     1      -1.870  -2.428   3.009  0.00  0.00    +0.202 C 
ATOM     19  O   UNL     1      -1.040  -1.722   3.542  0.00  0.00    -0.277 OA
ATOM     20  N   UNL     1      -1.756  -2.733   1.702  0.00  0.00    -0.305 N 
ATOM     21  H   UNL     1      -2.509  -3.373   1.218  0.00  0.00    +0.149 HD
BRANCH  18  23
ATOM     22  C   UNL     1      -2.640  -3.029   5.288  0.00  0.00    -0.001 C 
ATOM     23  C   UNL     1      -3.028  -2.965   3.810  0.00  0.00    +0.001 C 
ATOM     24  C   UNL     1      -4.237  -2.042   3.640  0.00  0.00    -0.001 C 
BRANCH  23  25
ATOM     25  N   UNL     1      -3.370  -4.312   3.334  0.00  0.00    +0.387 N 
ATOM     26  H   UNL     1      -3.649  -4.265   2.271  0.00  0.00    -0.089 HD
ATOM     27  H   UNL     1      -4.216  -4.703   3.919  0.00  0.00    -0.089 HD
ATOM     28  H   UNL     1      -2.501  -4.975   3.456  0.00  0.00    -0.089 HD
ENDBRANCH  23  25
ENDBRANCH  18  23
ENDBRANCH   1  20
BRANCH   1  29
ATOM     29  C   UNL     1       0.684  -2.704   1.533  0.00  0.00    +0.032 C 
BRANCH  29  30
ATOM     30  C   UNL     1       0.769  -4.226   1.399  0.00  0.00    +0.006 C 
BRANCH  30  31
ATOM     31  C   UNL     1       2.083  -4.719   2.009  0.00  0.00    -0.011 C 
ATOM     32  C   UNL     1       3.259  -4.174   1.196  0.00  0.00    +0.003 C 
ATOM     33  C   UNL     1       4.573  -4.667   1.806  0.00  0.00    +0.000 C 
ATOM     34  C   UNL     1       4.603  -6.196   1.785  0.00  0.00    +0.000 C 
ATOM     35  C   UNL     1       3.427  -6.741   2.598  0.00  0.00    +0.000 C 
ATOM     36  C   UNL     1       2.113  -6.248   1.987  0.00  0.00    +0.003 C 
ENDBRANCH  30  31
ENDBRANCH  29  30
ENDBRANCH   1  29
TORSDOF 7
