REMARK  Name = ZINC39686154
REMARK  7 active torsions:
REMARK  status: ('A' for Active; 'I' for Inactive)
REMARK    1  A    between atoms: C_1  and  C_2
REMARK    2  A    between atoms: C_2  and  C_3
REMARK    3  A    between atoms: C_2  and  C_4
REMARK    4  A    between atoms: C_4  and  C_5
REMARK    5  A    between atoms: C_10  and  N_13
REMARK    6  A    between atoms: C_14  and  C_16
REMARK    7  A    between atoms: C_27  and  C_29
REMARK                            x       y       z     vdW  Elec       q    Type
REMARK                         _______ _______ _______ _____ _____    ______ ____
ROOT
ATOM      1  N   UNL     1      -5.452  -4.830   2.030  0.00  0.00    -0.312 N 
ATOM      2  C   UNL     1      -6.242  -5.894   1.784  0.00  0.00    +0.218 C 
ATOM      3  O   UNL     1      -6.295  -6.365   0.668  0.00  0.00    -0.275 OA
ATOM      4  H   UNL     1      -5.409  -4.454   2.923  0.00  0.00    +0.149 HD
ENDROOT
BRANCH   2   5
ATOM      5  C   UNL     1      -7.059  -6.499   2.897  0.00  0.00    +0.100 C 
ATOM      6  C   UNL     1      -7.290  -8.005   2.637  0.00  0.00    +0.121 C 
ATOM      7  N   UNL     1      -8.672  -8.258   3.108  0.00  0.00    -0.300 N 
ATOM      8  C   UNL     1      -9.433  -7.059   2.679  0.00  0.00    +0.115 C 
ATOM      9  C   UNL     1      -8.468  -5.882   2.922  0.00  0.00    -0.004 C 
ATOM     10  C   UNL     1      -8.611  -4.845   1.812  0.00  0.00    -0.010 C 
ATOM     11  C   UNL     1      -9.999  -4.204   1.895  0.00  0.00    -0.082 C 
ATOM     12  N   UNL     1     -10.171  -3.571   3.208  0.00  0.00    +0.379 N 
ATOM     13  C   UNL     1     -10.124  -4.590   4.264  0.00  0.00    -0.082 C 
ATOM     14  C   UNL     1      -8.741  -5.247   4.282  0.00  0.00    -0.010 C 
ATOM     15  C   UNL     1      -9.134  -9.334   3.775  0.00  0.00    +0.212 C 
ATOM     16  O   UNL     1     -10.303  -9.395   4.093  0.00  0.00    -0.276 OA
ATOM     17  C   UNL     1      -8.198 -10.462   4.125  0.00  0.00    +0.109 C 
ATOM     18  H   UNL     1      -9.431  -2.901   3.356  0.00  0.00    -0.086 HD
ATOM     19  H   UNL     1     -11.061  -3.098   3.238  0.00  0.00    -0.086 HD
ENDBRANCH   2   5
BRANCH   1  25
ATOM     20  C   UNL     1      -1.142  -2.405  -0.119  0.00  0.00    +0.216 C 
ATOM     21  O   UNL     1      -0.160  -3.088  -0.319  0.00  0.00    -0.276 OA
ATOM     22  N   UNL     1      -2.366  -2.970  -0.114  0.00  0.00    -0.301 N 
ATOM     23  C   UNL     1      -3.565  -2.154   0.121  0.00  0.00    +0.109 C 
ATOM     24  C   UNL     1      -4.367  -2.775   1.269  0.00  0.00    +0.041 C 
ATOM     25  C   UNL     1      -4.657  -4.243   0.949  0.00  0.00    +0.076 C 
ATOM     26  C   UNL     1      -3.338  -5.007   0.811  0.00  0.00    +0.041 C 
ATOM     27  C   UNL     1      -2.526  -4.411  -0.348  0.00  0.00    +0.109 C 
BRANCH  20  28
ATOM     28  C   UNL     1      -0.994  -0.925   0.123  0.00  0.00    +0.099 C 
BRANCH  28  30
ATOM     29  C   UNL     1       0.628   0.975   0.186  0.00  0.00    +0.008 C 
ATOM     30  C   UNL     1       0.487  -0.544   0.065  0.00  0.00    -0.008 C 
ATOM     31  C   UNL     1       1.233  -1.219   1.217  0.00  0.00    +0.008 C 
ENDBRANCH  28  30
ENDBRANCH  20  28
ENDBRANCH   1  25
TORSDOF 4
