REMARK  Name = ZINC43338636
REMARK  8 active torsions:
REMARK  status: ('A' for Active; 'I' for Inactive)
REMARK    1  A    between atoms: C_1  and  C_2
REMARK    2  A    between atoms: C_2  and  C_3
REMARK    3  A    between atoms: C_3  and  C_5
REMARK    4  A    between atoms: C_3  and  N_21
REMARK    5  A    between atoms: C_5  and  C_7
REMARK    6  A    between atoms: C_5  and  S_12
REMARK    7  A    between atoms: S_12  and  C_13
REMARK    8  A    between atoms: C_17  and  N_19
REMARK                            x       y       z     vdW  Elec       q    Type
REMARK                         _______ _______ _______ _____ _____    ______ ____
ROOT
ATOM      1  C   UNL     1       0.871  -2.024   1.052  0.00  0.00    +0.106 C 
ENDROOT
BRANCH   1   2
ATOM      2  C   UNL     1       1.328  -2.494   2.409  0.00  0.00    +0.117 A 
ATOM      3  C   UNL     1       2.445  -3.200   2.662  0.00  0.00    +0.046 A 
ATOM      4  C   UNL     1       2.481  -3.423   4.058  0.00  0.00    +0.041 A 
ATOM      5  C   UNL     1       1.384  -2.840   4.574  0.00  0.00    +0.195 A 
ATOM      6  O   UNL     1       0.693  -2.274   3.571  0.00  0.00    -0.467 OA
ENDBRANCH   1   2
BRANCH   1   7
ATOM      7  C   UNL     1       0.780  -0.496   1.045  0.00  0.00    -0.054 C 
BRANCH   7   8
ATOM      8  N   UNL     1       0.279  -0.042  -0.259  0.00  0.00    +0.381 N 
ATOM      9  H   UNL     1       0.219   0.966  -0.263  0.00  0.00    -0.090 HD
ATOM     10  H   UNL     1       0.910  -0.344  -0.986  0.00  0.00    -0.090 HD
ATOM     11  H   UNL     1      -0.636  -0.434  -0.423  0.00  0.00    -0.090 HD
ENDBRANCH   7   8
BRANCH   7  13
ATOM     12  C   UNL     1       2.055   1.619   1.422  0.00  0.00    +0.002 C 
ATOM     13  C   UNL     1       2.167   0.098   1.294  0.00  0.00    -0.018 C 
ENDBRANCH   7  13
ENDBRANCH   1   7
BRANCH   1  14
ATOM     14  S   UNL     1      -0.760  -2.728   0.686  0.00  0.00    -0.076 S 
BRANCH  14  15
ATOM     15  C   UNL     1      -0.446  -4.451   0.489  0.00  0.00    +0.192 A 
ATOM     16  N   UNL     1       0.804  -4.887   0.527  0.00  0.00    -0.207 NA
ATOM     17  C   UNL     1       1.079  -6.181   0.382  0.00  0.00    +0.122 A 
ATOM     18  C   UNL     1       0.033  -7.079   0.189  0.00  0.00    +0.086 A 
ATOM     19  C   UNL     1      -1.267  -6.583   0.155  0.00  0.00    +0.122 A 
ATOM     20  N   UNL     1      -1.467  -5.277   0.312  0.00  0.00    -0.207 NA
ATOM     21  N   UNL     1       2.391  -6.629   0.423  0.00  0.00    -0.343 N 
ATOM     22  H   UNL     1       3.115  -5.998   0.557  0.00  0.00    +0.144 HD
ATOM     23  H   UNL     1       2.584  -7.574   0.316  0.00  0.00    +0.144 HD
BRANCH  19  24
ATOM     24  N   UNL     1      -2.340  -7.440  -0.035  0.00  0.00    -0.343 N 
ATOM     25  H   UNL     1      -2.188  -8.392  -0.145  0.00  0.00    +0.144 HD
ATOM     26  H   UNL     1      -3.244  -7.088  -0.057  0.00  0.00    +0.144 HD
ENDBRANCH  19  24
ENDBRANCH  14  15
ENDBRANCH   1  14
TORSDOF 7
