REMARK  Name = ZINC01907905
REMARK  5 active torsions:
REMARK  status: ('A' for Active; 'I' for Inactive)
REMARK    1  A    between atoms: C_1  and  C_2
REMARK    2  A    between atoms: C_3  and  N_15
REMARK    3  A    between atoms: N_6  and  C_9
REMARK    4  A    between atoms: N_7  and  C_8
REMARK    5  A    between atoms: N_26  and  C_29
REMARK                            x       y       z     vdW  Elec       q    Type
REMARK                         _______ _______ _______ _____ _____    ______ ____
ROOT
ATOM      1  N   UNL     1      -0.172  -0.620  -2.517  0.00  0.00    -0.217 N 
ATOM      2  C   UNL     1      -0.136  -1.686  -3.300  0.00  0.00    +0.264 C 
ATOM      3  O   UNL     1       0.034  -2.804  -2.854  0.00  0.00    -0.269 OA
ATOM      4  C   UNL     1      -0.315  -1.440  -4.756  0.00  0.00    +0.090 C 
ATOM      5  C   UNL     1      -0.326  -2.338  -5.807  0.00  0.00    +0.065 C 
ATOM      6  C   UNL     1      -0.342  -3.813  -5.729  0.00  0.00    +0.010 A 
ATOM      7  C   UNL     1      -0.350  -4.712  -4.665  0.00  0.00    +0.010 A 
ATOM      8  C   UNL     1      -0.364  -6.069  -4.916  0.00  0.00    +0.001 A 
ATOM      9  C   UNL     1      -0.371  -6.534  -6.221  0.00  0.00    +0.002 A 
ATOM     10  C   UNL     1      -0.364  -5.651  -7.282  0.00  0.00    +0.024 A 
ATOM     11  C   UNL     1      -0.349  -4.281  -7.051  0.00  0.00    +0.044 A 
ATOM     12  N   UNL     1      -0.339  -3.196  -7.921  0.00  0.00    -0.270 N 
ATOM     13  C   UNL     1      -0.332  -2.031  -7.251  0.00  0.00    +0.252 C 
ATOM     14  O   UNL     1      -0.326  -0.920  -7.747  0.00  0.00    -0.270 OA
ATOM     15  C   UNL     1      -0.343  -3.310  -9.382  0.00  0.00    +0.138 C 
ATOM     16  S   UNL     1      -0.514   0.336  -4.773  0.00  0.00    -0.060 S 
ATOM     17  C   UNL     1      -0.366   0.617  -3.016  0.00  0.00    +0.125 C 
ATOM     18  S   UNL     1      -0.449   2.101  -2.168  0.00  0.00    -0.027 S 
ENDROOT
BRANCH   1  21
ATOM     19  C   UNL     1       2.400  -1.607  -1.163  0.00  0.00    +0.067 C 
ATOM     20  C   UNL     1       1.107  -1.214  -0.495  0.00  0.00    +0.060 A 
ATOM     21  C   UNL     1      -0.009  -0.783  -1.127  0.00  0.00    +0.129 A 
ATOM     22  C   UNL     1      -1.014  -0.517  -0.098  0.00  0.00    +0.294 A 
ATOM     23  O   UNL     1      -2.149  -0.114  -0.280  0.00  0.00    -0.264 OA
ATOM     24  N   UNL     1      -0.444  -0.804   1.091  0.00  0.00    -0.216 N 
ATOM     25  N   UNL     1       0.864  -1.240   0.851  0.00  0.00    -0.282 N 
ATOM     26  C   UNL     1       1.822  -1.655   1.879  0.00  0.00    +0.171 C 
BRANCH  24  27
ATOM     27  C   UNL     1      -1.055  -0.689   2.343  0.00  0.00    +0.067 A 
ATOM     28  C   UNL     1      -0.394  -0.050   3.385  0.00  0.00    +0.028 A 
ATOM     29  C   UNL     1      -1.000   0.062   4.620  0.00  0.00    +0.002 A 
ATOM     30  C   UNL     1      -2.265  -0.462   4.822  0.00  0.00    +0.000 A 
ATOM     31  C   UNL     1      -2.925  -1.099   3.787  0.00  0.00    +0.002 A 
ATOM     32  C   UNL     1      -2.327  -1.209   2.547  0.00  0.00    +0.028 A 
ENDBRANCH  24  27
ENDBRANCH   1  21
TORSDOF 2
