REMARK  Name = ZINC20301595
REMARK  9 active torsions:
REMARK  status: ('A' for Active; 'I' for Inactive)
REMARK    1  A    between atoms: C_1  and  C_2
REMARK    2  A    between atoms: C_2  and  C_4
REMARK    3  A    between atoms: C_2  and  N_11
REMARK    4  A    between atoms: N_9  and  C_10
REMARK    5  A    between atoms: N_11  and  C_12
REMARK    6  A    between atoms: C_14  and  O_21
REMARK    7  A    between atoms: C_17  and  O_18
REMARK    8  A    between atoms: O_18  and  C_19
REMARK    9  A    between atoms: O_21  and  C_22
REMARK                            x       y       z     vdW  Elec       q    Type
REMARK                         _______ _______ _______ _____ _____    ______ ____
ROOT
ATOM      1  N   UNL     1       2.586  -2.638  -0.037  0.00  0.00    -0.330 N 
ATOM      2  H   UNL     1       3.388  -1.999   0.362  0.00  0.00    +0.147 HD
ENDROOT
BRANCH   1   3
ATOM      3  C   UNL     1       2.892  -3.901  -0.559  0.00  0.00    +0.074 A 
ATOM      4  C   UNL     1       1.882  -4.710  -1.056  0.00  0.00    +0.073 A 
ATOM      5  C   UNL     1       2.188  -5.957  -1.579  0.00  0.00    +0.140 A 
ATOM      6  C   UNL     1       3.503  -6.401  -1.593  0.00  0.00    +0.086 A 
ATOM      7  C   UNL     1       4.512  -5.598  -1.091  0.00  0.00    +0.071 A 
ATOM      8  C   UNL     1       4.211  -4.348  -0.575  0.00  0.00    +0.142 A 
ATOM      9 CL   UNL     1       3.883  -7.966  -2.240  0.00  0.00    -0.080 Cl
BRANCH   8  10
ATOM     10  O   UNL     1       5.204  -3.559  -0.082  0.00  0.00    -0.493 OA
ATOM     11  C   UNL     1       6.533  -4.082  -0.129  0.00  0.00    +0.277 C 
ENDBRANCH   8  10
BRANCH   5  12
ATOM     12  O   UNL     1       1.199  -6.749  -2.072  0.00  0.00    -0.494 OA
ATOM     13  C   UNL     1      -0.132  -6.230  -2.026  0.00  0.00    +0.277 C 
ENDBRANCH   5  12
ENDBRANCH   1   3
BRANCH   1  15
ATOM     14  C   UNL     1       0.496  -2.695   1.232  0.00  0.00    +0.038 C 
ATOM     15  C   UNL     1       1.199  -2.169  -0.021  0.00  0.00    +0.154 C 
BRANCH  15  16
ATOM     16  C   UNL     1       1.178  -0.662  -0.013  0.00  0.00    +0.240 C 
ATOM     17  O   UNL     1       2.220  -0.042  -0.019  0.00  0.00    -0.273 OA
ATOM     18  N   UNL     1       0.002  -0.004   0.002  0.00  0.00    -0.239 N 
ATOM     19  C   UNL     1      -0.016   1.344   0.009  0.00  0.00    +0.306 C 
ATOM     20  O   UNL     1       1.028   1.966   0.003  0.00  0.00    -0.252 OA
ATOM     21  N   UNL     1      -1.192   2.002   0.019  0.00  0.00    -0.302 N 
ATOM     22  C   UNL     1      -1.212   3.466   0.027  0.00  0.00    +0.129 C 
ATOM     23  H   UNL     1      -0.943  -0.567   0.008  0.00  0.00    +0.159 HD
ATOM     24  H   UNL     1      -2.138   1.439   0.020  0.00  0.00    +0.150 HD
ENDBRANCH  15  16
ENDBRANCH   1  15
TORSDOF 5
