REMARK  Name = ZINC66080801
REMARK  5 active torsions:
REMARK  status: ('A' for Active; 'I' for Inactive)
REMARK    1  A    between atoms: C_1  and  C_2
REMARK    2  A    between atoms: C_7  and  C_28
REMARK    3  A    between atoms: N_12  and  C_16
REMARK    4  A    between atoms: C_16  and  N_17
REMARK    5  A    between atoms: C_20  and  N_23
REMARK                            x       y       z     vdW  Elec       q    Type
REMARK                         _______ _______ _______ _____ _____    ______ ____
ROOT
ATOM      1  C   UNL     1      -0.019   1.526   0.010  0.00  0.00    +0.010 C 
ATOM      2  C   UNL     1       0.002  -0.004   0.002  0.00  0.00    +0.019 C 
ATOM      3  C   UNL     1      -1.434  -0.534   0.012  0.00  0.00    +0.006 C 
ATOM      4  C   UNL     1      -1.412  -2.064   0.024  0.00  0.00    +0.001 C 
ATOM      5  C   UNL     1      -0.687  -2.556   1.279  0.00  0.00    +0.006 C 
ATOM      6  C   UNL     1       0.752  -2.033   1.273  0.00  0.00    +0.019 C 
ATOM      7  C   UNL     1       0.740  -0.509   1.237  0.00  0.00    +0.118 C 
ATOM      8  C   UNL     1       2.151   0.030   1.266  0.00  0.00    +0.248 C 
ATOM      9  O   UNL     1       3.026  -0.158   0.448  0.00  0.00    -0.273 OA
ATOM     10  N   UNL     1       2.233   0.767   2.394  0.00  0.00    -0.211 N 
ATOM     11  C   UNL     1       1.077   0.763   3.069  0.00  0.00    +0.310 C 
ATOM     12  O   UNL     1       0.904   1.356   4.116  0.00  0.00    -0.252 OA
ATOM     13  N   UNL     1       0.127   0.030   2.458  0.00  0.00    -0.284 N 
ATOM     14  C   UNL     1       1.471  -2.507   2.537  0.00  0.00    +0.010 C 
ATOM     15  H   UNL     1      -0.782  -0.114   2.764  0.00  0.00    +0.151 HD
ENDROOT
BRANCH  10  16
ATOM     16  C   UNL     1       3.436   1.482   2.825  0.00  0.00    +0.205 C 
BRANCH  16  17
ATOM     17  N   UNL     1       3.425   2.841   2.268  0.00  0.00    -0.288 NA
ATOM     18  C   UNL     1       2.698   3.777   3.162  0.00  0.00    +0.084 C 
ATOM     19  C   UNL     1       3.225   5.167   2.724  0.00  0.00    +0.001 C 
ATOM     20  C   UNL     1       4.716   4.891   2.422  0.00  0.00    -0.053 C 
ATOM     21  C   UNL     1       4.799   3.377   2.153  0.00  0.00    +0.071 C 
BRANCH  20  22
ATOM     22  N   UNL     1       5.143   5.646   1.236  0.00  0.00    +0.382 N 
ATOM     23  C   UNL     1       5.081   7.105   1.507  0.00  0.00    -0.078 C 
ATOM     24  C   UNL     1       6.049   7.703   0.456  0.00  0.00    -0.020 C 
ATOM     25  C   UNL     1       7.186   6.657   0.399  0.00  0.00    -0.020 C 
ATOM     26  C   UNL     1       6.560   5.353   0.929  0.00  0.00    -0.078 C 
ATOM     27  H   UNL     1       4.561   5.413   0.446  0.00  0.00    -0.081 HD
ENDBRANCH  20  22
ENDBRANCH  16  17
ENDBRANCH  10  16
TORSDOF 3
