REMARK  Name = ZINC35223825
REMARK  7 active torsions:
REMARK  status: ('A' for Active; 'I' for Inactive)
REMARK    1  A    between atoms: C_1  and  C_2
REMARK    2  A    between atoms: C_5  and  N_11
REMARK    3  A    between atoms: C_7  and  N_8
REMARK    4  A    between atoms: N_11  and  C_12
REMARK    5  A    between atoms: C_12  and  C_13
REMARK    6  A    between atoms: C_18  and  O_19
REMARK    7  A    between atoms: O_19  and  C_20
REMARK                            x       y       z     vdW  Elec       q    Type
REMARK                         _______ _______ _______ _____ _____    ______ ____
ROOT
ATOM      1  N   UNL     1       0.558  -4.114  -0.096  0.00  0.00    -0.340 N 
ATOM      2  H   UNL     1       0.817  -4.584   0.712  0.00  0.00    +0.146 HD
ENDROOT
BRANCH   1   7
ATOM      3  C   UNL     1      -0.537   1.447   0.088  0.00  0.00    +0.046 C 
ATOM      4  C   UNL     1      -0.246  -0.031   0.040  0.00  0.00    -0.020 A 
ATOM      5  C   UNL     1      -0.348  -0.715  -1.158  0.00  0.00    +0.007 A 
ATOM      6  C   UNL     1      -0.082  -2.069  -1.207  0.00  0.00    +0.023 A 
ATOM      7  C   UNL     1       0.289  -2.744  -0.051  0.00  0.00    +0.030 A 
ATOM      8  C   UNL     1       0.390  -2.054   1.150  0.00  0.00    +0.056 A 
ATOM      9  C   UNL     1       0.127  -0.699   1.191  0.00  0.00    +0.131 A 
BRANCH   9  10
ATOM     10  N   UNL     1       0.241   0.038   2.469  0.00  0.00    +0.057 N 
ATOM     11  O   UNL     1       0.674   1.167   2.480  0.00  0.00    -0.126 OA
ATOM     12  O   UNL     1      -0.100  -0.488   3.503  0.00  0.00    -0.126 OA
ENDBRANCH   9  10
ENDBRANCH   1   7
BRANCH   1  13
ATOM     13  C   UNL     1       0.450  -4.840  -1.364  0.00  0.00    +0.140 C 
BRANCH  13  14
ATOM     14  C   UNL     1       0.790  -6.291  -1.142  0.00  0.00    +0.012 A 
ATOM     15  C   UNL     1       2.048  -6.763  -1.465  0.00  0.00    +0.024 A 
ATOM     16  C   UNL     1       2.361  -8.095  -1.262  0.00  0.00    +0.018 A 
ATOM     17  C   UNL     1       1.415  -8.957  -0.735  0.00  0.00    +0.019 A 
ATOM     18  C   UNL     1       0.157  -8.489  -0.410  0.00  0.00    +0.047 A 
ATOM     19  C   UNL     1      -0.157  -7.152  -0.609  0.00  0.00    +0.125 A 
ATOM     20 BR   UNL     1       4.083  -8.739  -1.705  0.00  0.00    -0.050 Br
BRANCH  19  21
ATOM     21  O   UNL     1      -1.393  -6.688  -0.286  0.00  0.00    -0.495 OA
ATOM     22  C   UNL     1      -2.318  -7.631   0.260  0.00  0.00    +0.277 C 
ENDBRANCH  19  21
ENDBRANCH  13  14
ENDBRANCH   1  13
TORSDOF 5
