REMARK  Name = ZINC66240777
REMARK  8 active torsions:
REMARK  status: ('A' for Active; 'I' for Inactive)
REMARK    1  A    between atoms: C_1  and  C_2
REMARK    2  A    between atoms: C_10  and  C_11
REMARK    3  A    between atoms: C_11  and  C_13
REMARK    4  A    between atoms: C_11  and  N_14
REMARK    5  A    between atoms: C_15  and  C_17
REMARK    6  A    between atoms: C_20  and  N_23
REMARK    7  A    between atoms: C_24  and  N_30
REMARK    8  A    between atoms: C_25  and  C_28
REMARK                            x       y       z     vdW  Elec       q    Type
REMARK                         _______ _______ _______ _____ _____    ______ ____
ROOT
ATOM      1  N   UNL     1      -0.928  -1.145   3.277  0.00  0.00    -0.302 N 
ATOM      2  C   UNL     1      -1.473  -0.636   4.399  0.00  0.00    +0.245 C 
ATOM      3  O   UNL     1      -1.169   0.481   4.770  0.00  0.00    -0.270 OA
ATOM      4  H   UNL     1      -1.171  -2.037   2.981  0.00  0.00    +0.150 HD
ENDROOT
BRANCH   2   5
ATOM      5  C   UNL     1      -2.439  -1.435   5.179  0.00  0.00    +0.037 A 
ATOM      6  C   UNL     1      -2.785  -2.722   4.757  0.00  0.00    +0.015 A 
ATOM      7  C   UNL     1      -3.687  -3.465   5.487  0.00  0.00    +0.028 A 
ATOM      8  C   UNL     1      -4.252  -2.936   6.642  0.00  0.00    +0.067 A 
ATOM      9  C   UNL     1      -3.910  -1.656   7.065  0.00  0.00    +0.028 A 
ATOM     10  C   UNL     1      -3.006  -0.909   6.343  0.00  0.00    +0.015 A 
BRANCH   8  11
ATOM     11  N   UNL     1      -5.166  -3.692   7.380  0.00  0.00    -0.218 N 
ATOM     12  C   UNL     1      -5.300  -3.682   8.732  0.00  0.00    +0.137 A 
ATOM     13  C   UNL     1      -6.321  -4.575   9.047  0.00  0.00    +0.111 A 
ATOM     14  C   UNL     1      -6.788  -5.117   7.827  0.00  0.00    +0.155 A 
ATOM     15  N   UNL     1      -6.105  -4.586   6.853  0.00  0.00    -0.172 NA
BRANCH  12  16
ATOM     16  N   UNL     1      -4.563  -2.929   9.625  0.00  0.00    -0.342 N 
ATOM     17  H   UNL     1      -3.869  -2.333   9.300  0.00  0.00    +0.144 HD
ATOM     18  H   UNL     1      -4.739  -2.995  10.576  0.00  0.00    +0.144 HD
ENDBRANCH  12  16
BRANCH  13  19
ATOM     19  C   UNL     1      -6.805  -4.886  10.358  0.00  0.00    +0.104 C 
ATOM     20  N   UNL     1      -7.189  -5.132  11.398  0.00  0.00    -0.191 NA
ENDBRANCH  13  19
ENDBRANCH   8  11
ENDBRANCH   2   5
BRANCH   1  21
ATOM     21  C   UNL     1       0.030  -0.352   2.503  0.00  0.00    +0.137 C 
ATOM     22  C   UNL     1       1.432  -0.532   3.090  0.00  0.00    +0.036 C 
BRANCH  21  32
ATOM     23  C   UNL     1      -0.018   1.503   0.010  0.00  0.00    +0.048 C 
ATOM     24  C   UNL     1       0.002  -0.004   0.002  0.00  0.00    +0.000 A 
ATOM     25  C   UNL     1       0.009  -0.879  -1.177  0.00  0.00    +0.023 A 
ATOM     26  C   UNL     1       0.000  -0.660  -2.553  0.00  0.00    +0.012 A 
ATOM     27  C   UNL     1       0.011  -1.726  -3.409  0.00  0.00    +0.001 A 
ATOM     28  C   UNL     1       0.031  -3.023  -2.916  0.00  0.00    +0.004 A 
ATOM     29  C   UNL     1       0.040  -3.259  -1.558  0.00  0.00    +0.047 A 
ATOM     30  C   UNL     1       0.029  -2.190  -0.671  0.00  0.00    +0.136 A 
ATOM     31  O   UNL     1       0.033  -2.100   0.674  0.00  0.00    -0.458 OA
ATOM     32  C   UNL     1       0.023  -0.814   1.069  0.00  0.00    +0.129 A 
ENDBRANCH  21  32
ENDBRANCH   1  21
TORSDOF 6
