REMARK  Name = ZINC12513721
REMARK  7 active torsions:
REMARK  status: ('A' for Active; 'I' for Inactive)
REMARK    1  A    between atoms: C_1  and  C_2
REMARK    2  A    between atoms: C_5  and  C_32
REMARK    3  A    between atoms: C_6  and  C_8
REMARK    4  A    between atoms: C_8  and  N_65
REMARK    5  A    between atoms: C_11  and  C_14
REMARK    6  A    between atoms: C_11  and  O_31
REMARK    7  A    between atoms: C_21  and  C_23
REMARK                            x       y       z     vdW  Elec       q    Type
REMARK                         _______ _______ _______ _____ _____    ______ ____
ROOT
ATOM      1  C   UNL     1       0.545   0.839  -0.197  0.00  0.00    -0.075 C 
ATOM      2  C   UNL     1       0.119   1.473  -1.523  0.00  0.00    +0.021 C 
ATOM      3  C   UNL     1      -1.335   1.096  -1.820  0.00  0.00    +0.088 C 
ATOM      4  C   UNL     1      -2.221   1.562  -0.662  0.00  0.00    +0.021 C 
ATOM      5  C   UNL     1      -1.728   0.925   0.640  0.00  0.00    -0.075 C 
ATOM      6  N   UNL     1      -0.332   1.346   0.881  0.00  0.00    +0.383 N 
ATOM      7  H   UNL     1      -0.290   2.372   0.889  0.00  0.00    -0.081 HD
ENDROOT
BRANCH   3   8
ATOM      8  C   UNL     1      -1.778   1.767  -3.095  0.00  0.00    -0.015 A 
ATOM      9  C   UNL     1      -1.227   2.987  -3.460  0.00  0.00    +0.010 A 
ATOM     10  C   UNL     1      -1.618   3.618  -4.621  0.00  0.00    +0.047 A 
ATOM     11  C   UNL     1      -2.575   3.029  -5.440  0.00  0.00    +0.136 A 
ATOM     12  C   UNL     1      -3.130   1.792  -5.065  0.00  0.00    +0.021 A 
ATOM     13  C   UNL     1      -2.716   1.166  -3.886  0.00  0.00    +0.018 A 
ATOM     14  C   UNL     1      -4.086   1.452  -6.118  0.00  0.00    +0.063 A 
ATOM     15  C   UNL     1      -4.037   2.471  -7.014  0.00  0.00    +0.191 A 
ATOM     16  O   UNL     1      -3.143   3.395  -6.605  0.00  0.00    -0.450 OA
BRANCH  15  17
ATOM     17  C   UNL     1      -4.838   2.554  -8.244  0.00  0.00    +0.282 C 
ATOM     18  O   UNL     1      -5.506   1.603  -8.601  0.00  0.00    -0.267 OA
ATOM     19  N   UNL     1      -4.832   3.686  -8.976  0.00  0.00    -0.293 N 
ATOM     20  C   UNL     1      -3.990   4.810  -8.563  0.00  0.00    +0.119 C 
ATOM     21  C   UNL     1      -2.894   5.036  -9.617  0.00  0.00    +0.088 C 
ATOM     22  S   UNL     1      -3.688   5.325 -11.227  0.00  0.00    -0.158 S 
ATOM     23  C   UNL     1      -4.780   3.883 -11.415  0.00  0.00    +0.088 C 
ATOM     24  C   UNL     1      -5.671   3.778 -10.172  0.00  0.00    +0.119 C 
ENDBRANCH  15  17
ENDBRANCH   3   8
BRANCH   3  25
ATOM     25  O   UNL     1      -1.441  -0.322  -1.964  0.00  0.00    -0.384 OA
ATOM     26  H   UNL     1      -2.337  -0.632  -2.154  0.00  0.00    +0.211 HD
ENDBRANCH   3  25
BRANCH   6  27
ATOM     27  C   UNL     1       0.130   0.837   2.188  0.00  0.00    -0.043 C 
BRANCH  27  33
ATOM     28  C   UNL     1      -3.260   1.107   5.861  0.00  0.00    +0.044 C 
ATOM     29  C   UNL     1      -2.174   1.750   5.037  0.00  0.00    -0.050 A 
ATOM     30  C   UNL     1      -1.804   3.059   5.282  0.00  0.00    +0.003 A 
ATOM     31  C   UNL     1      -0.808   3.649   4.527  0.00  0.00    +0.004 A 
ATOM     32  C   UNL     1      -0.183   2.930   3.525  0.00  0.00    -0.049 A 
ATOM     33  C   UNL     1      -0.552   1.621   3.280  0.00  0.00    -0.061 A 
ATOM     34  C   UNL     1      -1.551   1.032   4.033  0.00  0.00    +0.005 A 
ATOM     35  C   UNL     1       0.902   3.574   2.701  0.00  0.00    +0.044 C 
ENDBRANCH  27  33
ENDBRANCH   6  27
TORSDOF 5
