REMARK  Name = ZINC43005633
REMARK  8 active torsions:
REMARK  status: ('A' for Active; 'I' for Inactive)
REMARK    1  A    between atoms: C_1  and  C_2
REMARK    2  A    between atoms: C_5  and  C_9
REMARK    3  A    between atoms: C_7  and  C_8
REMARK    4  A    between atoms: N_11  and  C_12
REMARK    5  A    between atoms: N_11  and  C_13
REMARK    6  A    between atoms: C_14  and  N_29
REMARK    7  A    between atoms: N_15  and  C_22
REMARK    8  A    between atoms: C_22  and  C_23
REMARK                            x       y       z     vdW  Elec       q    Type
REMARK                         _______ _______ _______ _____ _____    ______ ____
ROOT
ATOM      1  C   UNL     1      -0.054  -6.387  -1.121  0.00  0.00    +0.140 A 
ATOM      2  C   UNL     1       0.045  -7.022  -2.342  0.00  0.00    +0.128 A 
ATOM      3  N   UNL     1       0.115  -8.396  -2.381  0.00  0.00    -0.276 N 
ATOM      4  C   UNL     1       0.087  -9.111  -1.242  0.00  0.00    +0.331 A 
ATOM      5  O   UNL     1       0.151 -10.324  -1.297  0.00  0.00    -0.246 OA
ATOM      6  N   UNL     1      -0.009  -8.509  -0.043  0.00  0.00    -0.273 N 
ATOM      7  H   UNL     1      -0.027  -9.048   0.764  0.00  0.00    +0.173 HD
ATOM      8  C   UNL     1      -0.075  -7.167   0.051  0.00  0.00    +0.277 A 
ATOM      9  O   UNL     1      -0.157  -6.631   1.143  0.00  0.00    -0.266 OA
ENDROOT
BRANCH   1  12
ATOM     10  C   UNL     1      -1.103  -4.322  -1.705  0.00  0.00    +0.251 C 
ATOM     11  O   UNL     1      -1.108  -3.106  -1.726  0.00  0.00    -0.270 OA
ATOM     12  N   UNL     1      -0.128  -4.981  -1.048  0.00  0.00    -0.263 N 
ATOM     13  C   UNL     1       0.856  -4.236  -0.258  0.00  0.00    +0.139 C 
BRANCH  10  18
ATOM     14  C   UNL     1      -5.243  -7.262  -4.413  0.00  0.00    +0.044 C 
ATOM     15  C   UNL     1      -4.158  -6.492  -3.704  0.00  0.00    -0.047 A 
ATOM     16  C   UNL     1      -3.440  -7.093  -2.686  0.00  0.00    +0.004 A 
ATOM     17  C   UNL     1      -2.446  -6.394  -2.033  0.00  0.00    +0.013 A 
ATOM     18  C   UNL     1      -2.166  -5.077  -2.401  0.00  0.00    +0.037 A 
ATOM     19  C   UNL     1      -2.894  -4.477  -3.429  0.00  0.00    +0.016 A 
ATOM     20  C   UNL     1      -3.882  -5.189  -4.078  0.00  0.00    -0.047 A 
ATOM     21  C   UNL     1      -4.665  -4.544  -5.192  0.00  0.00    +0.044 C 
ENDBRANCH  10  18
ENDBRANCH   1  12
BRANCH   2  22
ATOM     22  N   UNL     1       0.072  -6.292  -3.506  0.00  0.00    -0.343 N 
ATOM     23  H   UNL     1       0.141  -5.325  -3.470  0.00  0.00    +0.144 HD
ATOM     24  H   UNL     1       0.022  -6.743  -4.363  0.00  0.00    +0.144 HD
ENDBRANCH   2  22
BRANCH   3  25
ATOM     25  C   UNL     1       0.221  -9.083  -3.670  0.00  0.00    +0.163 C 
BRANCH  25  26
ATOM     26  C   UNL     1       1.674  -9.248  -4.034  0.00  0.00    -0.028 A 
ATOM     27  C   UNL     1       2.320  -8.266  -4.761  0.00  0.00    +0.005 A 
ATOM     28  C   UNL     1       3.653  -8.418  -5.094  0.00  0.00    +0.000 A 
ATOM     29  C   UNL     1       4.339  -9.552  -4.701  0.00  0.00    +0.000 A 
ATOM     30  C   UNL     1       3.693 -10.533  -3.974  0.00  0.00    +0.000 A 
ATOM     31  C   UNL     1       2.361 -10.380  -3.636  0.00  0.00    +0.005 A 
ENDBRANCH  25  26
ENDBRANCH   3  25
TORSDOF 5
