REMARK  Name = ZINC36624817
REMARK  8 active torsions:
REMARK  status: ('A' for Active; 'I' for Inactive)
REMARK    1  A    between atoms: C_2  and  C_8
REMARK    2  A    between atoms: C_5  and  O_7
REMARK    3  A    between atoms: N_9  and  N_10
REMARK    4  A    between atoms: C_11  and  C_13
REMARK    5  A    between atoms: C_16  and  C_19
REMARK    6  A    between atoms: N_21  and  N_22
REMARK    7  A    between atoms: C_23  and  C_24
REMARK    8  A    between atoms: C_27  and  O_30
REMARK                            x       y       z     vdW  Elec       q    Type
REMARK                         _______ _______ _______ _____ _____    ______ ____
ROOT
ATOM      1  C   UNL     1       6.678   3.697  -2.555  0.00  0.00    +0.038 A 
ATOM      2  C   UNL     1       6.499   2.357  -2.207  0.00  0.00    +0.014 A 
ATOM      3  C   UNL     1       7.525   1.658  -1.609  0.00  0.00    +0.014 A 
ATOM      4  C   UNL     1       8.743   2.290  -1.351  0.00  0.00    +0.038 A 
ATOM      5  C   UNL     1       8.922   3.630  -1.700  0.00  0.00    +0.014 A 
ATOM      6  C   UNL     1       7.897   4.327  -2.302  0.00  0.00    +0.014 A 
ENDROOT
BRANCH   1   8
ATOM      7  N   UNL     1       4.399   3.839  -3.441  0.00  0.00    -0.203 N 
ATOM      8  C   UNL     1       5.576   4.447  -3.197  0.00  0.00    +0.263 C 
ATOM      9  O   UNL     1       5.733   5.613  -3.505  0.00  0.00    -0.268 OA
ATOM     10  H   UNL     1       4.273   2.909  -3.195  0.00  0.00    +0.178 HD
BRANCH   7  12
ATOM     11  C   UNL     1       2.183   4.006  -4.168  0.00  0.00    +0.138 C 
ATOM     12  N   UNL     1       3.356   4.549  -4.049  0.00  0.00    -0.187 NA
BRANCH  11  14
ATOM     13  C   UNL     1       2.461   2.792  -2.013  0.00  0.00    +0.013 A 
ATOM     14  C   UNL     1       1.734   3.000  -3.188  0.00  0.00    -0.005 A 
ATOM     15  C   UNL     1       0.579   2.251  -3.432  0.00  0.00    +0.013 A 
ATOM     16  C   UNL     1       0.164   1.312  -2.513  0.00  0.00    +0.046 A 
ATOM     17  C   UNL     1       0.890   1.109  -1.347  0.00  0.00    +0.117 A 
ATOM     18  C   UNL     1       2.038   1.851  -1.100  0.00  0.00    +0.046 A 
BRANCH  17  19
ATOM     19  O   UNL     1       0.476   0.183  -0.444  0.00  0.00    -0.507 OA
ATOM     20  H   UNL     1       0.841  -0.701  -0.591  0.00  0.00    +0.292 HD
ENDBRANCH  17  19
ENDBRANCH  11  14
ENDBRANCH   7  12
ENDBRANCH   1   8
BRANCH   4  21
ATOM     21  C   UNL     1       9.844   1.540  -0.708  0.00  0.00    +0.263 C 
ATOM     22  O   UNL     1       9.688   0.373  -0.404  0.00  0.00    -0.268 OA
ATOM     23  N   UNL     1      11.020   2.150  -0.460  0.00  0.00    -0.203 N 
ATOM     24  H   UNL     1      11.144   3.080  -0.703  0.00  0.00    +0.178 HD
BRANCH  23  25
ATOM     25  N   UNL     1      12.062   1.439   0.149  0.00  0.00    -0.187 NA
ATOM     26  C   UNL     1      13.148   2.057   0.504  0.00  0.00    +0.138 C 
BRANCH  26  27
ATOM     27  C   UNL     1      13.126   3.512   0.738  0.00  0.00    -0.005 A 
ATOM     28  C   UNL     1      14.318   4.241   0.732  0.00  0.00    +0.013 A 
ATOM     29  C   UNL     1      14.292   5.601   0.951  0.00  0.00    +0.046 A 
ATOM     30  C   UNL     1      13.083   6.247   1.178  0.00  0.00    +0.117 A 
ATOM     31  C   UNL     1      11.896   5.527   1.185  0.00  0.00    +0.046 A 
ATOM     32  C   UNL     1      11.912   4.167   0.961  0.00  0.00    +0.013 A 
BRANCH  30  33
ATOM     33  O   UNL     1      13.063   7.588   1.394  0.00  0.00    -0.507 OA
ATOM     34  H   UNL     1      12.967   8.115   0.588  0.00  0.00    +0.292 HD
ENDBRANCH  30  33
ENDBRANCH  26  27
ENDBRANCH  23  25
ENDBRANCH   4  21
TORSDOF 8
