REMARK  Name = ZINC34262061
REMARK  6 active torsions:
REMARK  status: ('A' for Active; 'I' for Inactive)
REMARK    1  A    between atoms: C_1  and  C_2
REMARK    2  A    between atoms: C_2  and  C_4
REMARK    3  A    between atoms: C_2  and  O_33
REMARK    4  A    between atoms: C_4  and  C_30
REMARK    5  A    between atoms: C_9  and  C_12
REMARK    6  A    between atoms: N_21  and  C_24
REMARK                            x       y       z     vdW  Elec       q    Type
REMARK                         _______ _______ _______ _____ _____    ______ ____
ROOT
ATOM      1  C   UNL     1       0.742  -0.511   1.242  0.00  0.00    +0.074 C 
ATOM      2  C   UNL     1       0.675  -2.033   1.325  0.00  0.00    +0.088 C 
ATOM      3  C   UNL     1       1.052  -2.162   2.849  0.00  0.00    +0.077 C 
ATOM      4  C   UNL     1       0.174  -1.185   3.503  0.00  0.00    -0.027 C 
ATOM      5  N   UNL     1       0.042  -0.072   2.493  0.00  0.00    +0.397 N 
ATOM      6  C   UNL     1       1.428  -3.552   2.947  0.00  0.00    +0.225 C 
ATOM      7  O   UNL     1       1.270  -4.295   3.892  0.00  0.00    -0.275 OA
ATOM      8  N   UNL     1       2.004  -3.850   1.737  0.00  0.00    -0.239 N 
ATOM      9  C   UNL     1       1.777  -2.885   0.778  0.00  0.00    +0.225 C 
ATOM     10  O   UNL     1       2.348  -2.746  -0.282  0.00  0.00    -0.275 OA
ATOM     11  H   UNL     1       0.468   0.772   2.845  0.00  0.00    -0.083 HD
ATOM     12  H   UNL     1      -0.935   0.091   2.300  0.00  0.00    -0.083 HD
ENDROOT
BRANCH   4  13
ATOM     13  C   UNL     1      -1.164  -1.806   3.815  0.00  0.00    -0.061 A 
ATOM     14  C   UNL     1      -2.115  -1.933   2.820  0.00  0.00    +0.003 A 
ATOM     15  C   UNL     1      -3.341  -2.503   3.105  0.00  0.00    +0.015 A 
ATOM     16  C   UNL     1      -3.617  -2.946   4.386  0.00  0.00    +0.018 A 
ATOM     17  C   UNL     1      -2.665  -2.818   5.381  0.00  0.00    +0.015 A 
ATOM     18  C   UNL     1      -1.437  -2.252   5.094  0.00  0.00    +0.003 A 
ATOM     19 BR   UNL     1      -5.295  -3.725   4.777  0.00  0.00    -0.050 Br
ENDBRANCH   4  13
BRANCH   8  20
ATOM     20  C   UNL     1       2.771  -5.072   1.483  0.00  0.00    +0.084 C 
ATOM     21  C   UNL     1       1.879  -6.293   1.720  0.00  0.00    +0.023 C 
ATOM     22  C   UNL     1       2.680  -7.569   1.454  0.00  0.00    +0.002 C 
ATOM     23  C   UNL     1       3.881  -7.623   2.401  0.00  0.00    +0.000 C 
ATOM     24  C   UNL     1       4.773  -6.403   2.165  0.00  0.00    +0.002 C 
ATOM     25  C   UNL     1       3.972  -5.127   2.430  0.00  0.00    +0.023 C 
ENDBRANCH   8  20
BRANCH   1  26
ATOM     26  C   UNL     1       2.172  -0.036   1.237  0.00  0.00    +0.349 C 
ATOM     27  O   UNL     1       2.583   0.670   2.142  0.00  0.00    -0.248 OA
ATOM     28  O   UNL     1       2.918  -0.358   0.328  0.00  0.00    -0.248 OA
ENDBRANCH   1  26
BRANCH   1  30
ATOM     29  C   UNL     1      -0.019   1.526   0.010  0.00  0.00    +0.037 C 
ATOM     30  C   UNL     1       0.002  -0.004   0.002  0.00  0.00    +0.112 C 
BRANCH  30  31
ATOM     31  O   UNL     1      -1.339  -0.499   0.012  0.00  0.00    -0.393 OA
ATOM     32  H   UNL     1      -1.853  -0.225   0.784  0.00  0.00    +0.210 HD
ENDBRANCH  30  31
ENDBRANCH   1  30
TORSDOF 5
