REMARK  Name = ZINC06017139
REMARK  5 active torsions:
REMARK  status: ('A' for Active; 'I' for Inactive)
REMARK    1  A    between atoms: C_3  and  C_23
REMARK    2  A    between atoms: C_4  and  N_8
REMARK    3  A    between atoms: C_9  and  C_11
REMARK    4  A    between atoms: C_11  and  N_12
REMARK    5  A    between atoms: N_12  and  C_13
REMARK                            x       y       z     vdW  Elec       q    Type
REMARK                         _______ _______ _______ _____ _____    ______ ____
ROOT
ATOM      1  N   UNL     1      -2.442   1.411   0.021  0.00  0.00    -0.283 N 
ATOM      2  C   UNL     1      -3.612   2.071   0.132  0.00  0.00    +0.234 C 
ATOM      3  O   UNL     1      -3.625   3.284   0.139  0.00  0.00    -0.274 OA
ATOM      4  H   UNL     1      -2.436   0.443  -0.050  0.00  0.00    +0.155 HD
ENDROOT
BRANCH   1   8
ATOM      5  C   UNL     1       1.155   3.524  -0.021  0.00  0.00    +0.021 A 
ATOM      6  C   UNL     1       1.105   2.287   0.584  0.00  0.00    +0.022 A 
ATOM      7  C   UNL     1      -0.095   1.571   0.607  0.00  0.00    +0.073 A 
ATOM      8  C   UNL     1      -1.241   2.118   0.009  0.00  0.00    +0.052 A 
ATOM      9  C   UNL     1      -1.174   3.368  -0.589  0.00  0.00    +0.044 A 
ATOM     10  C   UNL     1       0.020   4.064  -0.606  0.00  0.00    +0.043 A 
ATOM     11 CL   UNL     1       0.099   5.624  -1.363  0.00  0.00    -0.083 Cl
BRANCH   7  12
ATOM     12  C   UNL     1      -0.153   0.284   1.233  0.00  0.00    +0.101 C 
ATOM     13  N   UNL     1      -0.200  -0.736   1.730  0.00  0.00    -0.191 NA
ENDBRANCH   7  12
ENDBRANCH   1   8
BRANCH   2  14
ATOM     14  C   UNL     1      -4.903   1.303   0.247  0.00  0.00    +0.199 C 
BRANCH  14  15
ATOM     15  N   UNL     1      -6.022   2.242   0.355  0.00  0.00    -0.322 N 
ATOM     16  H   UNL     1      -5.856   3.198   0.344  0.00  0.00    +0.148 HD
BRANCH  15  17
ATOM     17  C   UNL     1      -7.304   1.770   0.471  0.00  0.00    +0.104 A 
ATOM     18  C   UNL     1      -8.353   2.642   0.577  0.00  0.00    +0.111 A 
ATOM     19  C   UNL     1      -9.656   2.130   0.689  0.00  0.00    +0.254 A 
ATOM     20  O   UNL     1     -10.607   2.888   0.779  0.00  0.00    -0.268 OA
ATOM     21  N   UNL     1      -9.848   0.797   0.700  0.00  0.00    -0.303 N 
ATOM     22  H   UNL     1     -10.747   0.441   0.780  0.00  0.00    +0.171 HD
ATOM     23  C   UNL     1      -8.804  -0.046   0.600  0.00  0.00    +0.159 A 
ATOM     24  S   UNL     1      -9.080  -1.736   0.617  0.00  0.00    -0.013 S 
ATOM     25  N   UNL     1      -7.547   0.419   0.487  0.00  0.00    -0.324 N 
ATOM     26  H   UNL     1      -6.807  -0.204   0.416  0.00  0.00    +0.169 HD
ENDBRANCH  15  17
ENDBRANCH  14  15
ENDBRANCH   2  14
TORSDOF 5
