REMARK  Name = ZINC66239816
REMARK  5 active torsions:
REMARK  status: ('A' for Active; 'I' for Inactive)
REMARK    1  A    between atoms: C_7  and  N_12
REMARK    2  A    between atoms: C_13  and  C_15
REMARK    3  A    between atoms: C_18  and  N_21
REMARK    4  A    between atoms: C_22  and  N_28
REMARK    5  A    between atoms: C_23  and  C_26
REMARK                            x       y       z     vdW  Elec       q    Type
REMARK                         _______ _______ _______ _____ _____    ______ ____
ROOT
ATOM      1  C   UNL     1      -2.147  -3.275   1.435  0.00  0.00    +0.037 A 
ATOM      2  C   UNL     1      -1.795  -3.622   2.742  0.00  0.00    +0.015 A 
ATOM      3  C   UNL     1      -2.758  -4.078   3.615  0.00  0.00    +0.028 A 
ATOM      4  C   UNL     1      -4.079  -4.191   3.197  0.00  0.00    +0.067 A 
ATOM      5  C   UNL     1      -4.433  -3.846   1.897  0.00  0.00    +0.028 A 
ATOM      6  C   UNL     1      -3.476  -3.385   1.020  0.00  0.00    +0.015 A 
ENDROOT
BRANCH   4   7
ATOM      7  N   UNL     1      -5.054  -4.654   4.085  0.00  0.00    -0.218 N 
ATOM      8  C   UNL     1      -6.348  -4.242   4.132  0.00  0.00    +0.137 A 
ATOM      9  C   UNL     1      -6.965  -4.955   5.156  0.00  0.00    +0.111 A 
ATOM     10  C   UNL     1      -5.985  -5.808   5.716  0.00  0.00    +0.155 A 
ATOM     11  N   UNL     1      -4.866  -5.626   5.074  0.00  0.00    -0.172 NA
BRANCH   8  12
ATOM     12  N   UNL     1      -6.938  -3.295   3.319  0.00  0.00    -0.342 N 
ATOM     13  H   UNL     1      -6.416  -2.853   2.631  0.00  0.00    +0.144 HD
ATOM     14  H   UNL     1      -7.875  -3.071   3.435  0.00  0.00    +0.144 HD
ENDBRANCH   8  12
BRANCH   9  15
ATOM     15  C   UNL     1      -8.332  -4.845   5.566  0.00  0.00    +0.104 C 
ATOM     16  N   UNL     1      -9.418  -4.758   5.890  0.00  0.00    -0.191 NA
ENDBRANCH   9  15
ENDBRANCH   4   7
BRANCH   1  18
ATOM     17  N   UNL     1       0.165  -2.679   0.899  0.00  0.00    -0.304 N 
ATOM     18  C   UNL     1      -1.117  -2.785   0.497  0.00  0.00    +0.245 C 
ATOM     19  O   UNL     1      -1.426  -2.478  -0.638  0.00  0.00    -0.270 OA
ATOM     20  H   UNL     1       0.411  -2.925   1.804  0.00  0.00    +0.150 HD
BRANCH  17  27
ATOM     21  C   UNL     1      -0.017   1.377   0.010  0.00  0.00    +0.001 A 
ATOM     22  C   UNL     1       1.172   2.084   0.002  0.00  0.00    +0.004 A 
ATOM     23  C   UNL     1       2.375   1.409  -0.011  0.00  0.00    +0.046 A 
ATOM     24  C   UNL     1       2.398   0.018  -0.018  0.00  0.00    +0.125 A 
ATOM     25  C   UNL     1       1.207  -0.687  -0.014  0.00  0.00    +0.014 A 
ATOM     26  C   UNL     1       0.002  -0.004   0.002  0.00  0.00    +0.009 A 
ATOM     27  C   UNL     1       1.187  -2.194  -0.033  0.00  0.00    +0.110 C 
ATOM     28  C   UNL     1       2.556  -2.734   0.389  0.00  0.00    +0.068 C 
ATOM     29  C   UNL     1       3.634  -1.986  -0.407  0.00  0.00    +0.231 C 
ATOM     30  O   UNL     1       3.602  -0.610  -0.025  0.00  0.00    -0.492 OA
ENDBRANCH  17  27
ENDBRANCH   1  18
TORSDOF 5
