REMARK  Name = ZINC50197669
REMARK  7 active torsions:
REMARK  status: ('A' for Active; 'I' for Inactive)
REMARK    1  A    between atoms: C_1  and  C_2
REMARK    2  A    between atoms: C_2  and  C_3
REMARK    3  A    between atoms: C_3  and  C_5
REMARK    4  A    between atoms: C_3  and  N_11
REMARK    5  A    between atoms: N_11  and  C_12
REMARK    6  A    between atoms: C_15  and  C_21
REMARK    7  A    between atoms: C_17  and  N_18
REMARK                            x       y       z     vdW  Elec       q    Type
REMARK                         _______ _______ _______ _____ _____    ______ ____
ROOT
ATOM      1  N   UNL     1       0.150  -0.205   2.422  0.00  0.00    -0.335 N 
ATOM      2  H   UNL     1      -0.819  -0.211   2.446  0.00  0.00    +0.147 HD
ENDROOT
BRANCH   1   3
ATOM      3  C   UNL     1       0.874   0.007   3.592  0.00  0.00    +0.058 A 
ATOM      4  C   UNL     1       2.261  -0.117   3.583  0.00  0.00    +0.026 A 
ATOM      5  C   UNL     1       2.980   0.092   4.737  0.00  0.00    +0.021 A 
ATOM      6  C   UNL     1       2.316   0.430   5.921  0.00  0.00    +0.054 A 
ATOM      7  C   UNL     1       0.924   0.554   5.926  0.00  0.00    +0.053 A 
ATOM      8  C   UNL     1       0.211   0.349   4.767  0.00  0.00    +0.148 A 
BRANCH   8   9
ATOM      9  N   UNL     1      -1.263   0.486   4.770  0.00  0.00    +0.058 N 
ATOM     10  O   UNL     1      -1.830   0.886   5.760  0.00  0.00    -0.126 OA
ATOM     11  O   UNL     1      -1.899   0.198   3.784  0.00  0.00    -0.126 OA
ENDBRANCH   8   9
BRANCH   6  12
ATOM     12  C   UNL     1       3.061   0.648   7.125  0.00  0.00    +0.099 C 
ATOM     13  N   UNL     1       3.652   0.820   8.079  0.00  0.00    -0.191 NA
ENDBRANCH   6  12
ENDBRANCH   1   3
BRANCH   1  14
ATOM     14  C   UNL     1       0.853  -0.419   1.155  0.00  0.00    +0.100 C 
BRANCH  14  15
ATOM     15  C   UNL     1       1.136  -1.889   0.980  0.00  0.00    -0.027 A 
ATOM     16  C   UNL     1       0.183  -2.824   1.339  0.00  0.00    +0.005 A 
ATOM     17  C   UNL     1       0.443  -4.172   1.178  0.00  0.00    +0.000 A 
ATOM     18  C   UNL     1       1.656  -4.585   0.658  0.00  0.00    +0.000 A 
ATOM     19  C   UNL     1       2.608  -3.650   0.298  0.00  0.00    +0.000 A 
ATOM     20  C   UNL     1       2.346  -2.302   0.455  0.00  0.00    +0.005 A 
ENDBRANCH  14  15
BRANCH  14  22
ATOM     21  C   UNL     1      -0.202   1.589   0.106  0.00  0.00    +0.006 C 
ATOM     22  C   UNL     1      -0.020   0.073  -0.002  0.00  0.00    +0.023 C 
ENDBRANCH  14  22
ENDBRANCH   1  14
TORSDOF 6
