REMARK  Name = ZINC35482432
REMARK  7 active torsions:
REMARK  status: ('A' for Active; 'I' for Inactive)
REMARK    1  A    between atoms: C_1  and  C_2
REMARK    2  A    between atoms: C_2  and  N_3
REMARK    3  A    between atoms: N_3  and  C_4
REMARK    4  A    between atoms: C_4  and  C_5
REMARK    5  A    between atoms: C_11  and  C_13
REMARK    6  A    between atoms: N_16  and  S_19
REMARK    7  A    between atoms: S_19  and  C_22
REMARK                            x       y       z     vdW  Elec       q    Type
REMARK                         _______ _______ _______ _____ _____    ______ ____
ROOT
ATOM      1  C   UNL     1      -1.172  -0.188   2.577  0.00  0.00    +0.078 C 
ATOM      2  C   UNL     1      -0.791   1.285   2.411  0.00  0.00    +0.030 C 
ATOM      3  C   UNL     1      -0.003   1.747   3.641  0.00  0.00    +0.110 C 
ATOM      4  N   UNL     1      -0.795   1.461   4.845  0.00  0.00    -0.177 NA
ATOM      5  C   UNL     1      -1.290   0.094   5.056  0.00  0.00    +0.110 C 
ATOM      6  C   UNL     1      -2.063  -0.349   3.811  0.00  0.00    +0.030 C 
ENDROOT
BRANCH   1   8
ATOM      7  N   UNL     1      -1.274  -0.771   0.176  0.00  0.00    -0.297 N 
ATOM      8  C   UNL     1      -1.918  -0.655   1.354  0.00  0.00    +0.219 C 
ATOM      9  O   UNL     1      -3.098  -0.926   1.430  0.00  0.00    -0.275 OA
BRANCH   7  11
ATOM     10  C   UNL     1       0.374   0.883  -0.552  0.00  0.00    +0.024 C 
ATOM     11  C   UNL     1       0.161  -0.488   0.094  0.00  0.00    +0.105 C 
ENDBRANCH   7  11
BRANCH   7  12
ATOM     12  C   UNL     1      -2.009  -1.181  -1.023  0.00  0.00    +0.142 C 
BRANCH  12  13
ATOM     13  C   UNL     1      -1.976  -2.683  -1.144  0.00  0.00    -0.030 A 
ATOM     14  C   UNL     1      -0.950  -3.298  -1.837  0.00  0.00    +0.005 A 
ATOM     15  C   UNL     1      -0.919  -4.676  -1.948  0.00  0.00    +0.000 A 
ATOM     16  C   UNL     1      -1.914  -5.439  -1.364  0.00  0.00    +0.000 A 
ATOM     17  C   UNL     1      -2.939  -4.823  -0.670  0.00  0.00    +0.000 A 
ATOM     18  C   UNL     1      -2.967  -3.446  -0.556  0.00  0.00    +0.005 A 
ENDBRANCH  12  13
ENDBRANCH   7  12
ENDBRANCH   1   8
BRANCH   4  19
ATOM     19  S   UNL     1      -1.124   2.657   5.942  0.00  0.00    +0.061 S 
ATOM     20  O   UNL     1      -1.377   2.011   7.182  0.00  0.00    -0.153 OA
ATOM     21  O   UNL     1      -0.109   3.639   5.788  0.00  0.00    -0.153 OA
BRANCH  19  22
ATOM     22  C   UNL     1      -2.637   3.414   5.450  0.00  0.00    +0.107 A 
ATOM     23  C   UNL     1      -2.619   4.490   4.582  0.00  0.00    +0.032 A 
ATOM     24  C   UNL     1      -3.803   5.090   4.191  0.00  0.00    +0.049 A 
ATOM     25  C   UNL     1      -5.010   4.610   4.670  0.00  0.00    +0.142 A 
ATOM     26  C   UNL     1      -5.028   3.526   5.545  0.00  0.00    +0.078 A 
ATOM     27  C   UNL     1      -3.840   2.926   5.929  0.00  0.00    +0.055 A 
ATOM     28  N   UNL     1      -6.257   3.052   6.024  0.00  0.00    -0.280 N 
ATOM     29  C   UNL     1      -7.394   3.433   5.402  0.00  0.00    +0.255 C 
ATOM     30  O   UNL     1      -8.470   3.061   5.818  0.00  0.00    -0.272 OA
ATOM     31  C   UNL     1      -7.318   4.324   4.188  0.00  0.00    +0.325 C 
ATOM     32  O   UNL     1      -6.183   5.187   4.295  0.00  0.00    -0.481 OA
ATOM     33  H   UNL     1      -6.291   2.459   6.791  0.00  0.00    +0.155 HD
ENDBRANCH  19  22
ENDBRANCH   4  19
TORSDOF 6
