REMARK  Name = ZINC65144319
REMARK  6 active torsions:
REMARK  status: ('A' for Active; 'I' for Inactive)
REMARK    1  A    between atoms: C_5  and  C_7
REMARK    2  A    between atoms: C_7  and  C_8
REMARK    3  A    between atoms: C_8  and  N_9
REMARK    4  A    between atoms: N_12  and  N_13
REMARK    5  A    between atoms: C_14  and  C_16
REMARK    6  A    between atoms: C_18  and  C_21
REMARK                            x       y       z     vdW  Elec       q    Type
REMARK                         _______ _______ _______ _____ _____    ______ ____
ROOT
ATOM      1  N   UNL     1       2.141  -6.840  -1.204  0.00  0.00    -0.228 N 
ATOM      2  C   UNL     1       2.170  -8.187  -1.212  0.00  0.00    +0.282 C 
ATOM      3  O   UNL     1       2.778  -8.776  -2.084  0.00  0.00    -0.267 OA
ATOM      4  H   UNL     1       1.656  -6.369  -0.508  0.00  0.00    +0.173 HD
ENDROOT
BRANCH   1   8
ATOM      5  N   UNL     1       2.108  -4.117  -1.225  0.00  0.00    -0.298 N 
ATOM      6  C   UNL     1       2.783  -4.771  -2.192  0.00  0.00    +0.316 C 
ATOM      7  O   UNL     1       3.365  -4.145  -3.056  0.00  0.00    -0.251 OA
ATOM      8  N   UNL     1       2.812  -6.118  -2.200  0.00  0.00    -0.218 N 
ATOM      9  H   UNL     1       1.644  -4.617  -0.535  0.00  0.00    +0.150 HD
ATOM     10  H   UNL     1       3.297  -6.588  -2.896  0.00  0.00    +0.174 HD
BRANCH   5  11
ATOM     11  C   UNL     1       2.077  -2.653  -1.216  0.00  0.00    +0.112 C 
BRANCH  11  12
ATOM     12  C   UNL     1       1.250  -2.168  -0.023  0.00  0.00    +0.074 C 
BRANCH  12  17
ATOM     13  C   UNL     1      -0.017   1.382   0.010  0.00  0.00    +0.003 A 
ATOM     14  C   UNL     1       1.194   2.059   0.002  0.00  0.00    +0.020 A 
ATOM     15  C   UNL     1       2.370   1.334  -0.013  0.00  0.00    +0.111 A 
ATOM     16  N   UNL     1       2.350   0.015  -0.021  0.00  0.00    -0.260 NA
ATOM     17  C   UNL     1       1.218  -0.661  -0.014  0.00  0.00    +0.043 A 
ATOM     18  C   UNL     1       0.002  -0.004   0.002  0.00  0.00    +0.023 A 
ENDBRANCH  12  17
ENDBRANCH  11  12
ENDBRANCH   5  11
ENDBRANCH   1   8
BRANCH   2  19
ATOM     19  C   UNL     1       1.460  -8.951  -0.158  0.00  0.00    +0.170 A 
ATOM     20  C   UNL     1       1.412 -10.354  -0.042  0.00  0.00    +0.086 A 
ATOM     21  C   UNL     1       0.661 -10.659   1.056  0.00  0.00    +0.175 A 
ATOM     22  O   UNL     1       0.253  -9.502   1.611  0.00  0.00    -0.353 OA
ATOM     23  N   UNL     1       0.771  -8.437   0.835  0.00  0.00    -0.073 NA
BRANCH  21  24
ATOM     24  C   UNL     1       0.353 -12.010   1.546  0.00  0.00    +0.059 A 
ATOM     25  C   UNL     1      -0.401 -12.389   2.641  0.00  0.00    +0.021 A 
ATOM     26  C   UNL     1      -0.549 -13.732   2.901  0.00  0.00    +0.028 A 
ATOM     27  C   UNL     1       0.046 -14.637   2.079  0.00  0.00    +0.079 A 
ATOM     28  S   UNL     1       0.849 -13.590   0.877  0.00  0.00    -0.074 S 
ATOM     29 CL   UNL     1       0.024 -16.371   2.171  0.00  0.00    -0.076 Cl
ENDBRANCH  21  24
ENDBRANCH   2  19
TORSDOF 6
