REMARK  Name = ZINC04086414
REMARK  6 active torsions:
REMARK  status: ('A' for Active; 'I' for Inactive)
REMARK    1  A    between atoms: C_1  and  C_2
REMARK    2  A    between atoms: C_6  and  C_7
REMARK    3  A    between atoms: N_8  and  N_9
REMARK    4  A    between atoms: C_10  and  C_12
REMARK    5  A    between atoms: C_12  and  N_13
REMARK    6  A    between atoms: C_14  and  C_16
REMARK                            x       y       z     vdW  Elec       q    Type
REMARK                         _______ _______ _______ _____ _____    ______ ____
ROOT
ATOM      1  N   UNL     1      -0.686   1.976   1.226  0.00  0.00    -0.303 N 
ATOM      2  C   UNL     1      -0.843   3.297   1.437  0.00  0.00    +0.245 C 
ATOM      3  O   UNL     1      -0.415   4.098   0.628  0.00  0.00    -0.270 OA
ATOM      4  H   UNL     1      -1.027   1.337   1.871  0.00  0.00    +0.150 HD
ENDROOT
BRANCH   2   5
ATOM      5  C   UNL     1      -1.533   3.773   2.651  0.00  0.00    +0.044 A 
ATOM      6  C   UNL     1      -2.133   2.870   3.516  0.00  0.00    +0.013 A 
ATOM      7  C   UNL     1      -2.784   3.311   4.661  0.00  0.00    +0.001 A 
ATOM      8  C   UNL     1      -2.853   4.638   4.966  0.00  0.00    +0.008 A 
ATOM      9  C   UNL     1      -2.259   5.589   4.118  0.00  0.00    -0.017 A 
ATOM     10  C   UNL     1      -1.587   5.158   2.949  0.00  0.00    -0.006 A 
ATOM     11  C   UNL     1      -1.000   6.107   2.101  0.00  0.00    +0.009 A 
ATOM     12  C   UNL     1      -1.075   7.431   2.416  0.00  0.00    +0.001 A 
ATOM     13  C   UNL     1      -1.732   7.856   3.568  0.00  0.00    +0.001 A 
ATOM     14  C   UNL     1      -2.317   6.962   4.412  0.00  0.00    +0.008 A 
ENDBRANCH   2   5
BRANCH   1  15
ATOM     15  C   UNL     1      -0.001   1.503   0.020  0.00  0.00    +0.202 C 
BRANCH  15  17
ATOM     16  N   UNL     1       0.628  -0.664  -0.994  0.00  0.00    -0.206 N 
ATOM     17  C   UNL     1       0.042  -0.003   0.024  0.00  0.00    +0.249 C 
ATOM     18  O   UNL     1      -0.453  -0.622   0.944  0.00  0.00    -0.272 OA
ATOM     19  H   UNL     1       1.024  -0.169  -1.729  0.00  0.00    +0.177 HD
BRANCH  16  21
ATOM     20  C   UNL     1       1.234  -2.701  -1.972  0.00  0.00    +0.145 C 
ATOM     21  N   UNL     1       0.667  -2.064  -0.990  0.00  0.00    -0.187 NA
BRANCH  20  27
ATOM     22  C   UNL     1       2.485  -4.494  -4.149  0.00  0.00    +0.045 C 
ATOM     23  C   UNL     1       1.817  -5.028  -2.908  0.00  0.00    -0.035 A 
ATOM     24  C   UNL     1       1.735  -6.381  -2.678  0.00  0.00    +0.011 A 
ATOM     25  C   UNL     1       1.120  -6.829  -1.552  0.00  0.00    +0.046 A 
ATOM     26  S   UNL     1       0.631  -5.308  -0.755  0.00  0.00    -0.095 S 
ATOM     27  C   UNL     1       1.275  -4.167  -1.969  0.00  0.00    +0.035 A 
ENDBRANCH  20  27
ENDBRANCH  16  21
ENDBRANCH  15  17
ENDBRANCH   1  15
TORSDOF 5
