REMARK  Name = ZINC29057038
REMARK  10 active torsions:
REMARK  status: ('A' for Active; 'I' for Inactive)
REMARK    1  A    between atoms: C_1  and  C_2
REMARK    2  A    between atoms: C_6  and  C_36
REMARK    3  A    between atoms: C_11  and  C_33
REMARK    4  A    between atoms: C_12  and  S_13
REMARK    5  A    between atoms: S_13  and  C_14
REMARK    6  A    between atoms: C_17  and  C_21
REMARK    7  A    between atoms: N_23  and  C_24
REMARK    8  A    between atoms: C_28  and  C_30
REMARK    9  A    between atoms: C_36  and  C_38
REMARK   10  A    between atoms: C_36  and  O_39
REMARK                            x       y       z     vdW  Elec       q    Type
REMARK                         _______ _______ _______ _____ _____    ______ ____
ROOT
ATOM      1  C   UNL     1       4.477  -0.511   0.124  0.00  0.00    +0.033 C 
ATOM      2  C   UNL     1       5.881  -0.961   0.588  0.00  0.00    +0.006 C 
ATOM      3  C   UNL     1       5.702  -2.416   1.061  0.00  0.00    +0.017 C 
ATOM      4  N   UNL     1       4.282  -2.770   0.845  0.00  0.00    +0.387 N 
ATOM      5  C   UNL     1       3.535  -1.486   0.875  0.00  0.00    -0.067 C 
ATOM      6  H   UNL     1       4.173  -3.273  -0.127  0.00  0.00    -0.085 HD
ATOM      7  H   UNL     1       3.947  -3.445   1.647  0.00  0.00    -0.085 HD
ENDROOT
BRANCH   3   8
ATOM      8  C   UNL     1       6.588  -3.331   0.256  0.00  0.00    +0.203 C 
ATOM      9  O   UNL     1       6.125  -3.959  -0.673  0.00  0.00    -0.277 OA
ATOM     10  N   UNL     1       7.893  -3.451   0.568  0.00  0.00    -0.287 N 
ATOM     11  H   UNL     1       8.296  -2.941   1.455  0.00  0.00    +0.155 HD
BRANCH  10  12
ATOM     12  C   UNL     1       8.737  -4.224  -0.238  0.00  0.00    +0.034 A 
ATOM     13  C   UNL     1      10.055  -3.834  -0.440  0.00  0.00    +0.023 A 
ATOM     14  C   UNL     1      10.893  -4.594  -1.234  0.00  0.00    +0.003 A 
ATOM     15  C   UNL     1      10.426  -5.747  -1.832  0.00  0.00    +0.015 A 
ATOM     16  C   UNL     1       9.103  -6.148  -1.636  0.00  0.00    +0.065 A 
ATOM     17  C   UNL     1       8.259  -5.383  -0.830  0.00  0.00    +0.038 A 
BRANCH  16  18
ATOM     18  C   UNL     1       8.600  -7.381  -2.275  0.00  0.00    +0.387 C 
ATOM     19  O   UNL     1       7.448  -7.728  -2.103  0.00  0.00    -0.241 OA
ATOM     20  O   UNL     1       9.418  -8.121  -3.048  0.00  0.00    -0.241 OA
ENDBRANCH  16  18
ENDBRANCH  10  12
ENDBRANCH   3   8
BRANCH   1  21
ATOM     21  S   UNL     1       4.156   1.199   0.622  0.00  0.00    -0.126 S 
BRANCH  21  30
ATOM     22  C   UNL     1       2.857   2.539  -2.236  0.00  0.00    +0.015 C 
ATOM     23  C   UNL     1       2.166   1.390  -1.498  0.00  0.00    +0.046 C 
ATOM     24  C   UNL     1       0.640   1.581  -1.516  0.00  0.00    +0.104 C 
ATOM     25  C   UNL     1       0.185   3.004  -1.832  0.00  0.00    +0.125 C 
ATOM     26  C   UNL     1      -0.201   2.992  -0.377  0.00  0.00    +0.228 C 
ATOM     27  O   UNL     1      -0.752   3.818   0.320  0.00  0.00    -0.275 OA
ATOM     28  N   UNL     1       0.270   1.757  -0.106  0.00  0.00    -0.260 N 
ATOM     29  C   UNL     1       1.415   1.612   0.693  0.00  0.00    +0.135 C 
ATOM     30  C   UNL     1       2.533   1.409  -0.032  0.00  0.00    +0.019 C 
BRANCH  29  31
ATOM     31  C   UNL     1       1.398   1.673   2.106  0.00  0.00    +0.401 C 
ATOM     32  O   UNL     1       0.368   1.955   2.691  0.00  0.00    -0.239 OA
ATOM     33  O   UNL     1       2.524   1.419   2.807  0.00  0.00    -0.239 OA
ENDBRANCH  29  31
BRANCH  25  34
ATOM     34  C   UNL     1      -0.998   3.088  -2.799  0.00  0.00    +0.125 C 
ATOM     35  C   UNL     1      -1.359   4.556  -3.037  0.00  0.00    +0.038 C 
BRANCH  34  36
ATOM     36  O   UNL     1      -0.642   2.478  -4.041  0.00  0.00    -0.391 OA
ATOM     37  H   UNL     1      -1.370   2.442  -4.865  0.00  0.00    +0.210 HD
ENDBRANCH  34  36
ENDBRANCH  25  34
ENDBRANCH  21  30
ENDBRANCH   1  21
TORSDOF 8
