REMARK  Name = ZINC49964572
REMARK  5 active torsions:
REMARK  status: ('A' for Active; 'I' for Inactive)
REMARK    1  A    between atoms: C_1  and  N_2
REMARK    2  A    between atoms: N_2  and  C_3
REMARK    3  A    between atoms: N_2  and  C_15
REMARK    4  A    between atoms: C_3  and  C_4
REMARK    5  A    between atoms: C_6  and  N_14
REMARK                            x       y       z     vdW  Elec       q    Type
REMARK                         _______ _______ _______ _____ _____    ______ ____
ROOT
ATOM      1  C   UNL     1      -1.372  -1.093   1.746  0.00  0.00    +0.014 A 
ATOM      2  C   UNL     1      -1.981  -0.270   2.673  0.00  0.00    +0.031 A 
ATOM      3  C   UNL     1      -3.259  -0.565   3.128  0.00  0.00    +0.025 A 
ATOM      4  C   UNL     1      -3.922  -1.688   2.651  0.00  0.00    +0.032 A 
ATOM      5  C   UNL     1      -3.311  -2.511   1.724  0.00  0.00    +0.022 A 
ATOM      6  C   UNL     1      -2.038  -2.211   1.264  0.00  0.00    +0.134 A 
ATOM      7  O   UNL     1      -1.432  -3.006   0.341  0.00  0.00    -0.466 OA
ATOM      8  C   UNL     1      -1.985  -4.311   0.149  0.00  0.00    +0.394 C 
ATOM      9  O   UNL     1      -3.406  -4.190   0.014  0.00  0.00    -0.339 OA
ATOM     10  C   UNL     1      -4.039  -3.730   1.216  0.00  0.00    +0.202 C 
ENDROOT
BRANCH   3  11
ATOM     11  N   UNL     1      -3.879   0.268   4.066  0.00  0.00    -0.358 N 
ATOM     12  H   UNL     1      -3.415   1.052   4.399  0.00  0.00    +0.142 HD
ATOM     13  H   UNL     1      -4.772   0.061   4.383  0.00  0.00    +0.142 HD
ENDBRANCH   3  11
BRANCH   1  14
ATOM     14  C   UNL     1       0.016  -0.773   1.253  0.00  0.00    +0.143 C 
BRANCH  14  16
ATOM     15  C   UNL     1       0.067  -0.948  -1.278  0.00  0.00    +0.129 C 
ATOM     16  N   UNL     1      -0.069  -0.138  -0.065  0.00  0.00    -0.328 N 
BRANCH  16  17
ATOM     17  C   UNL     1      -0.279   1.241  -0.164  0.00  0.00    +0.030 A 
ATOM     18  C   UNL     1      -0.287   2.027   0.981  0.00  0.00    +0.026 A 
ATOM     19  C   UNL     1      -0.495   3.389   0.880  0.00  0.00    +0.040 A 
ATOM     20  C   UNL     1      -0.694   3.970  -0.361  0.00  0.00    +0.124 A 
ATOM     21  C   UNL     1      -0.686   3.188  -1.504  0.00  0.00    +0.040 A 
ATOM     22  C   UNL     1      -0.474   1.827  -1.408  0.00  0.00    +0.026 A 
ATOM     23  F   UNL     1      -0.897   5.303  -0.457  0.00  0.00    -0.205 F 
ENDBRANCH  16  17
ENDBRANCH  14  16
ENDBRANCH   1  14
TORSDOF 4
