REMARK  Name = ZINC16072379
REMARK  6 active torsions:
REMARK  status: ('A' for Active; 'I' for Inactive)
REMARK    1  A    between atoms: C_1  and  C_2
REMARK    2  A    between atoms: C_2  and  C_4
REMARK    3  A    between atoms: C_2  and  O_18
REMARK    4  A    between atoms: N_6  and  N_7
REMARK    5  A    between atoms: C_8  and  C_10
REMARK    6  A    between atoms: O_18  and  C_19
REMARK                            x       y       z     vdW  Elec       q    Type
REMARK                         _______ _______ _______ _____ _____    ______ ____
ROOT
ATOM      1  C   UNL     1      -2.581   7.950  -0.101  0.00  0.00    +0.270 C 
ATOM      2  O   UNL     1      -3.647   7.407   0.097  0.00  0.00    -0.270 OA
ATOM      3  N   UNL     1      -1.471   7.209  -0.289  0.00  0.00    -0.231 N 
ATOM      4  H   UNL     1      -0.619   7.644  -0.448  0.00  0.00    +0.173 HD
ENDROOT
BRANCH   3   5
ATOM      5  N   UNL     1      -1.548   5.811  -0.255  0.00  0.00    -0.230 N 
ATOM      6  C   UNL     1      -0.438   5.070  -0.442  0.00  0.00    +0.260 C 
ATOM      7  O   UNL     1       0.630   5.615  -0.641  0.00  0.00    -0.269 OA
ATOM      8  H   UNL     1      -2.401   5.376  -0.096  0.00  0.00    +0.173 HD
BRANCH   6   9
ATOM      9  C   UNL     1      -0.520   3.594  -0.406  0.00  0.00    +0.041 A 
ATOM     10  C   UNL     1       0.628   2.824  -0.600  0.00  0.00    +0.033 A 
ATOM     11  C   UNL     1       0.546   1.446  -0.566  0.00  0.00    +0.043 A 
ATOM     12  C   UNL     1      -0.672   0.828  -0.340  0.00  0.00    +0.040 A 
ATOM     13  C   UNL     1      -1.815   1.587  -0.152  0.00  0.00    +0.043 A 
ATOM     14  C   UNL     1      -1.745   2.965  -0.178  0.00  0.00    +0.033 A 
ATOM     15 CL   UNL     1      -3.340   0.803   0.124  0.00  0.00    -0.083 Cl
ATOM     16 CL   UNL     1       1.972   0.487  -0.808  0.00  0.00    -0.083 Cl
ENDBRANCH   6   9
ENDBRANCH   3   5
BRANCH   1  18
ATOM     17  C   UNL     1      -1.641   9.947   1.030  0.00  0.00    +0.062 C 
ATOM     18  C   UNL     1      -2.498   9.454  -0.138  0.00  0.00    +0.257 C 
BRANCH  18  19
ATOM     19  O   UNL     1      -3.812  10.007  -0.030  0.00  0.00    -0.477 OA
BRANCH  19  20
ATOM     20  C   UNL     1      -4.004  11.248  -0.551  0.00  0.00    +0.157 A 
ATOM     21  C   UNL     1      -2.928  11.966  -1.051  0.00  0.00    +0.048 A 
ATOM     22  C   UNL     1      -3.126  13.227  -1.581  0.00  0.00    +0.004 A 
ATOM     23  C   UNL     1      -4.395  13.773  -1.614  0.00  0.00    +0.003 A 
ATOM     24  C   UNL     1      -5.471  13.061  -1.117  0.00  0.00    +0.042 A 
ATOM     25  C   UNL     1      -5.280  11.796  -0.590  0.00  0.00    +0.165 A 
ATOM     26  F   UNL     1      -6.331  11.098  -0.109  0.00  0.00    -0.202 F 
ENDBRANCH  19  20
ENDBRANCH  18  19
ENDBRANCH   1  18
TORSDOF 5
