REMARK  Name = ZINC18260832
REMARK  3 active torsions:
REMARK  status: ('A' for Active; 'I' for Inactive)
REMARK    1  A    between atoms: C_6  and  N_7
REMARK    2  A    between atoms: C_8  and  C_10
REMARK    3  A    between atoms: C_10  and  N_11
REMARK                            x       y       z     vdW  Elec       q    Type
REMARK                         _______ _______ _______ _____ _____    ______ ____
ROOT
ATOM      1  N   UNL     1      -8.076   3.201   2.256  0.00  0.00    -0.284 N 
ATOM      2  C   UNL     1      -8.547   4.305   2.869  0.00  0.00    +0.235 C 
ATOM      3  O   UNL     1      -7.892   5.326   2.868  0.00  0.00    -0.274 OA
ATOM      4  H   UNL     1      -8.632   2.408   2.191  0.00  0.00    +0.155 HD
ENDROOT
BRANCH   1  10
ATOM      5  C   UNL     1      -6.515   2.465   0.567  0.00  0.00    +0.027 A 
ATOM      6  C   UNL     1      -5.241   2.462   0.030  0.00  0.00    +0.051 A 
ATOM      7  C   UNL     1      -4.230   3.188   0.636  0.00  0.00    +0.167 A 
ATOM      8  C   UNL     1      -4.498   3.926   1.788  0.00  0.00    +0.169 A 
ATOM      9  C   UNL     1      -5.774   3.929   2.324  0.00  0.00    +0.072 A 
ATOM     10  C   UNL     1      -6.785   3.198   1.714  0.00  0.00    +0.037 A 
ATOM     11  O   UNL     1      -3.348   4.546   2.187  0.00  0.00    -0.447 OA
ATOM     12  C   UNL     1      -2.470   4.493   1.054  0.00  0.00    +0.254 C 
ATOM     13  O   UNL     1      -2.912   3.347   0.312  0.00  0.00    -0.448 OA
ATOM     14  C   UNL     1      -1.027   4.305   1.511  0.00  0.00    +0.093 C 
ATOM     15  C   UNL     1      -0.109   4.222   0.290  0.00  0.00    +0.008 C 
ATOM     16  C   UNL     1      -0.236   5.508  -0.530  0.00  0.00    +0.000 C 
ATOM     17  C   UNL     1      -1.683   5.671  -1.002  0.00  0.00    +0.008 C 
ATOM     18  C   UNL     1      -2.609   5.758   0.214  0.00  0.00    +0.093 C 
ENDBRANCH   1  10
BRANCH   2  19
ATOM     19  C   UNL     1      -9.889   4.271   3.556  0.00  0.00    +0.214 C 
BRANCH  19  20
ATOM     20  N   UNL     1     -10.171   5.585   4.141  0.00  0.00    -0.215 N 
ATOM     21  C   UNL     1     -10.812   6.582   3.493  0.00  0.00    +0.247 C 
ATOM     22  O   UNL     1     -11.247   6.564   2.362  0.00  0.00    -0.273 OA
ATOM     23  C   UNL     1     -10.870   7.722   4.478  0.00  0.00    +0.113 C 
ATOM     24  C   UNL     1     -12.323   8.115   4.780  0.00  0.00    +0.035 C 
ATOM     25  C   UNL     1     -12.262   9.653   4.972  0.00  0.00    +0.003 C 
ATOM     26  C   UNL     1     -11.218  10.091   3.914  0.00  0.00    +0.003 C 
ATOM     27  C   UNL     1     -10.162   8.964   3.933  0.00  0.00    +0.035 C 
ATOM     28  N   UNL     1     -10.202   7.207   5.675  0.00  0.00    -0.285 N 
ATOM     29  C   UNL     1      -9.831   5.944   5.385  0.00  0.00    +0.310 C 
ATOM     30  O   UNL     1      -9.249   5.215   6.164  0.00  0.00    -0.252 OA
ATOM     31  H   UNL     1     -10.059   7.679   6.510  0.00  0.00    +0.151 HD
ENDBRANCH  19  20
ENDBRANCH   2  19
TORSDOF 3
