REMARK  Name = ZINC36861011
REMARK  6 active torsions:
REMARK  status: ('A' for Active; 'I' for Inactive)
REMARK    1  A    between atoms: C_1  and  C_2
REMARK    2  A    between atoms: C_8  and  C_10
REMARK    3  A    between atoms: C_12  and  N_18
REMARK    4  A    between atoms: N_14  and  C_15
REMARK    5  A    between atoms: C_15  and  C_16
REMARK    6  A    between atoms: C_15  and  C_17
REMARK                            x       y       z     vdW  Elec       q    Type
REMARK                         _______ _______ _______ _____ _____    ______ ____
ROOT
ATOM      1  C   UNL     1      -3.617  -4.353   0.106  0.00  0.00    +0.107 A 
ATOM      2  C   UNL     1      -4.996  -4.377   0.121  0.00  0.00    +0.055 A 
ATOM      3  C   UNL     1      -5.384  -5.719   0.239  0.00  0.00    +0.043 A 
ATOM      4  C   UNL     1      -4.256  -6.474   0.293  0.00  0.00    +0.109 A 
ATOM      5  N   UNL     1      -3.175  -5.652   0.207  0.00  0.00    -0.339 N 
ENDROOT
BRANCH   1  13
ATOM      6  C   UNL     1       0.714   0.984   0.012  0.00  0.00    +0.089 C 
ATOM      7  C   UNL     1      -0.715   0.504   0.010  0.00  0.00    +0.136 A 
ATOM      8  C   UNL     1      -1.116  -0.779   0.005  0.00  0.00    +0.091 A 
ATOM      9  C   UNL     1      -2.529  -0.797   0.005  0.00  0.00    +0.168 A 
ATOM     10  N   UNL     1      -2.947   0.443   0.009  0.00  0.00    -0.063 NA
ATOM     11  O   UNL     1      -1.807   1.284   0.018  0.00  0.00    -0.358 OA
ATOM     12  N   UNL     1      -3.336  -1.934   0.000  0.00  0.00    -0.262 N 
ATOM     13  C   UNL     1      -2.773  -3.159  -0.004  0.00  0.00    +0.266 C 
ATOM     14  O   UNL     1      -1.565  -3.274  -0.100  0.00  0.00    -0.268 OA
ATOM     15  H   UNL     1      -4.301  -1.844   0.001  0.00  0.00    +0.157 HD
ENDBRANCH   1  13
BRANCH   5  16
ATOM     16  C   UNL     1      -1.774  -6.080   0.224  0.00  0.00    +0.081 C 
ATOM     17  C   UNL     1      -1.512  -6.921   1.474  0.00  0.00    +0.030 C 
ATOM     18  C   UNL     1      -1.481  -6.915  -1.024  0.00  0.00    +0.030 C 
ENDBRANCH   5  16
BRANCH   3  19
ATOM     19  N   UNL     1      -6.706  -6.198   0.292  0.00  0.00    -0.357 N 
ATOM     20  H   UNL     1      -7.450  -5.577   0.246  0.00  0.00    +0.142 HD
ATOM     21  H   UNL     1      -6.874  -7.150   0.376  0.00  0.00    +0.142 HD
ENDBRANCH   3  19
TORSDOF 3
