REMARK  Name = ZINC41639417
REMARK  8 active torsions:
REMARK  status: ('A' for Active; 'I' for Inactive)
REMARK    1  A    between atoms: C_1  and  N_2
REMARK    2  A    between atoms: N_2  and  C_3
REMARK    3  A    between atoms: C_5  and  C_10
REMARK    4  A    between atoms: C_10  and  N_11
REMARK    5  A    between atoms: C_12  and  C_14
REMARK    6  A    between atoms: N_16  and  C_17
REMARK    7  A    between atoms: C_20  and  O_23
REMARK    8  A    between atoms: O_23  and  C_24
REMARK                            x       y       z     vdW  Elec       q    Type
REMARK                         _______ _______ _______ _____ _____    ______ ____
ROOT
ATOM      1  C   UNL     1      -3.355  -3.504   2.108  0.00  0.00    +0.303 C 
ATOM      2  O   UNL     1      -4.218  -2.961   1.449  0.00  0.00    -0.265 OA
ATOM      3  N   UNL     1      -3.683  -4.162   3.237  0.00  0.00    -0.278 N 
ATOM      4  H   UNL     1      -3.005  -4.654   3.726  0.00  0.00    +0.155 HD
ENDROOT
BRANCH   3   5
ATOM      5  C   UNL     1      -5.001  -4.136   3.704  0.00  0.00    +0.034 A 
ATOM      6  C   UNL     1      -6.058  -4.133   2.802  0.00  0.00    +0.027 A 
ATOM      7  C   UNL     1      -7.359  -4.107   3.264  0.00  0.00    +0.047 A 
ATOM      8  C   UNL     1      -7.611  -4.085   4.628  0.00  0.00    +0.121 A 
ATOM      9  C   UNL     1      -6.556  -4.088   5.529  0.00  0.00    +0.047 A 
ATOM     10  C   UNL     1      -5.255  -4.120   5.070  0.00  0.00    +0.027 A 
BRANCH   8  11
ATOM     11  O   UNL     1      -8.892  -4.060   5.082  0.00  0.00    -0.489 OA
BRANCH  11  12
ATOM     12  C   UNL     1      -9.928  -4.178   4.105  0.00  0.00    +0.173 C 
ATOM     13  C   UNL     1     -10.287  -2.786   3.545  0.00  0.00    +0.044 C 
ATOM     14  C   UNL     1     -11.822  -2.842   3.344  0.00  0.00    +0.004 C 
ATOM     15  C   UNL     1     -12.298  -3.658   4.571  0.00  0.00    +0.004 C 
ATOM     16  C   UNL     1     -11.207  -4.732   4.758  0.00  0.00    +0.044 C 
ENDBRANCH  11  12
ENDBRANCH   8  11
ENDBRANCH   3   5
BRANCH   1  18
ATOM     17  N   UNL     1      -1.601  -2.784   0.537  0.00  0.00    -0.303 N 
ATOM     18  C   UNL     1      -1.929  -3.442   1.667  0.00  0.00    +0.300 C 
ATOM     19  O   UNL     1      -1.066  -3.985   2.325  0.00  0.00    -0.265 OA
ATOM     20  H   UNL     1      -2.291  -2.351   0.011  0.00  0.00    +0.149 HD
BRANCH  17  21
ATOM     21  C   UNL     1      -0.203  -2.724   0.105  0.00  0.00    +0.143 C 
BRANCH  21  26
ATOM     22  C   UNL     1      -1.533   0.378   0.654  0.00  0.00    +0.130 C 
ATOM     23  N   UNL     1      -0.216   0.121   0.066  0.00  0.00    -0.323 N 
ATOM     24  C   UNL     1       0.995   0.567   0.758  0.00  0.00    +0.130 C 
ATOM     25  C   UNL     1      -0.117  -0.544  -1.151  0.00  0.00    +0.103 A 
ATOM     26  C   UNL     1      -0.107  -1.936  -1.176  0.00  0.00    +0.008 A 
ATOM     27  C   UNL     1      -0.007  -2.585  -2.393  0.00  0.00    +0.010 A 
ATOM     28  C   UNL     1       0.080  -1.819  -3.548  0.00  0.00    +0.018 A 
ATOM     29  C   UNL     1       0.064  -0.443  -3.449  0.00  0.00    +0.084 A 
ATOM     30  N   UNL     1      -0.038   0.150  -2.275  0.00  0.00    -0.349 N 
ATOM     31  H   UNL     1      -0.050   1.120  -2.234  0.00  0.00    +0.167 HD
ENDBRANCH  21  26
ENDBRANCH  17  21
ENDBRANCH   1  18
TORSDOF 6
