REMARK  Name = ZINC65192308
REMARK  5 active torsions:
REMARK  status: ('A' for Active; 'I' for Inactive)
REMARK    1  A    between atoms: C_6  and  C_7
REMARK    2  A    between atoms: C_7  and  C_12
REMARK    3  A    between atoms: N_14  and  N_15
REMARK    4  A    between atoms: N_18  and  C_19
REMARK    5  A    between atoms: C_19  and  C_20
REMARK                            x       y       z     vdW  Elec       q    Type
REMARK                         _______ _______ _______ _____ _____    ______ ____
ROOT
ATOM      1  C   UNL     1      -1.293  -0.774   0.009  0.00  0.00    +0.073 C 
ATOM      2  C   UNL     1      -1.173  -1.512  -1.340  0.00  0.00    +0.021 C 
ATOM      3  C   UNL     1      -2.636  -1.653  -1.828  0.00  0.00    +0.001 C 
ATOM      4  C   UNL     1      -3.271  -0.307  -1.397  0.00  0.00    +0.001 C 
ATOM      5  C   UNL     1      -2.627  -0.008  -0.027  0.00  0.00    +0.021 C 
ENDROOT
BRANCH   1  11
ATOM      6  C   UNL     1       0.124   1.115  -0.819  0.00  0.00    +0.008 A 
ATOM      7  C   UNL     1       1.175   2.001  -0.673  0.00  0.00    +0.050 A 
ATOM      8  C   UNL     1       1.959   1.966   0.470  0.00  0.00    +0.162 A 
ATOM      9  C   UNL     1       1.684   1.040   1.469  0.00  0.00    +0.162 A 
ATOM     10  C   UNL     1       0.629   0.153   1.316  0.00  0.00    +0.054 A 
ATOM     11  C   UNL     1      -0.148   0.192   0.173  0.00  0.00    -0.029 A 
ATOM     12  O   UNL     1       2.436   0.994   2.603  0.00  0.00    -0.485 OA
ATOM     13  C   UNL     1       3.709   1.646   2.557  0.00  0.00    +0.270 C 
ATOM     14  C   UNL     1       3.519   3.028   1.916  0.00  0.00    +0.270 C 
ATOM     15  O   UNL     1       2.993   2.842   0.598  0.00  0.00    -0.485 OA
ENDBRANCH   1  11
BRANCH   1  16
ATOM     16  C   UNL     1      -1.298  -1.766   1.143  0.00  0.00    +0.240 C 
ATOM     17  O   UNL     1      -2.207  -1.764   1.946  0.00  0.00    -0.273 OA
ATOM     18  N   UNL     1      -0.293  -2.655   1.265  0.00  0.00    -0.232 N 
ATOM     19  H   UNL     1       0.469  -2.611   0.667  0.00  0.00    +0.173 HD
BRANCH  18  20
ATOM     20  N   UNL     1      -0.349  -3.644   2.256  0.00  0.00    -0.218 N 
ATOM     21  C   UNL     1       0.656  -4.534   2.378  0.00  0.00    +0.316 C 
ATOM     22  O   UNL     1       0.608  -5.392   3.238  0.00  0.00    -0.251 OA
ATOM     23  N   UNL     1       1.716  -4.471   1.546  0.00  0.00    -0.298 N 
ATOM     24  H   UNL     1      -1.111  -3.689   2.854  0.00  0.00    +0.174 HD
ATOM     25  H   UNL     1       1.754  -3.787   0.861  0.00  0.00    +0.150 HD
BRANCH  23  26
ATOM     26  C   UNL     1       2.808  -5.438   1.679  0.00  0.00    +0.109 C 
BRANCH  26  27
ATOM     27  C   UNL     1       3.876  -5.149   0.622  0.00  0.00    +0.006 C 
ATOM     28  C   UNL     1       4.132  -6.223  -0.436  0.00  0.00    +0.005 C 
ATOM     29  C   UNL     1       5.160  -5.979   0.670  0.00  0.00    +0.005 C 
ENDBRANCH  26  27
ENDBRANCH  23  26
ENDBRANCH  18  20
ENDBRANCH   1  16
TORSDOF 5
