REMARK  Name = ZINC59891887
REMARK  11 active torsions:
REMARK  status: ('A' for Active; 'I' for Inactive)
REMARK    1  A    between atoms: C_1  and  C_2
REMARK    2  A    between atoms: C_2  and  C_3
REMARK    3  A    between atoms: C_2  and  C_4
REMARK    4  A    between atoms: C_4  and  C_5
REMARK    5  A    between atoms: C_5  and  C_28
REMARK    6  A    between atoms: N_6  and  N_7
REMARK    7  A    between atoms: C_10  and  S_13
REMARK    8  A    between atoms: S_13  and  C_14
REMARK    9  A    between atoms: C_14  and  C_15
REMARK   10  A    between atoms: N_17  and  C_18
REMARK   11  A    between atoms: C_19  and  C_26
REMARK                            x       y       z     vdW  Elec       q    Type
REMARK                         _______ _______ _______ _____ _____    ______ ____
ROOT
ATOM      1  S   UNL     1      -3.777  -5.466   5.295  0.00  0.00    -0.075 S 
ENDROOT
BRANCH   1   5
ATOM      2  N   UNL     1      -1.821  -4.162   0.720  0.00  0.00    -0.205 N 
ATOM      3  C   UNL     1      -2.276  -4.954   1.760  0.00  0.00    +0.232 A 
ATOM      4  N   UNL     1      -2.752  -4.523   2.909  0.00  0.00    -0.186 NA
ATOM      5  C   UNL     1      -3.095  -5.566   3.673  0.00  0.00    +0.211 A 
ATOM      6  N   UNL     1      -2.842  -6.674   3.019  0.00  0.00    -0.144 NA
ATOM      7  N   UNL     1      -2.315  -6.303   1.772  0.00  0.00    -0.245 N 
ATOM      8  H   UNL     1      -1.491  -4.574  -0.094  0.00  0.00    +0.177 HD
ATOM      9  H   UNL     1      -2.032  -6.898   1.060  0.00  0.00    +0.192 HD
BRANCH   2  11
ATOM     10  C   UNL     1      -1.416  -2.035  -0.119  0.00  0.00    +0.034 C 
ATOM     11  N   UNL     1      -1.837  -2.767   0.843  0.00  0.00    -0.189 NA
ATOM     12  C   UNL     1      -0.903  -2.674  -1.384  0.00  0.00    +0.062 C 
BRANCH  10  13
ATOM     13  C   UNL     1      -1.433  -0.534   0.013  0.00  0.00    +0.055 C 
BRANCH  13  15
ATOM     14  C   UNL     1      -0.019   1.526   0.010  0.00  0.00    +0.007 C 
ATOM     15  C   UNL     1       0.002  -0.004   0.002  0.00  0.00    -0.012 C 
ATOM     16  C   UNL     1       0.742  -0.511   1.242  0.00  0.00    +0.007 C 
ENDBRANCH  13  15
ENDBRANCH  10  13
ENDBRANCH   2  11
ENDBRANCH   1   5
BRANCH   1  17
ATOM     17  C   UNL     1      -4.016  -7.198   5.777  0.00  0.00    +0.173 C 
BRANCH  17  18
ATOM     18  C   UNL     1      -4.602  -7.257   7.164  0.00  0.00    +0.228 C 
ATOM     19  O   UNL     1      -4.835  -6.231   7.768  0.00  0.00    -0.275 OA
ATOM     20  N   UNL     1      -4.867  -8.450   7.734  0.00  0.00    -0.278 N 
ATOM     21  H   UNL     1      -4.680  -9.270   7.251  0.00  0.00    +0.155 HD
BRANCH  20  22
ATOM     22  C   UNL     1      -5.407  -8.504   9.012  0.00  0.00    +0.090 A 
ATOM     23  C   UNL     1      -5.734  -9.626   9.748  0.00  0.00    +0.084 A 
ATOM     24  C   UNL     1      -6.293  -9.412  11.082  0.00  0.00    -0.018 A 
ATOM     25  C   UNL     1      -6.419  -8.116  11.423  0.00  0.00    -0.004 A 
ATOM     26  S   UNL     1      -5.804  -7.223  10.018  0.00  0.00    -0.077 S 
ATOM     27  C   UNL     1      -7.003  -7.953  12.800  0.00  0.00    +0.043 C 
ATOM     28  C   UNL     1      -7.631  -9.327  13.123  0.00  0.00    +0.010 C 
ATOM     29  C   UNL     1      -6.791 -10.273  12.241  0.00  0.00    +0.037 C 
BRANCH  23  30
ATOM     30  C   UNL     1      -5.535 -10.944   9.227  0.00  0.00    +0.102 C 
ATOM     31  N   UNL     1      -5.376 -11.990   8.813  0.00  0.00    -0.191 NA
ENDBRANCH  23  30
ENDBRANCH  20  22
ENDBRANCH  17  18
ENDBRANCH   1  17
TORSDOF 8
