REMARK  Name = ZINC37661765
REMARK  5 active torsions:
REMARK  status: ('A' for Active; 'I' for Inactive)
REMARK    1  A    between atoms: C_5  and  C_8
REMARK    2  A    between atoms: C_8  and  C_9
REMARK    3  A    between atoms: C_9  and  S_10
REMARK    4  A    between atoms: S_10  and  N_13
REMARK    5  A    between atoms: C_17  and  C_20
REMARK                            x       y       z     vdW  Elec       q    Type
REMARK                         _______ _______ _______ _____ _____    ______ ____
ROOT
ATOM      1  S   UNL     1       1.555  -4.351   2.458  0.00  0.00    +0.032 S 
ATOM      2  O   UNL     1       0.236  -4.861   2.601  0.00  0.00    -0.158 OA
ATOM      3  O   UNL     1       2.407  -4.825   1.424  0.00  0.00    -0.158 OA
ENDROOT
BRANCH   1   4
ATOM      4  N   UNL     1       2.324  -4.770   3.864  0.00  0.00    -0.180 NA
ATOM      5  C   UNL     1       3.784  -4.934   3.898  0.00  0.00    +0.109 C 
ATOM      6  C   UNL     1       4.353  -4.055   5.016  0.00  0.00    +0.018 C 
ATOM      7  C   UNL     1       3.651  -4.395   6.333  0.00  0.00    +0.015 C 
ATOM      8  C   UNL     1       2.154  -4.104   6.205  0.00  0.00    +0.090 C 
ATOM      9  C   UNL     1       1.561  -4.978   5.102  0.00  0.00    +0.121 C 
BRANCH   8  10
ATOM     10  C   UNL     1       1.470  -4.408   7.513  0.00  0.00    +0.215 C 
ATOM     11  O   UNL     1       0.591  -5.242   7.558  0.00  0.00    -0.276 OA
ATOM     12  N   UNL     1       1.834  -3.751   8.633  0.00  0.00    -0.329 N 
ATOM     13  H   UNL     1       2.537  -3.084   8.596  0.00  0.00    +0.145 HD
ATOM     14  H   UNL     1       1.393  -3.946   9.474  0.00  0.00    +0.145 HD
ENDBRANCH   8  10
ENDBRANCH   1   4
BRANCH   1  15
ATOM     15  C   UNL     1       1.527  -2.538   2.464  0.00  0.00    +0.183 C 
BRANCH  15  16
ATOM     16  C   UNL     1       0.832  -2.034   1.198  0.00  0.00    +0.008 C 
BRANCH  16  21
ATOM     17  C   UNL     1      -0.019   1.527   0.010  0.00  0.00    -0.003 C 
ATOM     18  C   UNL     1       1.422   2.047  -0.001  0.00  0.00    -0.019 C 
ATOM     19  C   UNL     1       2.175   1.471   1.200  0.00  0.00    -0.082 C 
ATOM     20  N   UNL     1       2.183   0.005   1.120  0.00  0.00    +0.381 N 
ATOM     21  C   UNL     1       0.809  -0.504   1.202  0.00  0.00    -0.070 C 
ATOM     22  C   UNL     1       0.002  -0.004   0.002  0.00  0.00    -0.016 C 
ATOM     23  H   UNL     1       2.595  -0.281   0.245  0.00  0.00    -0.086 HD
ATOM     24  H   UNL     1       2.725  -0.369   1.883  0.00  0.00    -0.086 HD
ENDBRANCH  16  21
ENDBRANCH  15  16
ENDBRANCH   1  15
TORSDOF 5
