REMARK  Name = ZINC48725677
REMARK  4 active torsions:
REMARK  status: ('A' for Active; 'I' for Inactive)
REMARK    1  A    between atoms: C_4  and  C_7
REMARK    2  A    between atoms: C_7  and  C_9
REMARK    3  A    between atoms: C_7  and  S_15
REMARK    4  A    between atoms: S_15  and  C_16
REMARK                            x       y       z     vdW  Elec       q    Type
REMARK                         _______ _______ _______ _____ _____    ______ ____
ROOT
ATOM      1  C   UNL     1       3.711  -0.707  -0.038  0.00  0.00    +0.172 C 
ENDROOT
BRANCH   1   2
ATOM      2  C   UNL     1       3.740  -1.658  -1.207  0.00  0.00    +0.238 C 
ATOM      3  O   UNL     1       4.726  -1.726  -1.909  0.00  0.00    -0.274 OA
ATOM      4  N   UNL     1       2.669  -2.432  -1.472  0.00  0.00    -0.239 N 
ATOM      5  C   UNL     1       2.730  -3.353  -2.454  0.00  0.00    +0.303 C 
ATOM      6  O   UNL     1       3.750  -3.486  -3.100  0.00  0.00    -0.253 OA
ATOM      7  N   UNL     1       1.659  -4.128  -2.719  0.00  0.00    -0.313 N 
ATOM      8  H   UNL     1       1.854  -2.326  -0.956  0.00  0.00    +0.159 HD
ATOM      9  H   UNL     1       0.844  -4.022  -2.203  0.00  0.00    +0.146 HD
ATOM     10  H   UNL     1       1.703  -4.791  -3.425  0.00  0.00    +0.146 HD
ENDBRANCH   1   2
BRANCH   1  14
ATOM     11  C   UNL     1       0.388   1.946  -0.438  0.00  0.00    +0.000 A 
ATOM     12  C   UNL     1       0.176   0.615  -0.133  0.00  0.00    +0.000 A 
ATOM     13  C   UNL     1       1.252  -0.244  -0.003  0.00  0.00    +0.005 A 
ATOM     14  C   UNL     1       2.539   0.229  -0.180  0.00  0.00    -0.025 A 
ATOM     15  C   UNL     1       2.750   1.560  -0.486  0.00  0.00    +0.005 A 
ATOM     16  C   UNL     1       1.675   2.419  -0.614  0.00  0.00    +0.000 A 
ENDBRANCH   1  14
BRANCH   1  17
ATOM     17  S   UNL     1       3.550  -1.649   1.504  0.00  0.00    -0.050 S 
BRANCH  17  18
ATOM     18  C   UNL     1       5.047  -2.574   1.597  0.00  0.00    +0.259 A 
ATOM     19  N   UNL     1       6.012  -2.530   0.714  0.00  0.00    -0.203 NA
ATOM     20  C   UNL     1       7.006  -3.371   1.112  0.00  0.00    +0.112 A 
ATOM     21  C   UNL     1       8.246  -3.719   0.574  0.00  0.00    +0.051 A 
ATOM     22  C   UNL     1       9.047  -4.627   1.234  0.00  0.00    +0.043 A 
ATOM     23  C   UNL     1       8.626  -5.196   2.427  0.00  0.00    +0.024 A 
ATOM     24  C   UNL     1       7.401  -4.859   2.969  0.00  0.00    +0.050 A 
ATOM     25  C   UNL     1       6.585  -3.948   2.319  0.00  0.00    +0.156 A 
ATOM     26  O   UNL     1       5.367  -3.424   2.589  0.00  0.00    -0.431 OA
ATOM     27 CL   UNL     1      10.590  -5.061   0.567  0.00  0.00    -0.083 Cl
ENDBRANCH  17  18
ENDBRANCH   1  17
TORSDOF 4
