REMARK  Name = ZINC44934380
REMARK  5 active torsions:
REMARK  status: ('A' for Active; 'I' for Inactive)
REMARK    1  A    between atoms: C_1  and  C_2
REMARK    2  A    between atoms: C_2  and  N_9
REMARK    3  A    between atoms: N_9  and  S_10
REMARK    4  A    between atoms: S_10  and  C_13
REMARK    5  A    between atoms: N_19  and  N_20
REMARK                            x       y       z     vdW  Elec       q    Type
REMARK                         _______ _______ _______ _____ _____    ______ ____
ROOT
ATOM      1  S   UNL     1       0.358  -0.145  -2.675  0.00  0.00    +0.060 S 
ATOM      2  O   UNL     1       1.162  -0.893  -3.578  0.00  0.00    -0.153 OA
ATOM      3  O   UNL     1      -1.061  -0.207  -2.688  0.00  0.00    -0.153 OA
ENDROOT
BRANCH   1   4
ATOM      4  C   UNL     1       0.790   1.548  -2.899  0.00  0.00    +0.123 A 
ATOM      5  C   UNL     1      -0.158   2.545  -2.711  0.00  0.00    +0.033 A 
ATOM      6  C   UNL     1       0.222   3.861  -2.897  0.00  0.00    +0.046 A 
ATOM      7  C   UNL     1       1.535   4.141  -3.264  0.00  0.00    +0.132 A 
ATOM      8  N   UNL     1       2.410   3.162  -3.434  0.00  0.00    -0.237 NA
ATOM      9  C   UNL     1       2.077   1.897  -3.257  0.00  0.00    +0.141 A 
ATOM     10  N   UNL     1       1.931   5.460  -3.455  0.00  0.00    -0.268 N 
ATOM     11  H   UNL     1       1.293   6.180  -3.332  0.00  0.00    +0.167 HD
BRANCH  10  12
ATOM     12  N   UNL     1       3.218   5.741  -3.815  0.00  0.00    -0.255 NA
ATOM     13  H   UNL     1       3.356   6.736  -3.916  0.00  0.00    +0.140 HD
ATOM     14  H   UNL     1       3.872   5.351  -3.153  0.00  0.00    +0.140 HD
ENDBRANCH  10  12
ENDBRANCH   1   4
BRANCH   1  15
ATOM     15  N   UNL     1       0.837  -0.575  -1.149  0.00  0.00    -0.182 NA
ATOM     16  H   UNL     1       1.514  -1.259  -1.028  0.00  0.00    +0.149 HD
BRANCH  15  18
ATOM     17  C   UNL     1      -1.285   0.040  -0.130  0.00  0.00    +0.031 C 
ATOM     18  C   UNL     1       0.237   0.078   0.017  0.00  0.00    +0.058 C 
ATOM     19  C   UNL     1       0.628  -0.708   1.268  0.00  0.00    +0.047 C 
ATOM     20  C   UNL     1       1.955  -0.154   1.860  0.00  0.00    +0.168 C 
ATOM     21  S   UNL     1       1.676   1.653   1.603  0.00  0.00    -0.029 S 
ATOM     22  O   UNL     1       0.849   2.151   2.646  0.00  0.00    -0.174 OA
ATOM     23  O   UNL     1       2.919   2.284   1.330  0.00  0.00    -0.174 OA
ATOM     24  C   UNL     1       0.694   1.549   0.049  0.00  0.00    +0.189 C 
ENDBRANCH  15  18
ENDBRANCH   1  15
TORSDOF 4
