REMARK  Name = ZINC61887690
REMARK  8 active torsions:
REMARK  status: ('A' for Active; 'I' for Inactive)
REMARK    1  A    between atoms: C_1  and  C_2
REMARK    2  A    between atoms: C_2  and  C_3
REMARK    3  A    between atoms: C_2  and  C_4
REMARK    4  A    between atoms: C_2  and  C_5
REMARK    5  A    between atoms: C_5  and  C_6
REMARK    6  A    between atoms: N_8  and  C_9
REMARK    7  A    between atoms: C_14  and  C_16
REMARK    8  A    between atoms: N_17  and  O_18
REMARK                            x       y       z     vdW  Elec       q    Type
REMARK                         _______ _______ _______ _____ _____    ______ ____
ROOT
ATOM      1  C   UNL     1       4.338   0.351  -2.307  0.00  0.00    +0.083 C 
ATOM      2  C   UNL     1       5.181  -0.534  -1.373  0.00  0.00    +0.023 C 
ATOM      3  C   UNL     1       6.233  -1.233  -2.259  0.00  0.00    +0.003 C 
ATOM      4  C   UNL     1       5.605  -1.222  -3.675  0.00  0.00    +0.013 C 
ATOM      5  C   UNL     1       4.906   0.161  -3.728  0.00  0.00    +0.076 C 
ENDROOT
BRANCH   5   6
ATOM      6  C   UNL     1       3.793   0.151  -4.745  0.00  0.00    +0.136 C 
ATOM      7  N   UNL     1       3.291  -0.971  -5.142  0.00  0.00    -0.076 NA
ATOM      8  N   UNL     1       3.312   1.338  -5.250  0.00  0.00    -0.344 N 
ATOM      9  H   UNL     1       3.689   2.181  -4.951  0.00  0.00    +0.144 HD
ATOM     10  H   UNL     1       2.595   1.332  -5.904  0.00  0.00    +0.144 HD
BRANCH   7  11
ATOM     11  O   UNL     1       2.246  -0.980  -6.097  0.00  0.00    -0.408 OA
ATOM     12  H   UNL     1       1.935  -1.865  -6.332  0.00  0.00    +0.328 HD
ENDBRANCH   7  11
ENDBRANCH   5   6
BRANCH   1  15
ATOM     13  C   UNL     1       2.089   0.489  -1.380  0.00  0.00    +0.214 C 
ATOM     14  O   UNL     1       2.488   1.341  -0.615  0.00  0.00    -0.276 OA
ATOM     15  N   UNL     1       2.935  -0.071  -2.267  0.00  0.00    -0.312 N 
ATOM     16  H   UNL     1       2.616  -0.753  -2.878  0.00  0.00    +0.149 HD
BRANCH  13  17
ATOM     17  C   UNL     1       0.646   0.055  -1.338  0.00  0.00    +0.102 C 
BRANCH  17  19
ATOM     18  C   UNL     1      -0.018   2.335  -0.562  0.00  0.00    +0.011 C 
ATOM     19  C   UNL     1      -0.091   0.839  -0.251  0.00  0.00    -0.029 C 
ATOM     20  C   UNL     1       0.562   0.568   1.105  0.00  0.00    +0.011 C 
ATOM     21  C   UNL     1      -1.556   0.399  -0.209  0.00  0.00    +0.011 C 
ENDBRANCH  17  19
ENDBRANCH  13  17
ENDBRANCH   1  15
TORSDOF 5
