REMARK  Name = ZINC07252619
REMARK  11 active torsions:
REMARK  status: ('A' for Active; 'I' for Inactive)
REMARK    1  A    between atoms: C_1  and  C_2
REMARK    2  A    between atoms: C_4  and  C_25
REMARK    3  A    between atoms: C_5  and  N_9
REMARK    4  A    between atoms: C_6  and  C_8
REMARK    5  A    between atoms: C_10  and  C_12
REMARK    6  A    between atoms: C_12  and  C_14
REMARK    7  A    between atoms: C_12  and  O_15
REMARK    8  A    between atoms: O_15  and  C_16
REMARK    9  A    between atoms: C_16  and  C_18
REMARK   10  A    between atoms: C_19  and  C_24
REMARK   11  A    between atoms: C_22  and  N_23
REMARK                            x       y       z     vdW  Elec       q    Type
REMARK                         _______ _______ _______ _____ _____    ______ ____
ROOT
ATOM      1  C   UNL     1       1.736   5.432   1.353  0.00  0.00    +0.259 C 
ATOM      2  C   UNL     1       3.087   5.622   0.661  0.00  0.00    +0.062 C 
ENDROOT
BRANCH   1   4
ATOM      3  N   UNL     1       1.654   7.678   2.389  0.00  0.00    -0.282 N 
ATOM      4  C   UNL     1       1.654   6.340   2.554  0.00  0.00    +0.258 C 
ATOM      5  O   UNL     1       1.589   5.867   3.669  0.00  0.00    -0.271 OA
ATOM      6  H   UNL     1       1.759   8.057   1.502  0.00  0.00    +0.155 HD
BRANCH   3  11
ATOM      7  C   UNL     1       1.038  11.090   6.878  0.00  0.00    +0.044 C 
ATOM      8  C   UNL     1       1.202  10.184   5.686  0.00  0.00    -0.050 A 
ATOM      9  C   UNL     1       2.261  10.371   4.817  0.00  0.00    +0.008 A 
ATOM     10  C   UNL     1       2.414   9.542   3.723  0.00  0.00    -0.029 A 
ATOM     11  C   UNL     1       1.502   8.519   3.496  0.00  0.00    +0.039 A 
ATOM     12  C   UNL     1       0.436   8.337   4.367  0.00  0.00    -0.029 A 
ATOM     13  C   UNL     1       0.292   9.166   5.463  0.00  0.00    +0.008 A 
ATOM     14  C   UNL     1      -0.559   7.232   4.122  0.00  0.00    +0.045 C 
ATOM     15  C   UNL     1       3.568   9.747   2.776  0.00  0.00    +0.045 C 
ENDBRANCH   3  11
ENDBRANCH   1   4
BRANCH   1  16
ATOM     16  O   UNL     1       1.601   4.051   1.781  0.00  0.00    -0.449 OA
BRANCH  16  17
ATOM     17  C   UNL     1       1.042   3.191   0.905  0.00  0.00    +0.347 C 
ATOM     18  O   UNL     1       0.677   3.586  -0.186  0.00  0.00    -0.245 OA
BRANCH  17  19
ATOM     19  C   UNL     1       0.874   1.782   1.268  0.00  0.00    +0.142 A 
ATOM     20  C   UNL     1      -0.239   1.158   1.906  0.00  0.00    +0.097 A 
ATOM     21  N   UNL     1       0.067  -0.098   2.027  0.00  0.00    -0.081 NA
ATOM     22  O   UNL     1       1.157  -0.361   1.579  0.00  0.00    -0.339 OA
ATOM     23  C   UNL     1       1.765   0.721   1.072  0.00  0.00    +0.230 A 
ATOM     24  C   UNL     1      -1.513   1.825   2.356  0.00  0.00    +0.070 C 
BRANCH  23  25
ATOM     25  N   UNL     1       3.004   0.777   0.489  0.00  0.00    -0.327 N 
ATOM     26  H   UNL     1       3.540  -0.028   0.410  0.00  0.00    +0.145 HD
ATOM     27  H   UNL     1       3.344   1.621   0.152  0.00  0.00    +0.145 HD
ENDBRANCH  23  25
ENDBRANCH  17  19
ENDBRANCH  16  17
ENDBRANCH   1  16
TORSDOF 6
