REMARK  Name = ZINC41176195
REMARK  6 active torsions:
REMARK  status: ('A' for Active; 'I' for Inactive)
REMARK    1  A    between atoms: C_1  and  C_2
REMARK    2  A    between atoms: C_5  and  C_8
REMARK    3  A    between atoms: N_10  and  C_11
REMARK    4  A    between atoms: C_11  and  C_12
REMARK    5  A    between atoms: N_15  and  C_19
REMARK    6  A    between atoms: C_23  and  C_25
REMARK                            x       y       z     vdW  Elec       q    Type
REMARK                         _______ _______ _______ _____ _____    ______ ____
ROOT
ATOM      1  C   UNL     1       0.107  -6.914   2.574  0.00  0.00    +0.213 C 
ATOM      2  C   UNL     1       0.179  -8.459   2.604  0.00  0.00    +0.163 C 
ATOM      3  N   UNL     1      -0.696  -8.790   3.747  0.00  0.00    -0.234 N 
ATOM      4  C   UNL     1      -1.412  -7.690   4.047  0.00  0.00    +0.408 C 
ATOM      5  O   UNL     1      -2.207  -7.635   4.964  0.00  0.00    -0.226 OA
ATOM      6  O   UNL     1      -1.153  -6.659   3.225  0.00  0.00    -0.444 OA
ENDROOT
BRANCH   3   7
ATOM      7  C   UNL     1      -0.768 -10.026   4.400  0.00  0.00    +0.040 A 
ATOM      8  C   UNL     1       0.036 -11.080   3.986  0.00  0.00    +0.023 A 
ATOM      9  C   UNL     1      -0.037 -12.297   4.633  0.00  0.00    +0.002 A 
ATOM     10  C   UNL     1      -0.911 -12.468   5.692  0.00  0.00    +0.003 A 
ATOM     11  C   UNL     1      -1.714 -11.421   6.105  0.00  0.00    -0.049 A 
ATOM     12  C   UNL     1      -1.641 -10.199   5.466  0.00  0.00    +0.027 A 
ATOM     13  C   UNL     1      -2.665 -11.612   7.259  0.00  0.00    +0.044 C 
ENDBRANCH   3   7
BRANCH   1  14
ATOM     14  C   UNL     1       0.093  -6.396   1.134  0.00  0.00    +0.150 C 
BRANCH  14  17
ATOM     15  C   UNL     1       0.059  -4.251  -0.021  0.00  0.00    +0.244 C 
ATOM     16  O   UNL     1       0.062  -4.853  -1.077  0.00  0.00    -0.270 OA
ATOM     17  N   UNL     1       0.074  -4.931   1.142  0.00  0.00    -0.308 N 
ATOM     18  H   UNL     1       0.072  -4.451   1.985  0.00  0.00    +0.149 HD
BRANCH  15  23
ATOM     19  C   UNL     1      -0.018   1.503   0.010  0.00  0.00    +0.044 C 
ATOM     20  C   UNL     1       0.002  -0.004   0.002  0.00  0.00    -0.050 A 
ATOM     21  C   UNL     1       0.006  -0.686  -1.202  0.00  0.00    +0.004 A 
ATOM     22  C   UNL     1       0.024  -2.066  -1.216  0.00  0.00    +0.013 A 
ATOM     23  C   UNL     1       0.040  -2.773  -0.013  0.00  0.00    +0.037 A 
ATOM     24  C   UNL     1       0.036  -2.079   1.198  0.00  0.00    +0.013 A 
ATOM     25  C   UNL     1       0.023  -0.699   1.198  0.00  0.00    +0.004 A 
ENDBRANCH  15  23
ENDBRANCH  14  17
ENDBRANCH   1  14
TORSDOF 4
