REMARK  Name = ZINC03085613
REMARK  9 active torsions:
REMARK  status: ('A' for Active; 'I' for Inactive)
REMARK    1  A    between atoms: C_1  and  O_2
REMARK    2  A    between atoms: O_2  and  C_3
REMARK    3  A    between atoms: C_5  and  C_11
REMARK    4  A    between atoms: C_8  and  O_9
REMARK    5  A    between atoms: N_12  and  N_13
REMARK    6  A    between atoms: C_14  and  C_16
REMARK    7  A    between atoms: C_16  and  O_17
REMARK    8  A    between atoms: O_17  and  C_18
REMARK    9  A    between atoms: C_23  and  N_24
REMARK                            x       y       z     vdW  Elec       q    Type
REMARK                         _______ _______ _______ _____ _____    ______ ____
ROOT
ATOM      1  N   UNL     1      -2.738   5.367   0.044  0.00  0.00    -0.204 N 
ATOM      2  C   UNL     1      -2.545   4.034   0.036  0.00  0.00    +0.270 C 
ATOM      3  O   UNL     1      -3.498   3.283   0.036  0.00  0.00    -0.270 OA
ATOM      4  H   UNL     1      -1.977   5.968   0.044  0.00  0.00    +0.177 HD
ENDROOT
BRANCH   1   6
ATOM      5  C   UNL     1      -4.226   7.171   0.061  0.00  0.00    +0.138 C 
ATOM      6  N   UNL     1      -4.040   5.887   0.053  0.00  0.00    -0.188 NA
BRANCH   5   9
ATOM      7  C   UNL     1      -7.084   9.607   0.089  0.00  0.00    +0.163 A 
ATOM      8  C   UNL     1      -5.798   9.100   0.085  0.00  0.00    +0.059 A 
ATOM      9  C   UNL     1      -5.595   7.717   0.070  0.00  0.00    -0.001 A 
ATOM     10  C   UNL     1      -6.694   6.854   0.071  0.00  0.00    +0.027 A 
ATOM     11  C   UNL     1      -7.974   7.367   0.080  0.00  0.00    +0.059 A 
ATOM     12  C   UNL     1      -8.174   8.740   0.089  0.00  0.00    +0.172 A 
ATOM     13  I   UNL     1      -9.620   6.071   0.081  0.00  0.00    -0.040 I 
BRANCH   7  15
ATOM     14  C   UNL     1      -6.120  11.781   0.096  0.00  0.00    +0.277 C 
ATOM     15  O   UNL     1      -7.284  10.952   0.097  0.00  0.00    -0.491 OA
ENDBRANCH   7  15
BRANCH  12  16
ATOM     16  O   UNL     1      -9.438   9.241   0.098  0.00  0.00    -0.503 OA
ATOM     17  H   UNL     1      -9.800   9.381   0.984  0.00  0.00    +0.292 HD
ENDBRANCH  12  16
ENDBRANCH   5   9
ENDBRANCH   1   6
BRANCH   2  18
ATOM     18  C   UNL     1      -1.145   3.475   0.026  0.00  0.00    +0.326 C 
BRANCH  18  19
ATOM     19  O   UNL     1      -1.202   2.047   0.019  0.00  0.00    -0.480 OA
BRANCH  19  20
ATOM     20  C   UNL     1      -0.017   1.383   0.010  0.00  0.00    +0.151 A 
ATOM     21  C   UNL     1       1.177   2.091   0.002  0.00  0.00    +0.048 A 
ATOM     22  C   UNL     1       2.380   1.413  -0.014  0.00  0.00    +0.004 A 
ATOM     23  C   UNL     1       2.396   0.030  -0.021  0.00  0.00    +0.002 A 
ATOM     24  C   UNL     1       1.208  -0.677  -0.013  0.00  0.00    +0.036 A 
ATOM     25  C   UNL     1       0.002  -0.004   0.002  0.00  0.00    +0.168 A 
BRANCH  25  26
ATOM     26  N   UNL     1      -1.269  -0.762   0.010  0.00  0.00    +0.060 N 
ATOM     27  O   UNL     1      -1.252  -1.980   0.003  0.00  0.00    -0.126 OA
ATOM     28  O   UNL     1      -2.332  -0.168   0.022  0.00  0.00    -0.126 OA
ENDBRANCH  25  26
ENDBRANCH  19  20
ENDBRANCH  18  19
ENDBRANCH   2  18
TORSDOF 8
