REMARK  Name = ZINC41092748
REMARK  3 active torsions:
REMARK  status: ('A' for Active; 'I' for Inactive)
REMARK    1  A    between atoms: C_3  and  N_13
REMARK    2  A    between atoms: C_6  and  C_7
REMARK    3  A    between atoms: N_13  and  C_14
REMARK                            x       y       z     vdW  Elec       q    Type
REMARK                         _______ _______ _______ _____ _____    ______ ____
ROOT
ATOM      1  C   UNL     1      -0.007   1.401   0.278  0.00  0.00    +0.012 A 
ATOM      2  C   UNL     1       1.173   2.100   0.137  0.00  0.00    +0.023 A 
ATOM      3  C   UNL     1       2.386   1.421   0.121  0.00  0.00    +0.027 A 
ATOM      4  C   UNL     1       2.412   0.037   0.248  0.00  0.00    +0.023 A 
ATOM      5  C   UNL     1       1.234  -0.665   0.389  0.00  0.00    +0.012 A 
ATOM      6  C   UNL     1       0.017   0.013   0.405  0.00  0.00    +0.002 A 
ENDROOT
BRANCH   6   7
ATOM      7  C   UNL     1      -1.252  -0.741   0.557  0.00  0.00    +0.092 A 
ATOM      8  C   UNL     1      -1.374  -2.137   0.700  0.00  0.00    +0.049 A 
ATOM      9  C   UNL     1      -2.689  -2.428   0.811  0.00  0.00    +0.105 A 
ATOM     10  N   UNL     1      -3.380  -1.270   0.742  0.00  0.00    -0.284 N 
ATOM     11  H   UNL     1      -4.344  -1.178   0.794  0.00  0.00    +0.188 HD
ATOM     12  N   UNL     1      -2.462  -0.223   0.588  0.00  0.00    -0.174 NA
ENDBRANCH   6   7
BRANCH   3  13
ATOM     13  N   UNL     1       3.580   2.131  -0.022  0.00  0.00    -0.341 N 
ATOM     14  H   UNL     1       3.563   3.097  -0.111  0.00  0.00    +0.146 HD
BRANCH  13  15
ATOM     15  C   UNL     1       4.859   1.417  -0.039  0.00  0.00    +0.074 C 
ATOM     16  C   UNL     1       5.962   2.300  -0.666  0.00  0.00    +0.026 C 
ATOM     17  C   UNL     1       7.015   2.482   0.470  0.00  0.00    -0.009 C 
ATOM     18  C   UNL     1       6.320   3.424   1.500  0.00  0.00    +0.004 C 
ATOM     19  C   UNL     1       5.208   2.558   2.134  0.00  0.00    +0.005 C 
ATOM     20  C   UNL     1       5.349   1.145   1.417  0.00  0.00    +0.009 C 
ATOM     21  C   UNL     1       6.903   1.093   1.194  0.00  0.00    +0.009 C 
ENDBRANCH  13  15
ENDBRANCH   3  13
TORSDOF 3
