REMARK  Name = ZINC04221712
REMARK  13 active torsions:
REMARK  status: ('A' for Active; 'I' for Inactive)
REMARK    1  A    between atoms: C_1  and  C_2
REMARK    2  A    between atoms: C_4  and  C_8
REMARK    3  A    between atoms: N_5  and  C_7
REMARK    4  A    between atoms: C_13  and  N_30
REMARK    5  A    between atoms: C_16  and  C_18
REMARK    6  A    between atoms: N_20  and  C_21
REMARK    7  A    between atoms: C_21  and  C_23
REMARK    8  A    between atoms: C_21  and  C_27
REMARK    9  A    between atoms: C_23  and  C_24
REMARK   10  A    between atoms: C_24  and  C_25
REMARK   11  A    between atoms: C_24  and  C_26
REMARK   12  A    between atoms: N_30  and  S_31
REMARK   13  A    between atoms: S_31  and  C_34
REMARK                            x       y       z     vdW  Elec       q    Type
REMARK                         _______ _______ _______ _____ _____    ______ ____
ROOT
ATOM      1  C   UNL     1      -2.684   1.667  -1.856  0.00  0.00    +0.265 C 
ATOM      2  O   UNL     1      -2.155   0.850  -2.587  0.00  0.00    -0.268 OA
ATOM      3  N   UNL     1      -2.422   2.979  -2.012  0.00  0.00    -0.285 N 
ATOM      4  C   UNL     1      -1.204   3.423  -2.704  0.00  0.00    +0.110 C 
ATOM      5  C   UNL     1      -1.600   4.386  -3.828  0.00  0.00    +0.039 C 
ATOM      6  C   UNL     1      -2.442   5.524  -3.247  0.00  0.00    +0.080 C 
ATOM      7  C   UNL     1      -3.720   4.951  -2.630  0.00  0.00    +0.052 C 
ATOM      8  C   UNL     1      -3.352   3.994  -1.498  0.00  0.00    +0.164 C 
ENDROOT
BRANCH   1  12
ATOM      9  C   UNL     1      -6.674  -0.198   0.659  0.00  0.00    +0.067 C 
ATOM     10  C   UNL     1      -5.339   0.409   0.310  0.00  0.00    +0.061 A 
ATOM     11  C   UNL     1      -4.866   0.670  -0.978  0.00  0.00    +0.057 A 
ATOM     12  C   UNL     1      -3.608   1.221  -0.802  0.00  0.00    +0.123 A 
ATOM     13  N   UNL     1      -3.395   1.262   0.547  0.00  0.00    -0.262 N 
ATOM     14  N   UNL     1      -4.418   0.784   1.160  0.00  0.00    -0.176 NA
ATOM     15  C   UNL     1      -2.185   1.773   1.195  0.00  0.00    +0.173 C 
ENDBRANCH   1  12
BRANCH   8  16
ATOM     16  C   UNL     1      -4.598   3.322  -0.981  0.00  0.00    +0.234 C 
ATOM     17  O   UNL     1      -5.187   2.521  -1.675  0.00  0.00    -0.274 OA
ATOM     18  N   UNL     1      -5.058   3.612   0.252  0.00  0.00    -0.302 N 
ATOM     19  H   UNL     1      -4.579   4.242   0.812  0.00  0.00    +0.150 HD
BRANCH  18  20
ATOM     20  C   UNL     1      -6.281   2.974   0.746  0.00  0.00    +0.159 C 
BRANCH  20  21
ATOM     21  C   UNL     1      -6.031   2.403   2.118  0.00  0.00    +0.231 C 
ATOM     22  O   UNL     1      -4.938   2.518   2.633  0.00  0.00    -0.274 OA
ATOM     23  N   UNL     1      -7.021   1.766   2.774  0.00  0.00    -0.328 N 
ATOM     24  H   UNL     1      -7.894   1.674   2.362  0.00  0.00    +0.145 HD
ATOM     25  H   UNL     1      -6.860   1.398   3.657  0.00  0.00    +0.145 HD
ENDBRANCH  20  21
BRANCH  20  26
ATOM     26  C   UNL     1      -7.402   4.013   0.823  0.00  0.00    +0.034 C 
BRANCH  26  27
ATOM     27  C   UNL     1      -7.539   4.716  -0.529  0.00  0.00    -0.015 C 
ATOM     28  C   UNL     1      -7.817   3.678  -1.618  0.00  0.00    +0.007 C 
ATOM     29  C   UNL     1      -8.696   5.715  -0.469  0.00  0.00    +0.007 C 
ENDBRANCH  26  27
ENDBRANCH  20  26
ENDBRANCH  18  20
ENDBRANCH   8  16
BRANCH   6  30
ATOM     30  N   UNL     1      -1.673   6.223  -2.215  0.00  0.00    -0.186 NA
ATOM     31  H   UNL     1      -1.666   5.887  -1.305  0.00  0.00    +0.148 HD
BRANCH  30  32
ATOM     32  S   UNL     1      -0.815   7.585  -2.602  0.00  0.00    +0.065 S 
ATOM     33  O   UNL     1      -0.208   8.038  -1.399  0.00  0.00    -0.153 OA
ATOM     34  O   UNL     1      -0.061   7.274  -3.765  0.00  0.00    -0.153 OA
BRANCH  32  35
ATOM     35  C   UNL     1      -1.981   8.819  -3.072  0.00  0.00    +0.142 A 
ATOM     36  C   UNL     1      -2.612   9.736  -2.299  0.00  0.00    +0.036 A 
ATOM     37  C   UNL     1      -3.495  10.619  -2.892  0.00  0.00    +0.010 A 
ATOM     38  C   UNL     1      -3.712  10.535  -4.228  0.00  0.00    +0.047 A 
ATOM     39  S   UNL     1      -2.644   9.181  -4.690  0.00  0.00    -0.077 S 
ENDBRANCH  32  35
ENDBRANCH  30  32
ENDBRANCH   6  30
TORSDOF 9
