REMARK  Name = ZINC29985242
REMARK  7 active torsions:
REMARK  status: ('A' for Active; 'I' for Inactive)
REMARK    1  A    between atoms: C_1  and  C_2
REMARK    2  A    between atoms: C_8  and  N_10
REMARK    3  A    between atoms: C_14  and  C_16
REMARK    4  A    between atoms: C_16  and  N_17
REMARK    5  A    between atoms: N_17  and  C_18
REMARK    6  A    between atoms: C_20  and  N_25
REMARK    7  A    between atoms: C_26  and  C_28
REMARK                            x       y       z     vdW  Elec       q    Type
REMARK                         _______ _______ _______ _____ _____    ______ ____
ROOT
ATOM      1  N   UNL     1       0.041  -0.026  -2.460  0.00  0.00    -0.296 N 
ATOM      2  C   UNL     1       0.133  -0.697  -3.625  0.00  0.00    +0.306 C 
ATOM      3  O   UNL     1       0.805  -1.707  -3.694  0.00  0.00    -0.252 OA
ATOM      4  N   UNL     1      -0.522  -0.248  -4.714  0.00  0.00    -0.239 N 
ATOM      5  C   UNL     1      -0.430  -0.919  -5.880  0.00  0.00    +0.237 C 
ATOM      6  O   UNL     1       0.240  -1.926  -5.948  0.00  0.00    -0.274 OA
ATOM      7  H   UNL     1      -0.567   0.888  -2.398  0.00  0.00    +0.151 HD
ATOM      8  H   UNL     1      -1.130   0.666  -4.652  0.00  0.00    +0.159 HD
ENDROOT
BRANCH   1  15
ATOM      9  C   UNL     1      -1.393  -0.537   0.004  0.00  0.00    +0.009 C 
ATOM     10  C   UNL     1       0.045  -0.016  -0.014  0.00  0.00    +0.006 C 
ATOM     11  C   UNL     1       0.034   1.514  -0.007  0.00  0.00    +0.005 C 
ATOM     12  C   UNL     1       1.472   2.035  -0.025  0.00  0.00    +0.000 C 
ATOM     13  C   UNL     1       2.179   1.536  -1.287  0.00  0.00    +0.002 C 
ATOM     14  C   UNL     1       2.191   0.006  -1.294  0.00  0.00    +0.022 C 
ATOM     15  C   UNL     1       0.752  -0.515  -1.276  0.00  0.00    +0.077 C 
ENDBRANCH   1  15
BRANCH   5  16
ATOM     16  C   UNL     1      -1.162  -0.416  -7.098  0.00  0.00    +0.198 C 
BRANCH  16  17
ATOM     17  N   UNL     1      -0.904  -1.313  -8.227  0.00  0.00    -0.333 N 
ATOM     18  H   UNL     1      -0.257  -2.193  -8.094  0.00  0.00    +0.147 HD
BRANCH  17  19
ATOM     19  C   UNL     1      -1.480  -1.051  -9.474  0.00  0.00    +0.065 A 
ATOM     20  C   UNL     1      -2.296   0.059  -9.643  0.00  0.00    +0.049 A 
ATOM     21  C   UNL     1      -2.865   0.316 -10.882  0.00  0.00    +0.035 A 
ATOM     22  C   UNL     1      -2.617  -0.536 -11.950  0.00  0.00    +0.026 A 
ATOM     23  C   UNL     1      -1.804  -1.641 -11.780  0.00  0.00    +0.042 A 
ATOM     24  C   UNL     1      -1.230  -1.898 -10.548  0.00  0.00    +0.144 A 
ATOM     25  F   UNL     1      -0.432  -2.976 -10.387  0.00  0.00    -0.204 F 
BRANCH  21  26
ATOM     26  N   UNL     1      -3.688   1.435 -11.055  0.00  0.00    -0.286 N 
ATOM     27  C   UNL     1      -3.677   2.105 -12.225  0.00  0.00    +0.214 C 
ATOM     28  O   UNL     1      -3.018   1.691 -13.155  0.00  0.00    -0.276 OA
ATOM     29  C   UNL     1      -4.484   3.369 -12.377  0.00  0.00    +0.109 C 
ATOM     30  H   UNL     1      -4.344   1.768 -10.237  0.00  0.00    +0.155 HD
ENDBRANCH  21  26
ENDBRANCH  17  19
ENDBRANCH  16  17
ENDBRANCH   5  16
TORSDOF 5
