REMARK  Name = ZINC26477098
REMARK  12 active torsions:
REMARK  status: ('A' for Active; 'I' for Inactive)
REMARK    1  A    between atoms: C_1  and  C_2
REMARK    2  A    between atoms: C_2  and  O_3
REMARK    3  A    between atoms: O_3  and  C_4
REMARK    4  A    between atoms: C_6  and  C_28
REMARK    5  A    between atoms: C_8  and  C_24
REMARK    6  A    between atoms: C_9  and  C_23
REMARK    7  A    between atoms: C_11  and  C_12
REMARK    8  A    between atoms: C_12  and  O_13
REMARK    9  A    between atoms: O_13  and  C_14
REMARK   10  A    between atoms: C_14  and  C_15
REMARK   11  A    between atoms: C_24  and  O_26
REMARK   12  A    between atoms: O_26  and  C_27
REMARK                            x       y       z     vdW  Elec       q    Type
REMARK                         _______ _______ _______ _____ _____    ______ ____
ROOT
ATOM      1  C   UNL     1       0.757  -1.811  -1.339  0.00  0.00    +0.338 C 
ATOM      2  C   UNL     1       1.403  -2.318  -2.446  0.00  0.00    +0.072 C 
ATOM      3  C   UNL     1       1.323  -3.791  -2.805  0.00  0.00    +0.098 C 
ATOM      4  C   UNL     1       2.082  -4.210  -4.051  0.00  0.00    +0.069 C 
ATOM      5  C   UNL     1       2.761  -3.242  -4.733  0.00  0.00    +0.049 C 
ATOM      6  N   UNL     1       2.775  -1.976  -4.344  0.00  0.00    -0.253 NA
ATOM      7  C   UNL     1       2.153  -1.498  -3.291  0.00  0.00    +0.078 C 
ATOM      8  C   UNL     1       3.525  -3.628  -5.974  0.00  0.00    +0.066 C 
ATOM      9  O   UNL     1       0.040  -2.630  -0.544  0.00  0.00    -0.245 OA
ENDROOT
BRANCH   3  10
ATOM     10  C   UNL     1       1.857  -4.588  -1.643  0.00  0.00    -0.015 A 
ATOM     11  C   UNL     1       3.156  -4.395  -1.210  0.00  0.00    +0.006 A 
ATOM     12  C   UNL     1       3.646  -5.125  -0.144  0.00  0.00    +0.002 A 
ATOM     13  C   UNL     1       2.838  -6.051   0.490  0.00  0.00    +0.021 A 
ATOM     14  C   UNL     1       1.539  -6.245   0.059  0.00  0.00    +0.060 A 
ATOM     15  C   UNL     1       1.045  -5.509  -1.005  0.00  0.00    +0.063 A 
ATOM     16 CL   UNL     1      -0.588  -5.746  -1.542  0.00  0.00    -0.082 Cl
ATOM     17 CL   UNL     1       0.524  -7.407   0.856  0.00  0.00    -0.082 Cl
ENDBRANCH   3  10
BRANCH   4  18
ATOM     18  C   UNL     1       2.086  -5.547  -4.486  0.00  0.00    +0.338 C 
ATOM     19  O   UNL     1       2.603  -5.840  -5.549  0.00  0.00    -0.245 OA
BRANCH  18  20
ATOM     20  O   UNL     1       1.515  -6.507  -3.726  0.00  0.00    -0.465 OA
ATOM     21  C   UNL     1       1.555  -7.843  -4.230  0.00  0.00    +0.280 C 
ENDBRANCH  18  20
ENDBRANCH   4  18
BRANCH   1  22
ATOM     22  O   UNL     1       0.843  -0.498  -1.052  0.00  0.00    -0.462 OA
BRANCH  22  24
ATOM     23  C   UNL     1       0.361   1.465   0.274  0.00  0.00    +0.048 C 
ATOM     24  C   UNL     1       0.149  -0.042   0.111  0.00  0.00    +0.229 C 
ENDBRANCH  22  24
ENDBRANCH   1  22
BRANCH   7  25
ATOM     25  C   UNL     1       2.258  -0.026  -2.982  0.00  0.00    +0.216 C 
BRANCH  25  26
ATOM     26  O   UNL     1       3.069   0.612  -3.971  0.00  0.00    -0.368 OA
BRANCH  26  27
ATOM     27  C   UNL     1       3.233   2.017  -3.770  0.00  0.00    +0.215 C 
BRANCH  27  28
ATOM     28  C   UNL     1       4.100   2.583  -4.865  0.00  0.00    +0.076 A 
ATOM     29  C   UNL     1       3.581   3.485  -5.748  0.00  0.00    +0.095 A 
ATOM     30  C   UNL     1       4.410   3.998  -6.761  0.00  0.00    +0.253 A 
ATOM     31  N   UNL     1       5.692   3.581  -6.825  0.00  0.00    -0.295 N 
ATOM     32  C   UNL     1       6.154   2.679  -5.917  0.00  0.00    +0.193 A 
ATOM     33  N   UNL     1       5.373   2.206  -4.966  0.00  0.00    -0.219 NA
ATOM     34  N   UNL     1       7.456   2.260  -5.988  0.00  0.00    -0.329 N 
ATOM     35  O   UNL     1       3.978   4.806  -7.567  0.00  0.00    -0.268 OA
ATOM     36  H   UNL     1       8.039   2.606  -6.682  0.00  0.00    +0.145 HD
ATOM     37  H   UNL     1       7.794   1.618  -5.345  0.00  0.00    +0.145 HD
ATOM     38  H   UNL     1       6.281   3.922  -7.515  0.00  0.00    +0.172 HD
ENDBRANCH  27  28
ENDBRANCH  26  27
ENDBRANCH  25  26
ENDBRANCH   7  25
TORSDOF 9
