REMARK  Name = ZINC50361616
REMARK  7 active torsions:
REMARK  status: ('A' for Active; 'I' for Inactive)
REMARK    1  A    between atoms: C_1  and  C_2
REMARK    2  A    between atoms: C_2  and  N_3
REMARK    3  A    between atoms: N_3  and  C_4
REMARK    4  A    between atoms: N_3  and  C_10
REMARK    5  A    between atoms: C_10  and  C_12
REMARK    6  A    between atoms: C_10  and  C_14
REMARK    7  A    between atoms: C_12  and  N_13
REMARK                            x       y       z     vdW  Elec       q    Type
REMARK                         _______ _______ _______ _____ _____    ______ ____
ROOT
ATOM      1  C   UNL     1       0.026  -0.739  -2.484  0.00  0.00    +0.122 C 
ENDROOT
BRANCH   1   2
ATOM      2  C   UNL     1      -1.103  -1.714  -2.275  0.00  0.00    +0.126 A 
ATOM      3  C   UNL     1      -1.429  -2.728  -3.097  0.00  0.00    +0.063 A 
ATOM      4  C   UNL     1      -2.542  -3.382  -2.520  0.00  0.00    +0.070 A 
ATOM      5  C   UNL     1      -2.831  -2.728  -1.379  0.00  0.00    +0.184 A 
ATOM      6  O   UNL     1      -1.952  -1.722  -1.234  0.00  0.00    -0.450 OA
ATOM      7 BR   UNL     1      -4.229  -3.157  -0.181  0.00  0.00    -0.007 Br
ATOM      8 BR   UNL     1      -3.452  -4.886  -3.218  0.00  0.00    -0.046 Br
ENDBRANCH   1   2
BRANCH   1   9
ATOM      9  N   UNL     1       0.688  -0.476  -1.203  0.00  0.00    -0.322 N 
BRANCH   9  10
ATOM     10  C   UNL     1       2.049  -0.751  -1.051  0.00  0.00    +0.030 A 
ATOM     11  C   UNL     1       2.703  -0.399   0.122  0.00  0.00    +0.023 A 
ATOM     12  C   UNL     1       4.049  -0.672   0.270  0.00  0.00    +0.002 A 
ATOM     13  C   UNL     1       4.745  -1.296  -0.750  0.00  0.00    +0.000 A 
ATOM     14  C   UNL     1       4.096  -1.648  -1.919  0.00  0.00    +0.002 A 
ATOM     15  C   UNL     1       2.750  -1.383  -2.071  0.00  0.00    +0.023 A 
ENDBRANCH   9  10
BRANCH   9  17
ATOM     16  C   UNL     1      -0.026   1.602  -0.130  0.00  0.00    +0.024 C 
ATOM     17  C   UNL     1      -0.078   0.074  -0.082  0.00  0.00    +0.102 C 
ENDBRANCH   9  17
ENDBRANCH   1   9
BRANCH   1  18
ATOM     18  C   UNL     1      -0.528   0.571  -3.049  0.00  0.00    -0.056 C 
BRANCH  18  19
ATOM     19  N   UNL     1       0.553   1.561  -3.140  0.00  0.00    +0.380 N 
ATOM     20  H   UNL     1       1.278   1.212  -3.749  0.00  0.00    -0.090 HD
ATOM     21  H   UNL     1       0.187   2.425  -3.513  0.00  0.00    -0.090 HD
ATOM     22  H   UNL     1       0.935   1.727  -2.221  0.00  0.00    -0.090 HD
ENDBRANCH  18  19
ENDBRANCH   1  18
TORSDOF 6
