REMARK  Name = ZINC20224943
REMARK  9 active torsions:
REMARK  status: ('A' for Active; 'I' for Inactive)
REMARK    1  A    between atoms: C_1  and  C_2
REMARK    2  A    between atoms: C_3  and  S_9
REMARK    3  A    between atoms: C_4  and  C_8
REMARK    4  A    between atoms: S_9  and  N_12
REMARK    5  A    between atoms: N_12  and  C_13
REMARK    6  A    between atoms: N_12  and  C_14
REMARK    7  A    between atoms: C_17  and  C_20
REMARK    8  A    between atoms: C_20  and  C_21
REMARK    9  A    between atoms: C_21  and  N_22
REMARK                            x       y       z     vdW  Elec       q    Type
REMARK                         _______ _______ _______ _____ _____    ______ ____
ROOT
ATOM      1  N   UNL     1       0.057   1.428   0.108  0.00  0.00    -0.206 N 
ATOM      2  C   UNL     1      -0.769   2.047  -0.931  0.00  0.00    +0.157 C 
ENDROOT
BRANCH   1   3
ATOM      3  C   UNL     1      -0.272   0.164   0.602  0.00  0.00    +0.051 A 
ATOM      4  C   UNL     1       0.713  -0.807   0.740  0.00  0.00    +0.025 A 
ATOM      5  C   UNL     1       0.385  -2.055   1.233  0.00  0.00    +0.005 A 
ATOM      6  C   UNL     1      -0.923  -2.342   1.578  0.00  0.00    -0.049 A 
ATOM      7  C   UNL     1      -1.906  -1.380   1.437  0.00  0.00    +0.005 A 
ATOM      8  C   UNL     1      -1.584  -0.128   0.950  0.00  0.00    +0.025 A 
BRANCH   6   9
ATOM      9  C   UNL     1      -1.278  -3.707   2.110  0.00  0.00    +0.015 C 
BRANCH   9  10
ATOM     10  C   UNL     1      -1.653  -4.626   0.946  0.00  0.00    -0.082 C 
BRANCH  10  11
ATOM     11  N   UNL     1      -1.999  -5.956   1.465  0.00  0.00    +0.378 N 
ATOM     12  H   UNL     1      -2.268  -6.618   0.629  0.00  0.00    -0.090 HD
ATOM     13  H   UNL     1      -2.852  -5.871   2.155  0.00  0.00    -0.090 HD
ATOM     14  H   UNL     1      -1.135  -6.377   2.001  0.00  0.00    -0.090 HD
ENDBRANCH  10  11
ENDBRANCH   9  10
ENDBRANCH   6   9
ENDBRANCH   1   3
BRANCH   1  15
ATOM     15  S   UNL     1       1.385   2.226   0.693  0.00  0.00    +0.078 S 
ATOM     16  O   UNL     1       2.341   1.230   1.030  0.00  0.00    -0.150 OA
ATOM     17  O   UNL     1       1.668   3.273  -0.225  0.00  0.00    -0.150 OA
BRANCH  15  20
ATOM     18  C   UNL     1       1.762   1.188   3.787  0.00  0.00    +0.067 C 
ATOM     19  C   UNL     1       1.100   2.498   3.448  0.00  0.00    +0.060 A 
ATOM     20  C   UNL     1       0.907   2.996   2.204  0.00  0.00    +0.151 A 
ATOM     21  C   UNL     1       0.265   4.233   2.330  0.00  0.00    +0.087 A 
ATOM     22  N   UNL     1       0.072   4.465   3.603  0.00  0.00    -0.177 NA
ATOM     23  N   UNL     1       0.594   3.386   4.329  0.00  0.00    -0.280 N 
ATOM     24  H   UNL     1       0.644   3.179   5.408  0.00  0.00    +0.189 HD
ATOM     25  C   UNL     1      -0.137   5.139   1.196  0.00  0.00    +0.069 C 
ENDBRANCH  15  20
ENDBRANCH   1  15
TORSDOF 6
