REMARK  Name = ZINC08996031
REMARK  7 active torsions:
REMARK  status: ('A' for Active; 'I' for Inactive)
REMARK    1  A    between atoms: C_1  and  C_2
REMARK    2  A    between atoms: C_2  and  C_3
REMARK    3  A    between atoms: C_3  and  C_4
REMARK    4  A    between atoms: C_4  and  N_5
REMARK    5  A    between atoms: C_10  and  C_27
REMARK    6  A    between atoms: C_27  and  C_28
REMARK    7  A    between atoms: C_28  and  C_29
REMARK                            x       y       z     vdW  Elec       q    Type
REMARK                         _______ _______ _______ _____ _____    ______ ____
ROOT
ATOM      1  N   UNL     1      -2.361  -1.036   2.818  0.00  0.00    -0.242 N 
ATOM      2  C   UNL     1      -2.518  -1.833   1.713  0.00  0.00    +0.224 C 
ATOM      3  O   UNL     1      -2.771  -3.018   1.687  0.00  0.00    -0.275 OA
ATOM      4  C   UNL     1      -2.294  -0.934   0.580  0.00  0.00    +0.073 C 
ATOM      5  C   UNL     1      -2.849  -0.949  -0.804  0.00  0.00    -0.057 C 
ATOM      6  C   UNL     1      -2.649   1.301   0.037  0.00  0.00    +0.050 C 
ATOM      7  C   UNL     1      -2.980   0.370   1.158  0.00  0.00    +0.088 C 
ATOM      8  C   UNL     1      -2.404   0.300   2.513  0.00  0.00    +0.225 C 
ATOM      9  O   UNL     1      -2.046   1.226   3.209  0.00  0.00    -0.275 OA
ATOM     10  C   UNL     1      -1.214   1.748   0.017  0.00  0.00    -0.025 A 
ATOM     11  C   UNL     1      -0.013   1.076   0.008  0.00  0.00    +0.043 A 
ATOM     12  C   UNL     1       1.178   1.785   0.000  0.00  0.00    +0.124 A 
ATOM     13  C   UNL     1       1.154   3.170   0.008  0.00  0.00    +0.040 A 
ATOM     14  C   UNL     1      -0.049   3.845   0.021  0.00  0.00    +0.026 A 
ATOM     15  C   UNL     1      -1.250   3.139   0.029  0.00  0.00    +0.036 A 
ATOM     16  N   UNL     1      -2.573   3.589   0.042  0.00  0.00    -0.286 N 
ATOM     17  C   UNL     1      -3.455   2.571   0.046  0.00  0.00    +0.211 C 
ATOM     18  O   UNL     1      -4.665   2.660   0.055  0.00  0.00    -0.277 OA
ATOM     19  F   UNL     1       2.358   1.127  -0.014  0.00  0.00    -0.205 F 
ATOM     20  H   UNL     1      -2.827   4.525   0.047  0.00  0.00    +0.155 HD
ATOM     21  N   UNL     1      -2.952   0.494  -1.171  0.00  0.00    +0.394 N 
ATOM     22  H   UNL     1      -3.902   0.702  -1.499  0.00  0.00    -0.083 HD
ATOM     23  H   UNL     1      -2.278   0.713  -1.913  0.00  0.00    -0.083 HD
ENDROOT
BRANCH   1  24
ATOM     24  C   UNL     1      -2.169  -1.554   4.175  0.00  0.00    +0.116 C 
BRANCH  24  25
ATOM     25  C   UNL     1      -3.530  -1.735   4.850  0.00  0.00    +0.019 C 
BRANCH  25  27
ATOM     26  C   UNL     1      -4.690  -2.457   6.942  0.00  0.00    +0.004 C 
ATOM     27  C   UNL     1      -3.329  -2.276   6.267  0.00  0.00    -0.002 C 
ENDBRANCH  25  27
ENDBRANCH  24  25
ENDBRANCH   1  24
BRANCH   5  28
ATOM     28  C   UNL     1      -4.230  -1.607  -0.818  0.00  0.00    -0.006 C 
BRANCH  28  29
ATOM     29  C   UNL     1      -4.724  -1.724  -2.262  0.00  0.00    +0.094 C 
BRANCH  29  30
ATOM     30  C   UNL     1      -6.085  -2.373  -2.276  0.00  0.00    +0.210 C 
ATOM     31  O   UNL     1      -6.607  -2.708  -1.234  0.00  0.00    -0.276 OA
ATOM     32  N   UNL     1      -6.721  -2.580  -3.446  0.00  0.00    -0.329 N 
ATOM     33  H   UNL     1      -6.303  -2.311  -4.279  0.00  0.00    +0.145 HD
ATOM     34  H   UNL     1      -7.596  -2.997  -3.455  0.00  0.00    +0.145 HD
ENDBRANCH  29  30
ENDBRANCH  28  29
ENDBRANCH   5  28
TORSDOF 6
