REMARK  Name = ZINC42108631
REMARK  5 active torsions:
REMARK  status: ('A' for Active; 'I' for Inactive)
REMARK    1  A    between atoms: C_3  and  N_11
REMARK    2  A    between atoms: C_6  and  N_7
REMARK    3  A    between atoms: N_11  and  C_12
REMARK    4  A    between atoms: C_12  and  C_13
REMARK    5  A    between atoms: C_13  and  N_18
REMARK                            x       y       z     vdW  Elec       q    Type
REMARK                         _______ _______ _______ _____ _____    ______ ____
ROOT
ATOM      1  N   UNL     1       3.757   2.018   0.107  0.00  0.00    -0.340 N 
ATOM      2  H   UNL     1       4.639   1.616   0.091  0.00  0.00    +0.146 HD
ENDROOT
BRANCH   1   5
ATOM      3  C   UNL     1       0.235   0.975   0.281  0.00  0.00    +0.035 A 
ATOM      4  C   UNL     1       1.357   1.780   0.207  0.00  0.00    +0.028 A 
ATOM      5  C   UNL     1       2.620   1.206   0.183  0.00  0.00    +0.063 A 
ATOM      6  C   UNL     1       2.754  -0.177   0.234  0.00  0.00    +0.146 A 
ATOM      7  C   UNL     1       1.628  -0.976   0.308  0.00  0.00    +0.073 A 
ATOM      8  C   UNL     1       0.370  -0.400   0.332  0.00  0.00    +0.129 A 
ATOM      9  F   UNL     1       3.982  -0.740   0.211  0.00  0.00    -0.203 F 
BRANCH   8  10
ATOM     10  N   UNL     1      -0.833  -1.257   0.412  0.00  0.00    +0.057 N 
ATOM     11  O   UNL     1      -1.933  -0.755   0.433  0.00  0.00    -0.126 OA
ATOM     12  O   UNL     1      -0.717  -2.460   0.456  0.00  0.00    -0.126 OA
ENDBRANCH   8  10
ENDBRANCH   1   5
BRANCH   1  13
ATOM     13  C   UNL     1       3.614   3.475   0.053  0.00  0.00    +0.124 C 
BRANCH  13  14
ATOM     14  C   UNL     1       4.999   4.121  -0.025  0.00  0.00    +0.047 C 
ATOM     15  C   UNL     1       5.835   3.630   1.156  0.00  0.00    +0.035 C 
ATOM     16  C   UNL     1       6.896   4.697   1.546  0.00  0.00    +0.071 C 
ATOM     17  S   UNL     1       5.885   6.228   1.330  0.00  0.00    -0.159 S 
ATOM     18  C   UNL     1       4.829   5.652  -0.063  0.00  0.00    +0.093 C 
BRANCH  14  19
ATOM     19  N   UNL     1       5.649   3.688  -1.269  0.00  0.00    -0.290 NA
ATOM     20  C   UNL     1       7.026   4.197  -1.349  0.00  0.00    +0.113 C 
ATOM     21  C   UNL     1       7.684   3.675  -2.629  0.00  0.00    +0.175 C 
ATOM     22  O   UNL     1       6.896   4.064  -3.757  0.00  0.00    -0.377 OA
ATOM     23  C   UNL     1       5.549   3.585  -3.713  0.00  0.00    +0.175 C 
ATOM     24  C   UNL     1       4.870   4.106  -2.444  0.00  0.00    +0.113 C 
ENDBRANCH  14  19
ENDBRANCH  13  14
ENDBRANCH   1  13
TORSDOF 5
