REMARK  Name = ZINC05102388
REMARK  7 active torsions:
REMARK  status: ('A' for Active; 'I' for Inactive)
REMARK    1  A    between atoms: C_1  and  O_2
REMARK    2  A    between atoms: O_2  and  C_3
REMARK    3  A    between atoms: C_5  and  C_10
REMARK    4  A    between atoms: C_8  and  O_9
REMARK    5  A    between atoms: C_22  and  S_25
REMARK    6  A    between atoms: S_25  and  C_26
REMARK    7  A    between atoms: C_26  and  C_27
REMARK                            x       y       z     vdW  Elec       q    Type
REMARK                         _______ _______ _______ _____ _____    ______ ____
ROOT
ATOM      1  C   UNL     1      -0.074  -0.309   6.997  0.00  0.00    +0.294 C 
ATOM      2  N   UNL     1       0.644  -1.544   6.694  0.00  0.00    -0.305 N 
ATOM      3  C   UNL     1       2.040  -1.511   6.625  0.00  0.00    +0.039 A 
ATOM      4  C   UNL     1       2.824  -2.127   7.583  0.00  0.00    +0.024 A 
ATOM      5  C   UNL     1       4.202  -2.045   7.503  0.00  0.00    +0.002 A 
ATOM      6  C   UNL     1       4.803  -1.349   6.469  0.00  0.00    +0.001 A 
ATOM      7  C   UNL     1       4.035  -0.735   5.499  0.00  0.00    +0.012 A 
ATOM      8  C   UNL     1       2.649  -0.814   5.564  0.00  0.00    +0.028 A 
ATOM      9  C   UNL     1       1.789  -0.183   4.542  0.00  0.00    +0.156 A 
ATOM     10  C   UNL     1       0.690   0.608   4.946  0.00  0.00    +0.248 A 
ATOM     11  N   UNL     1      -0.075   1.155   4.017  0.00  0.00    -0.184 NA
ATOM     12  C   UNL     1       0.212   0.950   2.734  0.00  0.00    +0.213 A 
ATOM     13  N   UNL     1       1.248   0.203   2.376  0.00  0.00    -0.122 NA
ATOM     14  N   UNL     1       2.022  -0.345   3.248  0.00  0.00    -0.141 NA
ATOM     15  O   UNL     1       0.443   0.796   6.264  0.00  0.00    -0.449 OA
ATOM     16  H   UNL     1       0.162  -2.371   6.544  0.00  0.00    +0.150 HD
ENDROOT
BRANCH   1  19
ATOM     17  C   UNL     1       0.331   1.548  10.262  0.00  0.00    +0.162 A 
ATOM     18  C   UNL     1       0.225   1.280   8.907  0.00  0.00    +0.058 A 
ATOM     19  C   UNL     1       0.047  -0.020   8.471  0.00  0.00    +0.015 A 
ATOM     20  C   UNL     1      -0.015  -1.056   9.384  0.00  0.00    +0.013 A 
ATOM     21  C   UNL     1       0.096  -0.796  10.738  0.00  0.00    +0.049 A 
ATOM     22  C   UNL     1       0.269   0.505  11.181  0.00  0.00    +0.158 A 
BRANCH  17  24
ATOM     23  C   UNL     1       0.555   3.846   9.692  0.00  0.00    +0.277 C 
ATOM     24  O   UNL     1       0.501   2.827  10.692  0.00  0.00    -0.491 OA
ENDBRANCH  17  24
BRANCH  22  25
ATOM     25  O   UNL     1       0.379   0.763  12.512  0.00  0.00    -0.503 OA
ATOM     26  H   UNL     1       1.286   0.739  12.844  0.00  0.00    +0.292 HD
ENDBRANCH  22  25
ENDBRANCH   1  19
BRANCH  12  27
ATOM     27  S   UNL     1      -0.805   1.675   1.492  0.00  0.00    -0.080 S 
BRANCH  27  28
ATOM     28  C   UNL     1       0.036   1.074   0.006  0.00  0.00    +0.104 C 
BRANCH  28  29
ATOM     29  C   UNL     1      -0.679   1.584  -1.218  0.00  0.00    -0.023 C 
ATOM     30  C   UNL     1      -0.076   2.417  -2.030  0.00  0.00    +0.005 C 
ENDBRANCH  28  29
ENDBRANCH  27  28
ENDBRANCH  12  27
TORSDOF 6
