REMARK  Name = ZINC65265703
REMARK  6 active torsions:
REMARK  status: ('A' for Active; 'I' for Inactive)
REMARK    1  A    between atoms: C_1  and  C_2
REMARK    2  A    between atoms: C_3  and  C_8
REMARK    3  A    between atoms: C_4  and  C_7
REMARK    4  A    between atoms: C_8  and  C_9
REMARK    5  A    between atoms: N_26  and  C_27
REMARK    6  A    between atoms: C_27  and  C_28
REMARK                            x       y       z     vdW  Elec       q    Type
REMARK                         _______ _______ _______ _____ _____    ______ ____
ROOT
ATOM      1  C   UNL     1       1.411  -0.170  -3.054  0.00  0.00    +0.220 C 
ATOM      2  O   UNL     1       2.340  -0.406  -2.311  0.00  0.00    -0.275 OA
ATOM      3  N   UNL     1       1.645   0.252  -4.312  0.00  0.00    -0.299 N 
ATOM      4  C   UNL     1       0.531   0.548  -5.223  0.00  0.00    +0.108 C 
ATOM      5  C   UNL     1       0.706   1.967  -5.774  0.00  0.00    +0.021 C 
ATOM      6  C   UNL     1       2.090   2.092  -6.418  0.00  0.00    +0.036 C 
ATOM      7  C   UNL     1       3.168   1.836  -5.369  0.00  0.00    +0.102 C 
ATOM      8  C   UNL     1       3.021   0.431  -4.799  0.00  0.00    +0.141 C 
ATOM      9  C   UNL     1       4.538   1.992  -5.995  0.00  0.00    +0.099 C 
ATOM     10  N   UNL     1       4.915   3.277  -6.347  0.00  0.00    -0.286 N 
ATOM     11  C   UNL     1       4.543   4.322  -5.493  0.00  0.00    +0.145 A 
ATOM     12  C   UNL     1       3.612   4.096  -4.477  0.00  0.00    +0.069 A 
ATOM     13  C   UNL     1       3.245   5.145  -3.647  0.00  0.00    +0.028 A 
ATOM     14  C   UNL     1       3.829   6.387  -3.858  0.00  0.00    +0.022 A 
ATOM     15  C   UNL     1       4.748   6.538  -4.877  0.00  0.00    +0.113 A 
ATOM     16  N   UNL     1       5.076   5.523  -5.655  0.00  0.00    -0.238 NA
ATOM     17  N   UNL     1       3.057   2.823  -4.286  0.00  0.00    -0.328 N 
ATOM     18  N   UNL     1       5.316   0.978  -6.191  0.00  0.00    -0.370 N 
ATOM     19  H   UNL     1       2.609   2.598  -3.456  0.00  0.00    +0.147 HD
ATOM     20  H   UNL     1       5.027   0.088  -5.935  0.00  0.00    +0.161 HD
ATOM     21  H   UNL     1       5.420   3.447  -7.157  0.00  0.00    +0.155 HD
ENDROOT
BRANCH   1  22
ATOM     22  C   UNL     1      -0.005  -0.348  -2.571  0.00  0.00    +0.136 C 
BRANCH  22  25
ATOM     23  C   UNL     1      -0.018   1.503   0.010  0.00  0.00    +0.069 C 
ATOM     24  C   UNL     1       0.002  -0.004   0.002  0.00  0.00    +0.084 A 
ATOM     25  C   UNL     1       0.008  -0.824  -1.141  0.00  0.00    +0.026 A 
ATOM     26  C   UNL     1       0.027  -2.108  -0.735  0.00  0.00    +0.138 A 
ATOM     27  O   UNL     1       0.034  -2.119   0.606  0.00  0.00    -0.359 OA
ATOM     28  N   UNL     1       0.023  -0.775   1.052  0.00  0.00    -0.083 NA
ATOM     29  C   UNL     1       0.039  -3.320  -1.631  0.00  0.00    +0.089 C 
ENDBRANCH  22  25
ENDBRANCH   1  22
BRANCH  18  30
ATOM     30  C   UNL     1       6.634   1.173  -6.801  0.00  0.00    +0.149 C 
BRANCH  30  31
ATOM     31  C   UNL     1       7.335  -0.157  -6.917  0.00  0.00    -0.028 A 
ATOM     32  C   UNL     1       8.130  -0.612  -5.882  0.00  0.00    +0.005 A 
ATOM     33  C   UNL     1       8.773  -1.831  -5.989  0.00  0.00    +0.000 A 
ATOM     34  C   UNL     1       8.619  -2.595  -7.130  0.00  0.00    +0.000 A 
ATOM     35  C   UNL     1       7.823  -2.141  -8.165  0.00  0.00    +0.000 A 
ATOM     36  C   UNL     1       7.177  -0.924  -8.056  0.00  0.00    +0.005 A 
ENDBRANCH  30  31
ENDBRANCH  18  30
TORSDOF 4
