REMARK  Name = ZINC05103962
REMARK  4 active torsions:
REMARK  status: ('A' for Active; 'I' for Inactive)
REMARK    1  A    between atoms: C_1  and  C_2
REMARK    2  A    between atoms: N_5  and  C_16
REMARK    3  A    between atoms: N_8  and  C_9
REMARK    4  A    between atoms: C_20  and  N_21
REMARK                            x       y       z     vdW  Elec       q    Type
REMARK                         _______ _______ _______ _____ _____    ______ ____
ROOT
ATOM      1  C   UNL     1       3.899   6.085  -0.124  0.00  0.00    +0.029 C 
ATOM      2  C   UNL     1       2.475   5.526  -0.079  0.00  0.00    +0.088 C 
ATOM      3  C   UNL     1       2.525   3.997  -0.105  0.00  0.00    +0.127 C 
ATOM      4  N   UNL     1       1.156   3.464  -0.102  0.00  0.00    -0.325 N 
ATOM      5  C   UNL     1       0.403   3.947  -1.268  0.00  0.00    +0.124 C 
ATOM      6  C   UNL     1       0.353   5.477  -1.242  0.00  0.00    +0.124 C 
ATOM      7  N   UNL     1       1.723   6.009  -1.245  0.00  0.00    -0.324 N 
ENDROOT
BRANCH   7   8
ATOM      8  C   UNL     1       1.717   7.406  -1.294  0.00  0.00    +0.030 A 
ATOM      9  C   UNL     1       2.401   8.069  -2.304  0.00  0.00    +0.024 A 
ATOM     10  C   UNL     1       2.389   9.450  -2.354  0.00  0.00    +0.022 A 
ATOM     11  C   UNL     1       1.706  10.171  -1.391  0.00  0.00    +0.041 A 
ATOM     12  C   UNL     1       1.028   9.513  -0.380  0.00  0.00    +0.022 A 
ATOM     13  C   UNL     1       1.032   8.133  -0.329  0.00  0.00    +0.024 A 
ATOM     14 CL   UNL     1       1.699  11.906  -1.452  0.00  0.00    -0.084 Cl
ENDBRANCH   7   8
BRANCH   4  15
ATOM     15  C   UNL     1       1.161   2.070  -0.053  0.00  0.00    +0.054 A 
ATOM     16  C   UNL     1       2.341   1.354  -0.233  0.00  0.00    +0.042 A 
ATOM     17  C   UNL     1       2.306  -0.025  -0.177  0.00  0.00    +0.084 A 
ATOM     18  C   UNL     1       0.032  -0.029   0.219  0.00  0.00    +0.107 A 
ATOM     19  C   UNL     1      -0.019   1.355   0.179  0.00  0.00    +0.062 A 
ATOM     20  N   UNL     1       1.175  -0.748   0.046  0.00  0.00    -0.365 N 
ATOM     21  H   UNL     1       1.183  -1.774   0.081  0.00  0.00    +0.165 HD
BRANCH  19  22
ATOM     22  N   UNL     1      -1.234   2.027   0.367  0.00  0.00    -0.355 N 
ATOM     23  H   UNL     1      -2.063   1.526   0.413  0.00  0.00    +0.142 HD
ATOM     24  H   UNL     1      -1.245   2.993   0.450  0.00  0.00    +0.142 HD
ENDBRANCH  19  22
ENDBRANCH   4  15
TORSDOF 3
