REMARK  Name = ZINC16429502
REMARK  6 active torsions:
REMARK  status: ('A' for Active; 'I' for Inactive)
REMARK    1  A    between atoms: C_6  and  C_7
REMARK    2  A    between atoms: C_10  and  C_12
REMARK    3  A    between atoms: N_14  and  C_15
REMARK    4  A    between atoms: C_15  and  N_17
REMARK    5  A    between atoms: N_17  and  C_18
REMARK    6  A    between atoms: C_19  and  C_26
REMARK                            x       y       z     vdW  Elec       q    Type
REMARK                         _______ _______ _______ _____ _____    ______ ____
ROOT
ATOM      1  C   UNL     1      -6.736   0.353   0.052  0.00  0.00    +0.142 C 
ATOM      2  S   UNL     1      -7.762  -1.017   0.058  0.00  0.00    -0.018 S 
ENDROOT
BRANCH   1   5
ATOM      3  C   UNL     1      -4.868  -1.046   0.037  0.00  0.00    +0.285 C 
ATOM      4  O   UNL     1      -5.597  -2.020   0.041  0.00  0.00    -0.266 OA
ATOM      5  N   UNL     1      -5.398   0.193   0.042  0.00  0.00    -0.261 N 
ATOM      6  H   UNL     1      -4.817   0.970   0.039  0.00  0.00    +0.157 HD
BRANCH   3  10
ATOM      7  C   UNL     1      -1.265  -0.763   0.011  0.00  0.00    +0.136 A 
ATOM      8  C   UNL     1      -1.377  -2.124   0.010  0.00  0.00    +0.050 A 
ATOM      9  C   UNL     1      -2.743  -2.424   0.020  0.00  0.00    +0.055 A 
ATOM     10  C   UNL     1      -3.414  -1.220   0.026  0.00  0.00    +0.190 A 
ATOM     11  O   UNL     1      -2.497  -0.229   0.026  0.00  0.00    -0.450 OA
BRANCH   7  17
ATOM     12  C   UNL     1      -0.017   1.392   0.010  0.00  0.00    +0.012 A 
ATOM     13  C   UNL     1       1.170   2.095   0.002  0.00  0.00    +0.016 A 
ATOM     14  C   UNL     1       2.378   1.419  -0.013  0.00  0.00    +0.018 A 
ATOM     15  C   UNL     1       2.404   0.035  -0.021  0.00  0.00    +0.016 A 
ATOM     16  C   UNL     1       1.224  -0.680  -0.014  0.00  0.00    +0.012 A 
ATOM     17  C   UNL     1       0.002  -0.004   0.002  0.00  0.00    +0.017 A 
ATOM     18 BR   UNL     1       4.000   2.391  -0.023  0.00  0.00    -0.050 Br
ENDBRANCH   7  17
ENDBRANCH   3  10
ENDBRANCH   1   5
BRANCH   1  19
ATOM     19  N   UNL     1      -7.267   1.592   0.058  0.00  0.00    -0.291 N 
ATOM     20  H   UNL     1      -6.686   2.369   0.054  0.00  0.00    +0.154 HD
BRANCH  19  21
ATOM     21  C   UNL     1      -8.643   1.757   0.068  0.00  0.00    +0.084 A 
ATOM     22  C   UNL     1      -9.358   2.941   0.069  0.00  0.00    +0.068 A 
ATOM     23  C   UNL     1     -10.816   2.842   0.080  0.00  0.00    -0.023 A 
ATOM     24  C   UNL     1     -11.281   1.580   0.090  0.00  0.00    -0.004 A 
ATOM     25  S   UNL     1      -9.824   0.566   0.075  0.00  0.00    -0.077 S 
ATOM     26  C   UNL     1     -12.785   1.535   0.106  0.00  0.00    +0.043 C 
ATOM     27  C   UNL     1     -13.213   2.956   0.538  0.00  0.00    +0.010 C 
ATOM     28  C   UNL     1     -12.005   3.800   0.082  0.00  0.00    +0.037 C 
BRANCH  22  29
ATOM     29  C   UNL     1      -8.681   4.241   0.059  0.00  0.00    +0.244 C 
ATOM     30  O   UNL     1      -8.408   4.777  -0.998  0.00  0.00    -0.270 OA
ATOM     31  N   UNL     1      -8.361   4.842   1.222  0.00  0.00    -0.325 N 
ATOM     32  H   UNL     1      -8.579   4.415   2.066  0.00  0.00    +0.145 HD
ATOM     33  H   UNL     1      -7.913   5.703   1.216  0.00  0.00    +0.145 HD
ENDBRANCH  22  29
ENDBRANCH  19  21
ENDBRANCH   1  19
TORSDOF 6
