REMARK  Name = ZINC08396401
REMARK  10 active torsions:
REMARK  status: ('A' for Active; 'I' for Inactive)
REMARK    1  A    between atoms: C_1  and  C_2
REMARK    2  A    between atoms: C_3  and  C_9
REMARK    3  A    between atoms: C_4  and  O_8
REMARK    4  A    between atoms: C_9  and  C_10
REMARK    5  A    between atoms: C_9  and  C_25
REMARK    6  A    between atoms: C_14  and  O_16
REMARK    7  A    between atoms: O_16  and  C_17
REMARK    8  A    between atoms: C_17  and  C_18
REMARK    9  A    between atoms: C_26  and  C_32
REMARK   10  A    between atoms: C_30  and  O_31
REMARK                            x       y       z     vdW  Elec       q    Type
REMARK                         _______ _______ _______ _____ _____    ______ ____
ROOT
ATOM      1  C   UNL     1      -0.014  -0.337  -2.547  0.00  0.00    +0.093 C 
ENDROOT
BRANCH   1   4
ATOM      2  C   UNL     1      -0.976   1.853  -0.470  0.00  0.00    +0.068 C 
ATOM      3  C   UNL     1      -0.742   0.395  -0.172  0.00  0.00    +0.068 A 
ATOM      4  C   UNL     1      -0.317  -0.571  -1.090  0.00  0.00    +0.048 A 
ATOM      5  C   UNL     1      -0.227  -1.758  -0.434  0.00  0.00    +0.213 A 
ATOM      6  N   UNL     1      -0.583  -1.542   0.852  0.00  0.00    -0.247 N 
ATOM      7  H   UNL     1      -0.613  -2.210   1.555  0.00  0.00    +0.192 HD
ATOM      8  N   UNL     1      -0.896  -0.184   0.991  0.00  0.00    -0.176 NA
BRANCH   5   9
ATOM      9  O   UNL     1       0.152  -2.945  -0.972  0.00  0.00    -0.492 OA
ATOM     10  H   UNL     1       1.091  -3.147  -0.857  0.00  0.00    +0.294 HD
ENDBRANCH   5   9
ENDBRANCH   1   4
BRANCH   1  11
ATOM     11  C   UNL     1       1.361  -0.864  -2.865  0.00  0.00    +0.048 A 
ATOM     12  C   UNL     1       2.438  -0.826  -2.047  0.00  0.00    +0.041 A 
ATOM     13  N   UNL     1       3.472  -1.398  -2.698  0.00  0.00    -0.278 N 
ATOM     14  N   UNL     1       3.020  -1.802  -3.960  0.00  0.00    -0.136 NA
ATOM     15  H   UNL     1       4.372  -1.509  -2.352  0.00  0.00    +0.189 HD
ATOM     16  C   UNL     1       1.751  -1.488  -4.060  0.00  0.00    +0.236 A 
ATOM     17  C   UNL     1       2.475  -0.247  -0.656  0.00  0.00    +0.065 C 
BRANCH  16  18
ATOM     18  O   UNL     1       0.952  -1.722  -5.136  0.00  0.00    -0.491 OA
ATOM     19  H   UNL     1       1.003  -1.040  -5.819  0.00  0.00    +0.294 HD
ENDBRANCH  16  18
ENDBRANCH   1  11
BRANCH   1  20
ATOM     20  C   UNL     1      -1.035  -1.053  -3.394  0.00  0.00    -0.032 A 
ATOM     21  C   UNL     1      -1.051  -2.435  -3.435  0.00  0.00    +0.005 A 
ATOM     22  C   UNL     1      -1.986  -3.095  -4.210  0.00  0.00    +0.004 A 
ATOM     23  C   UNL     1      -2.907  -2.375  -4.947  0.00  0.00    +0.045 A 
ATOM     24  C   UNL     1      -2.892  -0.988  -4.908  0.00  0.00    +0.121 A 
ATOM     25  C   UNL     1      -1.957  -0.328  -4.124  0.00  0.00    +0.050 A 
BRANCH  24  26
ATOM     26  O   UNL     1      -3.796  -0.277  -5.632  0.00  0.00    -0.487 OA
BRANCH  26  27
ATOM     27  C   UNL     1      -4.734  -1.023  -6.411  0.00  0.00    +0.264 C 
BRANCH  27  28
ATOM     28  C   UNL     1      -5.649  -0.073  -7.140  0.00  0.00    -0.010 A 
ATOM     29  C   UNL     1      -6.823   0.348  -6.544  0.00  0.00    +0.008 A 
ATOM     30  C   UNL     1      -7.663   1.219  -7.212  0.00  0.00    +0.020 A 
ATOM     31  C   UNL     1      -7.329   1.669  -8.476  0.00  0.00    +0.041 A 
ATOM     32  C   UNL     1      -6.154   1.247  -9.072  0.00  0.00    +0.020 A 
ATOM     33  C   UNL     1      -5.312   0.380  -8.401  0.00  0.00    +0.008 A 
ATOM     34 CL   UNL     1      -8.384   2.763  -9.316  0.00  0.00    -0.084 Cl
ENDBRANCH  27  28
ENDBRANCH  26  27
ENDBRANCH  24  26
ENDBRANCH   1  20
TORSDOF 8
