REMARK  Name = ZINC05010653
REMARK  1 active torsions:
REMARK  status: ('A' for Active; 'I' for Inactive)
REMARK    1  A    between atoms: C_7  and  C_9
REMARK                            x       y       z     vdW  Elec       q    Type
REMARK                         _______ _______ _______ _____ _____    ______ ____
ROOT
ATOM      1  C   UNL     1       1.425   1.998  -0.001  0.00  0.00    +0.042 C 
ATOM      2  C   UNL     1       1.385   3.519   0.323  0.00  0.00    +0.167 C 
ATOM      3  S   UNL     1       0.107   3.547   1.649  0.00  0.00    -0.030 S 
ATOM      4  O   UNL     1       0.749   3.440   2.913  0.00  0.00    -0.174 OA
ATOM      5  O   UNL     1      -0.785   4.627   1.409  0.00  0.00    -0.174 OA
ATOM      6  C   UNL     1      -0.753   1.965   1.278  0.00  0.00    +0.184 C 
ATOM      7  C   UNL     1      -0.018   1.468   0.010  0.00  0.00    +0.114 C 
ENDROOT
BRANCH   7   8
ATOM      8  C   UNL     1       0.002  -0.004   0.002  0.00  0.00    +0.068 C 
ATOM      9  N   UNL     1       0.018  -1.140  -0.004  0.00  0.00    -0.196 NA
ENDBRANCH   7   8
TORSDOF 1
