REMARK  Name = ZINC54295113
REMARK  4 active torsions:
REMARK  status: ('A' for Active; 'I' for Inactive)
REMARK    1  A    between atoms: C_5  and  C_6
REMARK    2  A    between atoms: C_7  and  C_8
REMARK    3  A    between atoms: C_14  and  C_17
REMARK    4  A    between atoms: C_17  and  C_18
REMARK                            x       y       z     vdW  Elec       q    Type
REMARK                         _______ _______ _______ _____ _____    ______ ____
ROOT
ATOM      1  C   UNL     1      -1.937  -3.154   0.004  0.00  0.00    +0.239 C 
ATOM      2  O   UNL     1      -3.077  -2.739   0.115  0.00  0.00    -0.271 OA
ATOM      3  N   UNL     1      -1.711  -4.478  -0.107  0.00  0.00    -0.298 N 
ATOM      4  C   UNL     1      -0.339  -5.004  -0.119  0.00  0.00    +0.108 C 
ATOM      5  C   UNL     1      -0.215  -6.083   0.962  0.00  0.00    +0.019 C 
ATOM      6  C   UNL     1      -1.297  -7.144   0.744  0.00  0.00    +0.007 C 
ATOM      7  C   UNL     1      -2.679  -6.497   0.863  0.00  0.00    +0.017 C 
ATOM      8  C   UNL     1      -2.831  -5.423  -0.212  0.00  0.00    +0.112 C 
ENDROOT
BRANCH   1  10
ATOM      9  C   UNL     1      -1.085  -0.910   0.002  0.00  0.00    +0.020 C 
ATOM     10  C   UNL     1      -0.852  -2.248  -0.008  0.00  0.00    +0.068 C 
BRANCH   9  15
ATOM     11  C   UNL     1      -0.019   1.387  -0.002  0.00  0.00    +0.016 A 
ATOM     12  C   UNL     1       1.211   2.000  -0.018  0.00  0.00    +0.023 A 
ATOM     13  C   UNL     1       2.330   1.232  -0.038  0.00  0.00    +0.055 A 
ATOM     14  S   UNL     1       1.750  -0.345  -0.037  0.00  0.00    -0.082 S 
ATOM     15  C   UNL     1       0.001  -0.003  -0.010  0.00  0.00    +0.013 A 
ATOM     16 BR   UNL     1       4.132   1.806  -0.062  0.00  0.00    -0.043 Br
ENDBRANCH   9  15
ENDBRANCH   1  10
BRANCH   7  17
ATOM     17  C   UNL     1      -3.760  -7.564   0.679  0.00  0.00    +0.130 C 
BRANCH  17  18
ATOM     18  C   UNL     1      -5.116  -6.952   0.918  0.00  0.00    +0.356 C 
ATOM     19  O   UNL     1      -5.210  -5.771   1.208  0.00  0.00    -0.246 OA
ATOM     20  O   UNL     1      -6.120  -7.637   0.820  0.00  0.00    -0.246 OA
ENDBRANCH  17  18
ENDBRANCH   7  17
TORSDOF 4
