REMARK  Name = ZINC48719751
REMARK  5 active torsions:
REMARK  status: ('A' for Active; 'I' for Inactive)
REMARK    1  A    between atoms: C_1  and  C_2
REMARK    2  A    between atoms: C_7  and  N_12
REMARK    3  A    between atoms: C_9  and  C_11
REMARK    4  A    between atoms: C_13  and  C_15
REMARK    5  A    between atoms: N_17  and  C_18
REMARK                            x       y       z     vdW  Elec       q    Type
REMARK                         _______ _______ _______ _____ _____    ______ ____
ROOT
ATOM      1  N   UNL     1      -0.612  -2.548   1.244  0.00  0.00    -0.304 N 
ATOM      2  C   UNL     1      -0.873  -3.776   1.733  0.00  0.00    +0.304 C 
ATOM      3  O   UNL     1       0.032  -4.463   2.165  0.00  0.00    -0.265 OA
ATOM      4  H   UNL     1      -1.333  -2.000   0.898  0.00  0.00    +0.149 HD
ENDROOT
BRANCH   1  10
ATOM      5  C   UNL     1      -0.019   1.526   0.010  0.00  0.00    +0.008 C 
ATOM      6  C   UNL     1       0.002  -0.004   0.002  0.00  0.00    -0.009 C 
ATOM      7  C   UNL     1       0.718  -0.497  -1.257  0.00  0.00    +0.003 C 
ATOM      8  C   UNL     1       0.739  -2.027  -1.265  0.00  0.00    +0.002 C 
ATOM      9  C   UNL     1       1.479  -2.534  -0.026  0.00  0.00    +0.022 C 
ATOM     10  C   UNL     1       0.763  -2.041   1.233  0.00  0.00    +0.076 C 
ATOM     11  C   UNL     1       0.742  -0.511   1.242  0.00  0.00    +0.009 C 
ATOM     12  C   UNL     1       0.026  -0.018   2.500  0.00  0.00    +0.009 C 
ENDBRANCH   1  10
BRANCH   2  13
ATOM     13  C   UNL     1      -2.261  -4.288   1.743  0.00  0.00    +0.335 C 
ATOM     14  O   UNL     1      -2.523  -5.522   2.235  0.00  0.00    -0.260 OA
ATOM     15  N   UNL     1      -3.234  -3.549   1.278  0.00  0.00    -0.177 NA
BRANCH  15  16
ATOM     16  C   UNL     1      -4.502  -4.017   1.287  0.00  0.00    +0.218 A 
ATOM     17  N   UNL     1      -4.981  -5.182   1.723  0.00  0.00    -0.122 NA
ATOM     18  N   UNL     1      -6.222  -5.400   1.628  0.00  0.00    -0.148 NA
ATOM     19  C   UNL     1      -7.051  -4.516   1.116  0.00  0.00    +0.183 A 
ATOM     20  S   UNL     1      -6.014  -3.245   0.727  0.00  0.00    -0.034 S 
ENDBRANCH  15  16
ENDBRANCH   2  13
TORSDOF 3
