REMARK  Name = ZINC10083309
REMARK  7 active torsions:
REMARK  status: ('A' for Active; 'I' for Inactive)
REMARK    1  A    between atoms: C_3  and  N_8
REMARK    2  A    between atoms: C_9  and  C_11
REMARK    3  A    between atoms: C_11  and  O_12
REMARK    4  A    between atoms: O_12  and  C_13
REMARK    5  A    between atoms: C_13  and  C_15
REMARK    6  A    between atoms: C_16  and  C_17
REMARK    7  A    between atoms: C_21  and  N_23
REMARK                            x       y       z     vdW  Elec       q    Type
REMARK                         _______ _______ _______ _____ _____    ______ ____
ROOT
ATOM      1  C   UNL     1       6.086   2.234  -0.109  0.00  0.00    +0.332 C 
ATOM      2  O   UNL     1       6.072   3.450  -0.103  0.00  0.00    -0.246 OA
ENDROOT
BRANCH   1   3
ATOM      3  C   UNL     1       4.829   1.489  -0.118  0.00  0.00    +0.092 C 
ATOM      4  C   UNL     1       3.652   2.150  -0.120  0.00  0.00    +0.015 C 
BRANCH   4   5
ATOM      5  C   UNL     1       2.386   1.399  -0.129  0.00  0.00    -0.023 A 
ATOM      6  C   UNL     1       2.399   0.000  -0.136  0.00  0.00    +0.009 A 
ATOM      7  C   UNL     1       1.210  -0.696  -0.144  0.00  0.00    +0.023 A 
ATOM      8  C   UNL     1       0.004  -0.014  -0.145  0.00  0.00    +0.071 A 
ATOM      9  C   UNL     1      -0.017   1.371  -0.139  0.00  0.00    +0.145 A 
ATOM     10  C   UNL     1       1.165   2.081  -0.131  0.00  0.00    +0.042 A 
ATOM     11 CL   UNL     1      -1.489  -0.900  -0.155  0.00  0.00    -0.081 Cl
BRANCH   9  12
ATOM     12  N   UNL     1      -1.310   2.091  -0.147  0.00  0.00    +0.058 N 
ATOM     13  O   UNL     1      -1.329   3.308  -0.141  0.00  0.00    -0.126 OA
ATOM     14  O   UNL     1      -2.355   1.465  -0.159  0.00  0.00    -0.126 OA
ENDBRANCH   9  12
ENDBRANCH   4   5
ENDBRANCH   1   3
BRANCH   1  15
ATOM     15  O   UNL     1       7.262   1.573  -0.107  0.00  0.00    -0.452 OA
BRANCH  15  16
ATOM     16  C   UNL     1       8.451   2.366  -0.098  0.00  0.00    +0.328 C 
BRANCH  16  18
ATOM     17  N   UNL     1      10.896   1.992  -0.089  0.00  0.00    -0.280 N 
ATOM     18  C   UNL     1       9.657   1.462  -0.097  0.00  0.00    +0.255 C 
ATOM     19  O   UNL     1       9.512   0.258  -0.104  0.00  0.00    -0.272 OA
ATOM     20  H   UNL     1      11.013   2.953  -0.146  0.00  0.00    +0.155 HD
BRANCH  17  23
ATOM     21  C   UNL     1      13.139  -0.894  -0.482  0.00  0.00    +0.022 A 
ATOM     22  C   UNL     1      12.006  -0.103  -0.595  0.00  0.00    +0.028 A 
ATOM     23  C   UNL     1      12.015   1.155   0.001  0.00  0.00    +0.071 A 
ATOM     24  C   UNL     1      13.149   1.565   0.693  0.00  0.00    +0.150 A 
ATOM     25  N   UNL     1      14.204   0.778   0.780  0.00  0.00    -0.242 NA
ATOM     26  C   UNL     1      14.228  -0.416   0.221  0.00  0.00    +0.112 A 
ATOM     27 CL   UNL     1      13.177   3.127   1.449  0.00  0.00    -0.060 Cl
ENDBRANCH  17  23
ENDBRANCH  16  18
ENDBRANCH  15  16
ENDBRANCH   1  15
TORSDOF 7
