REMARK  Name = ZINC03444263
REMARK  8 active torsions:
REMARK  status: ('A' for Active; 'I' for Inactive)
REMARK    1  A    between atoms: C_1  and  C_2
REMARK    2  A    between atoms: C_4  and  C_23
REMARK    3  A    between atoms: C_9  and  S_11
REMARK    4  A    between atoms: S_11  and  C_12
REMARK    5  A    between atoms: C_12  and  C_14
REMARK    6  A    between atoms: C_12  and  C_17
REMARK    7  A    between atoms: C_14  and  C_15
REMARK    8  A    between atoms: C_14  and  C_16
REMARK                            x       y       z     vdW  Elec       q    Type
REMARK                         _______ _______ _______ _____ _____    ______ ____
ROOT
ATOM      1  C   UNL     1      -1.074   8.020   0.054  0.00  0.00    +0.143 C 
ENDROOT
BRANCH   1   2
ATOM      2  C   UNL     1      -1.645   9.408   0.191  0.00  0.00    +0.234 C 
ATOM      3  O   UNL     1      -2.810   9.614  -0.076  0.00  0.00    -0.274 OA
ATOM      4  N   UNL     1      -0.861  10.421   0.610  0.00  0.00    -0.239 N 
ATOM      5  C   UNL     1      -1.371  11.662   0.732  0.00  0.00    +0.303 C 
ATOM      6  O   UNL     1      -2.539  11.868   0.465  0.00  0.00    -0.253 OA
ATOM      7  N   UNL     1      -0.587  12.675   1.151  0.00  0.00    -0.313 N 
ATOM      8  H   UNL     1       0.071  10.257   0.824  0.00  0.00    +0.159 HD
ATOM      9  H   UNL     1       0.344  12.511   1.365  0.00  0.00    +0.146 HD
ATOM     10  H   UNL     1      -0.955  13.569   1.239  0.00  0.00    +0.146 HD
ENDBRANCH   1   2
BRANCH   1  11
ATOM     11  C   UNL     1      -0.300   7.914  -1.261  0.00  0.00    +0.005 C 
ATOM     12  C   UNL     1      -1.211   8.316  -2.423  0.00  0.00    +0.009 C 
ATOM     13  C   UNL     1       0.911   8.848  -1.216  0.00  0.00    +0.009 C 
ENDBRANCH   1  11
BRANCH   1  14
ATOM     14  S   UNL     1      -2.424   6.808   0.061  0.00  0.00    -0.071 S 
BRANCH  14  23
ATOM     15  C   UNL     1       2.503   1.070  -0.017  0.00  0.00    +0.066 C 
ATOM     16  C   UNL     1       1.185   1.800   0.000  0.00  0.00    +0.044 A 
ATOM     17  C   UNL     1      -0.013   1.076   0.008  0.00  0.00    +0.046 A 
ATOM     18  C   UNL     1      -1.194   1.747   0.017  0.00  0.00    +0.045 A 
ATOM     19  N   UNL     1      -1.181   3.105   0.030  0.00  0.00    -0.200 N 
ATOM     20  C   UNL     1       0.006   3.783   0.022  0.00  0.00    +0.254 A 
ATOM     21  N   UNL     1       1.165   3.114   0.008  0.00  0.00    -0.216 NA
ATOM     22  N   UNL     1      -0.278   5.081   0.032  0.00  0.00    -0.183 NA
ATOM     23  C   UNL     1      -1.598   5.251   0.045  0.00  0.00    +0.212 A 
ATOM     24  N   UNL     1      -2.192   4.075   0.045  0.00  0.00    -0.137 NA
ATOM     25  C   UNL     1      -2.500   0.996   0.019  0.00  0.00    +0.066 C 
ENDBRANCH  14  23
ENDBRANCH   1  14
TORSDOF 4
