REMARK  Name = ZINC67411373
REMARK  5 active torsions:
REMARK  status: ('A' for Active; 'I' for Inactive)
REMARK    1  A    between atoms: C_1  and  C_2
REMARK    2  A    between atoms: C_2  and  C_4
REMARK    3  A    between atoms: C_2  and  N_10
REMARK    4  A    between atoms: N_13  and  C_16
REMARK    5  A    between atoms: C_16  and  C_17
REMARK                            x       y       z     vdW  Elec       q    Type
REMARK                         _______ _______ _______ _____ _____    ______ ____
ROOT
ATOM      1  N   UNL     1      -1.322  -0.597   0.235  0.00  0.00    -0.289 NA
ATOM      2  C   UNL     1      -1.220  -2.048   0.442  0.00  0.00    +0.100 C 
ATOM      3  C   UNL     1      -2.606  -2.614   0.759  0.00  0.00    +0.100 C 
ATOM      4  N   UNL     1      -3.524  -2.305  -0.346  0.00  0.00    -0.294 NA
ATOM      5  C   UNL     1      -3.625  -0.853  -0.552  0.00  0.00    +0.100 C 
ATOM      6  C   UNL     1      -2.239  -0.288  -0.870  0.00  0.00    +0.100 C 
ENDROOT
BRANCH   1   8
ATOM      7  C   UNL     1       0.458  -0.320  -1.424  0.00  0.00    +0.034 C 
ATOM      8  C   UNL     1       0.002  -0.004   0.002  0.00  0.00    +0.140 C 
BRANCH   8   9
ATOM      9  C   UNL     1      -0.077   1.490   0.185  0.00  0.00    +0.237 C 
ATOM     10  O   UNL     1      -1.156   2.041   0.212  0.00  0.00    -0.274 OA
ATOM     11  N   UNL     1       1.053   2.213   0.319  0.00  0.00    -0.239 N 
ATOM     12  C   UNL     1       0.982   3.549   0.483  0.00  0.00    +0.303 C 
ATOM     13  O   UNL     1      -0.100   4.101   0.510  0.00  0.00    -0.253 OA
ATOM     14  N   UNL     1       2.111   4.272   0.617  0.00  0.00    -0.313 N 
ATOM     15  H   UNL     1       1.916   1.772   0.298  0.00  0.00    +0.159 HD
ATOM     16  H   UNL     1       2.975   3.831   0.596  0.00  0.00    +0.146 HD
ATOM     17  H   UNL     1       2.061   5.233   0.735  0.00  0.00    +0.146 HD
ENDBRANCH   8   9
ENDBRANCH   1   8
BRANCH   4  18
ATOM     18  C   UNL     1      -4.848  -2.897  -0.113  0.00  0.00    +0.139 C 
BRANCH  18  19
ATOM     19  C   UNL     1      -5.681  -2.774  -1.362  0.00  0.00    +0.048 A 
ATOM     20  C   UNL     1      -6.558  -1.781  -1.630  0.00  0.00    +0.115 A 
ATOM     21  N   UNL     1      -7.100  -2.041  -2.859  0.00  0.00    -0.306 N 
ATOM     22  C   UNL     1      -8.026  -1.385  -3.617  0.00  0.00    +0.112 A 
ATOM     23  C   UNL     1      -8.394  -1.868  -4.824  0.00  0.00    +0.058 A 
ATOM     24  C   UNL     1      -7.826  -3.056  -5.314  0.00  0.00    +0.025 A 
ATOM     25  C   UNL     1      -6.902  -3.720  -4.568  0.00  0.00    +0.046 A 
ATOM     26  C   UNL     1      -6.529  -3.203  -3.311  0.00  0.00    +0.116 A 
ATOM     27  N   UNL     1      -5.671  -3.623  -2.392  0.00  0.00    -0.342 N 
ATOM     28 CL   UNL     1      -9.574  -1.018  -5.772  0.00  0.00    -0.082 Cl
ATOM     29  H   UNL     1      -5.125  -4.422  -2.457  0.00  0.00    +0.167 HD
ENDBRANCH  18  19
ENDBRANCH   4  18
TORSDOF 4
