REMARK  Name = ZINC67414887
REMARK  7 active torsions:
REMARK  status: ('A' for Active; 'I' for Inactive)
REMARK    1  A    between atoms: C_4  and  N_7
REMARK    2  A    between atoms: N_7  and  C_8
REMARK    3  A    between atoms: C_8  and  C_9
REMARK    4  A    between atoms: C_9  and  C_10
REMARK    5  A    between atoms: C_13  and  C_15
REMARK    6  A    between atoms: N_17  and  C_18
REMARK    7  A    between atoms: N_27  and  C_29
REMARK                            x       y       z     vdW  Elec       q    Type
REMARK                         _______ _______ _______ _____ _____    ______ ____
ROOT
ATOM      1  C   UNL     1       5.052   1.378   0.214  0.00  0.00    +0.300 C 
ATOM      2  O   UNL     1       4.090   2.114   0.139  0.00  0.00    -0.265 OA
ATOM      3  N   UNL     1       6.279   1.893   0.426  0.00  0.00    -0.304 N 
ATOM      4  H   UNL     1       7.048   1.304   0.486  0.00  0.00    +0.149 HD
ENDROOT
BRANCH   3   5
ATOM      5  C   UNL     1       6.452   3.338   0.563  0.00  0.00    +0.076 C 
ATOM      6  C   UNL     1       6.234   3.764   2.017  0.00  0.00    -0.007 C 
ATOM      7  C   UNL     1       6.306   5.284   2.114  0.00  0.00    +0.003 C 
ATOM      8  C   UNL     1       7.609   5.846   1.569  0.00  0.00    +0.001 C 
ATOM      9  C   UNL     1       8.000   5.261   0.221  0.00  0.00    +0.003 C 
ATOM     10  C   UNL     1       7.878   3.742   0.179  0.00  0.00    -0.007 C 
ATOM     11  C   UNL     1       8.883   3.073   1.103  0.00  0.00    -0.073 C 
ATOM     12  N   UNL     1       8.636   3.337   2.516  0.00  0.00    +0.382 N 
ATOM     13  C   UNL     1       7.256   3.094   2.922  0.00  0.00    -0.073 C 
ATOM     14  H   UNL     1       8.908   4.280   2.748  0.00  0.00    -0.081 HD
BRANCH  12  15
ATOM     15  C   UNL     1       9.504   2.452   3.303  0.00  0.00    -0.069 C 
ATOM     16  C   UNL     1      10.368   3.094   4.391  0.00  0.00    -0.017 C 
ATOM     17  C   UNL     1      11.015   2.583   3.103  0.00  0.00    -0.017 C 
ENDBRANCH  12  15
ENDBRANCH   3   5
BRANCH   1  19
ATOM     18  N   UNL     1       3.638  -0.621  -0.040  0.00  0.00    -0.263 N 
ATOM     19  C   UNL     1       4.875  -0.098   0.074  0.00  0.00    +0.306 C 
ATOM     20  O   UNL     1       5.846  -0.827   0.062  0.00  0.00    -0.265 OA
BRANCH  18  24
ATOM     21  C   UNL     1       3.120  -4.753  -0.070  0.00  0.00    +0.000 A 
ATOM     22  C   UNL     1       2.624  -3.988  -1.109  0.00  0.00    +0.002 A 
ATOM     23  C   UNL     1       2.794  -2.617  -1.103  0.00  0.00    +0.023 A 
ATOM     24  C   UNL     1       3.464  -2.007  -0.050  0.00  0.00    +0.037 A 
ATOM     25  C   UNL     1       3.961  -2.779   0.993  0.00  0.00    +0.023 A 
ATOM     26  C   UNL     1       3.788  -4.149   0.980  0.00  0.00    +0.002 A 
ENDBRANCH  18  24
BRANCH  18  27
ATOM     27  C   UNL     1       2.477   0.264  -0.154  0.00  0.00    +0.123 C 
BRANCH  27  28
ATOM     28  C   UNL     1       2.022   0.691   1.244  0.00  0.00    +0.115 C 
BRANCH  28  29
ATOM     29  C   UNL     1       0.827   1.602   1.127  0.00  0.00    +0.212 C 
ATOM     30  O   UNL     1       0.383   1.882   0.034  0.00  0.00    -0.276 OA
ATOM     31  N   UNL     1       0.252   2.105   2.237  0.00  0.00    -0.329 N 
ATOM     32  H   UNL     1       0.608   1.881   3.111  0.00  0.00    +0.145 HD
ATOM     33  H   UNL     1      -0.517   2.691   2.162  0.00  0.00    +0.145 HD
ENDBRANCH  28  29
ENDBRANCH  27  28
ENDBRANCH  18  27
ENDBRANCH   1  19
TORSDOF 7
