REMARK  Name = ZINC63269251
REMARK  9 active torsions:
REMARK  status: ('A' for Active; 'I' for Inactive)
REMARK    1  A    between atoms: C_1  and  C_2
REMARK    2  A    between atoms: C_2  and  C_3
REMARK    3  A    between atoms: C_2  and  C_4
REMARK    4  A    between atoms: C_8  and  N_10
REMARK    5  A    between atoms: C_12  and  C_16
REMARK    6  A    between atoms: N_18  and  N_19
REMARK    7  A    between atoms: N_22  and  C_23
REMARK    8  A    between atoms: C_23  and  C_24
REMARK    9  A    between atoms: C_23  and  C_25
REMARK                            x       y       z     vdW  Elec       q    Type
REMARK                         _______ _______ _______ _____ _____    ______ ____
ROOT
ATOM      1  N   UNL     1      -3.621  -2.614  -2.056  0.00  0.00    -0.271 N 
ATOM      2  C   UNL     1      -4.942  -3.252  -2.092  0.00  0.00    +0.127 C 
ATOM      3  C   UNL     1      -5.164  -3.656  -3.566  0.00  0.00    +0.103 C 
ATOM      4  C   UNL     1      -3.712  -3.797  -4.077  0.00  0.00    +0.110 C 
ATOM      5  C   UNL     1      -2.909  -2.903  -3.159  0.00  0.00    +0.221 C 
ATOM      6  O   UNL     1      -1.785  -2.506  -3.384  0.00  0.00    -0.275 OA
ENDROOT
BRANCH   1  11
ATOM      7  C   UNL     1      -3.562  -0.667   1.063  0.00  0.00    -0.043 A 
ATOM      8  C   UNL     1      -2.260  -0.202   1.056  0.00  0.00    +0.004 A 
ATOM      9  C   UNL     1      -1.408  -0.536   0.019  0.00  0.00    +0.002 A 
ATOM     10  C   UNL     1      -1.856  -1.336  -1.014  0.00  0.00    +0.023 A 
ATOM     11  C   UNL     1      -3.163  -1.804  -1.010  0.00  0.00    +0.037 A 
ATOM     12  C   UNL     1      -4.015  -1.471   0.035  0.00  0.00    +0.027 A 
BRANCH   7  14
ATOM     13  C   UNL     1      -3.901  -0.807   3.515  0.00  0.00    +0.012 C 
ATOM     14  C   UNL     1      -4.486  -0.301   2.195  0.00  0.00    +0.013 C 
ATOM     15  C   UNL     1      -4.642   1.220   2.256  0.00  0.00    +0.012 C 
ENDBRANCH   7  14
ENDBRANCH   1  11
BRANCH   3  16
ATOM     16  C   UNL     1      -5.898  -2.574  -4.317  0.00  0.00    +0.234 C 
ATOM     17  O   UNL     1      -6.226  -1.556  -3.745  0.00  0.00    -0.274 OA
ATOM     18  N   UNL     1      -6.188  -2.738  -5.622  0.00  0.00    -0.233 N 
ATOM     19  H   UNL     1      -5.925  -3.552  -6.079  0.00  0.00    +0.173 HD
BRANCH  18  20
ATOM     20  N   UNL     1      -6.870  -1.732  -6.320  0.00  0.00    -0.218 N 
ATOM     21  C   UNL     1      -7.160  -1.896  -7.626  0.00  0.00    +0.316 C 
ATOM     22  O   UNL     1      -7.752  -1.023  -8.231  0.00  0.00    -0.251 OA
ATOM     23  N   UNL     1      -6.795  -3.027  -8.261  0.00  0.00    -0.296 N 
ATOM     24  H   UNL     1      -7.133  -0.918  -5.863  0.00  0.00    +0.174 HD
ATOM     25  H   UNL     1      -6.323  -3.724  -7.778  0.00  0.00    +0.151 HD
BRANCH  23  26
ATOM     26  C   UNL     1      -7.110  -3.205  -9.680  0.00  0.00    +0.068 C 
ATOM     27  C   UNL     1      -6.116  -4.187 -10.305  0.00  0.00    +0.027 C 
ATOM     28  C   UNL     1      -8.530  -3.759  -9.822  0.00  0.00    +0.027 C 
ENDBRANCH  23  26
ENDBRANCH  18  20
ENDBRANCH   3  16
TORSDOF 5
