REMARK  Name = ZINC31157412
REMARK  7 active torsions:
REMARK  status: ('A' for Active; 'I' for Inactive)
REMARK    1  A    between atoms: C_1  and  C_2
REMARK    2  A    between atoms: C_9  and  C_26
REMARK    3  A    between atoms: C_13  and  C_23
REMARK    4  A    between atoms: C_14  and  C_15
REMARK    5  A    between atoms: C_14  and  O_22
REMARK    6  A    between atoms: C_15  and  C_16
REMARK    7  A    between atoms: C_16  and  C_17
REMARK                            x       y       z     vdW  Elec       q    Type
REMARK                         _______ _______ _______ _____ _____    ______ ____
ROOT
ATOM      1  C   UNL     1      -2.754   1.147   0.256  0.00  0.00    +0.010 C 
ATOM      2  C   UNL     1      -2.260   1.103  -1.191  0.00  0.00    +0.021 C 
ATOM      3  C   UNL     1      -2.319  -0.322  -1.720  0.00  0.00    +0.038 C 
ATOM      4  C   UNL     1      -2.005  -0.300  -3.206  0.00  0.00    +0.123 C 
ATOM      5  C   UNL     1      -0.651   0.345  -3.504  0.00  0.00    +0.035 C 
ATOM      6  C   UNL     1      -0.851   0.981  -4.864  0.00  0.00    -0.003 C 
ATOM      7  C   UNL     1      -0.219   2.300  -5.162  0.00  0.00    +0.009 C 
ATOM      8  C   UNL     1       0.036   3.140  -3.915  0.00  0.00    +0.001 C 
ATOM      9  C   UNL     1       0.838   2.299  -2.943  0.00  0.00    +0.010 C 
ATOM     10  C   UNL     1      -0.030   1.150  -2.435  0.00  0.00    +0.003 C 
ATOM     11  C   UNL     1      -0.837   1.616  -1.255  0.00  0.00    +0.075 C 
ATOM     12  C   UNL     1       0.995   0.200  -1.812  0.00  0.00    +0.014 C 
ATOM     13  C   UNL     1      -2.357   0.926  -5.140  0.00  0.00    +0.167 C 
ATOM     14  O   UNL     1      -2.978   0.485  -3.918  0.00  0.00    -0.376 OA
ATOM     15  C   UNL     1      -0.249  -0.005  -5.867  0.00  0.00    +0.014 C 
ENDROOT
BRANCH  11  16
ATOM     16  O   UNL     1      -0.880   3.044  -1.278  0.00  0.00    -0.388 OA
ATOM     17  H   UNL     1       0.055   3.622  -1.323  0.00  0.00    +0.210 HD
ENDBRANCH  11  16
BRANCH  11  18
ATOM     18  C   UNL     1      -0.114   1.181   0.022  0.00  0.00    +0.040 C 
BRANCH  18  19
ATOM     19  C   UNL     1       1.086   2.099   0.266  0.00  0.00    +0.041 C 
BRANCH  19  20
ATOM     20  C   UNL     1       1.882   1.585   1.437  0.00  0.00    -0.010 A 
ATOM     21  C   UNL     1       2.954   0.664   1.389  0.00  0.00    +0.044 A 
ATOM     22  C   UNL     1       3.372   0.486   2.655  0.00  0.00    +0.195 A 
ATOM     23  O   UNL     1       2.615   1.245   3.463  0.00  0.00    -0.471 OA
ATOM     24  C   UNL     1       1.713   1.917   2.729  0.00  0.00    +0.198 A 
ENDBRANCH  19  20
ENDBRANCH  18  19
ENDBRANCH  11  18
TORSDOF 4
