REMARK  Name = ZINC05610061
REMARK  6 active torsions:
REMARK  status: ('A' for Active; 'I' for Inactive)
REMARK    1  A    between atoms: C_1  and  C_2
REMARK    2  A    between atoms: N_6  and  C_10
REMARK    3  A    between atoms: C_7  and  C_9
REMARK    4  A    between atoms: C_10  and  C_11
REMARK    5  A    between atoms: N_13  and  C_14
REMARK    6  A    between atoms: C_15  and  C_23
REMARK                            x       y       z     vdW  Elec       q    Type
REMARK                         _______ _______ _______ _____ _____    ______ ____
ROOT
ATOM      1  C   UNL     1       3.059   0.989  -0.917  0.00  0.00    +0.238 C 
ATOM      2  O   UNL     1       2.477   1.277  -1.941  0.00  0.00    -0.273 OA
ATOM      3  N   UNL     1       4.261   0.382  -0.973  0.00  0.00    -0.278 N 
ATOM      4  H   UNL     1       4.727   0.151  -0.154  0.00  0.00    +0.155 HD
ENDROOT
BRANCH   3   5
ATOM      5  C   UNL     1       4.831   0.086  -2.202  0.00  0.00    +0.084 A 
ATOM      6  C   UNL     1       6.050  -0.525  -2.462  0.00  0.00    +0.068 A 
ATOM      7  C   UNL     1       6.417  -0.726  -3.854  0.00  0.00    -0.023 A 
ATOM      8  C   UNL     1       5.518  -0.277  -4.756  0.00  0.00    -0.004 A 
ATOM      9  S   UNL     1       4.199   0.396  -3.785  0.00  0.00    -0.077 S 
ATOM     10  C   UNL     1       5.628  -0.340  -6.248  0.00  0.00    +0.043 C 
ATOM     11  C   UNL     1       7.085  -0.656  -6.614  0.00  0.00    +0.005 C 
ATOM     12  C   UNL     1       7.565  -1.831  -5.757  0.00  0.00    +0.005 C 
ATOM     13  C   UNL     1       7.715  -1.386  -4.301  0.00  0.00    +0.037 C 
BRANCH   6  14
ATOM     14  C   UNL     1       6.932  -0.956  -1.373  0.00  0.00    +0.244 C 
ATOM     15  O   UNL     1       6.828  -2.078  -0.913  0.00  0.00    -0.270 OA
ATOM     16  N   UNL     1       7.859  -0.109  -0.882  0.00  0.00    -0.325 N 
ATOM     17  H   UNL     1       7.942   0.785  -1.249  0.00  0.00    +0.145 HD
ATOM     18  H   UNL     1       8.443  -0.394  -0.162  0.00  0.00    +0.145 HD
ENDBRANCH   6  14
ENDBRANCH   3   5
BRANCH   1  19
ATOM     19  C   UNL     1       2.439   1.311   0.418  0.00  0.00    +0.222 C 
BRANCH  19  25
ATOM     20  C   UNL     1      -2.650   3.702  -0.378  0.00  0.00    +0.066 C 
ATOM     21  C   UNL     1      -1.285   3.099  -0.168  0.00  0.00    +0.045 A 
ATOM     22  C   UNL     1      -0.185   3.901  -0.127  0.00  0.00    +0.093 A 
ATOM     23  C   UNL     1       1.078   3.304   0.064  0.00  0.00    +0.255 A 
ATOM     24  O   UNL     1       2.090   3.985   0.102  0.00  0.00    -0.268 OA
ATOM     25  N   UNL     1       1.144   1.963   0.211  0.00  0.00    -0.288 N 
ATOM     26  C   UNL     1       0.017   1.227   0.166  0.00  0.00    +0.110 A 
ATOM     27  N   UNL     1      -1.153   1.779  -0.017  0.00  0.00    -0.239 NA
ATOM     28  C   UNL     1       0.107  -0.269   0.331  0.00  0.00    +0.086 C 
ENDBRANCH  19  25
ENDBRANCH   1  19
TORSDOF 4
