REMARK  Name = ZINC40225119
REMARK  5 active torsions:
REMARK  status: ('A' for Active; 'I' for Inactive)
REMARK    1  A    between atoms: C_1  and  C_2
REMARK    2  A    between atoms: C_2  and  C_4
REMARK    3  A    between atoms: C_2  and  O_26
REMARK    4  A    between atoms: N_12  and  C_13
REMARK    5  A    between atoms: C_13  and  C_14
REMARK                            x       y       z     vdW  Elec       q    Type
REMARK                         _______ _______ _______ _____ _____    ______ ____
ROOT
ATOM      1  C   UNL     1       0.722  -0.476   1.214  0.00  0.00    +0.140 A 
ATOM      2  N   UNL     1       0.236  -0.494   2.421  0.00  0.00    -0.230 NA
ATOM      3  C   UNL     1       1.145  -1.037   3.271  0.00  0.00    +0.089 A 
ATOM      4  C   UNL     1       1.147  -1.293   4.644  0.00  0.00    +0.030 A 
ATOM      5  C   UNL     1       2.242  -1.865   5.228  0.00  0.00    +0.002 A 
ATOM      6  C   UNL     1       3.356  -2.197   4.471  0.00  0.00    +0.002 A 
ATOM      7  C   UNL     1       3.376  -1.954   3.114  0.00  0.00    +0.028 A 
ATOM      8  C   UNL     1       2.273  -1.373   2.503  0.00  0.00    +0.069 A 
ATOM      9  N   UNL     1       1.972  -1.011   1.205  0.00  0.00    -0.316 N 
ENDROOT
BRANCH   1  11
ATOM     10  C   UNL     1       0.006   1.585   0.034  0.00  0.00    +0.046 C 
ATOM     11  C   UNL     1       0.002   0.055   0.001  0.00  0.00    +0.177 C 
BRANCH  11  12
ATOM     12  O   UNL     1      -1.347  -0.417   0.004  0.00  0.00    -0.384 OA
ATOM     13  H   UNL     1      -1.857  -0.147   0.779  0.00  0.00    +0.210 HD
ENDBRANCH  11  12
ENDBRANCH   1  11
BRANCH   9  14
ATOM     14  C   UNL     1       2.840  -1.171   0.036  0.00  0.00    +0.219 C 
BRANCH  14  15
ATOM     15  C   UNL     1       3.691   0.061  -0.131  0.00  0.00    +0.240 C 
ATOM     16  O   UNL     1       3.521   1.018   0.595  0.00  0.00    -0.273 OA
ATOM     17  N   UNL     1       4.641   0.101  -1.086  0.00  0.00    -0.270 N 
ATOM     18  C   UNL     1       4.801  -1.016  -2.026  0.00  0.00    +0.114 C 
ATOM     19  C   UNL     1       6.301  -1.317  -2.147  0.00  0.00    +0.024 C 
ATOM     20  C   UNL     1       7.003  -0.097  -2.744  0.00  0.00    +0.038 C 
ATOM     21  C   UNL     1       6.635   1.149  -1.981  0.00  0.00    -0.026 A 
ATOM     22  C   UNL     1       5.489   1.210  -1.202  0.00  0.00    +0.039 A 
ATOM     23  C   UNL     1       5.173   2.379  -0.518  0.00  0.00    +0.024 A 
ATOM     24  C   UNL     1       5.998   3.482  -0.617  0.00  0.00    +0.002 A 
ATOM     25  C   UNL     1       7.138   3.423  -1.397  0.00  0.00    +0.000 A 
ATOM     26  C   UNL     1       7.461   2.256  -2.070  0.00  0.00    +0.005 A 
ENDBRANCH  14  15
ENDBRANCH   9  14
TORSDOF 4
