REMARK  Name = ZINC08746878
REMARK  6 active torsions:
REMARK  status: ('A' for Active; 'I' for Inactive)
REMARK    1  A    between atoms: C_1  and  C_2
REMARK    2  A    between atoms: C_5  and  N_8
REMARK    3  A    between atoms: C_11  and  C_16
REMARK    4  A    between atoms: C_16  and  N_17
REMARK    5  A    between atoms: C_20  and  C_24
REMARK    6  A    between atoms: C_20  and  C_25
REMARK                            x       y       z     vdW  Elec       q    Type
REMARK                         _______ _______ _______ _____ _____    ______ ____
ROOT
ATOM      1  N   UNL     1       2.866  -1.234  -3.976  0.00  0.00    -0.284 N 
ATOM      2  C   UNL     1       3.244  -0.102  -3.281  0.00  0.00    +0.224 A 
ATOM      3  N   UNL     1       2.845   0.071  -2.023  0.00  0.00    -0.198 NA
ATOM      4  C   UNL     1       3.202   1.156  -1.358  0.00  0.00    +0.154 A 
ATOM      5  N   UNL     1       3.964   2.068  -1.936  0.00  0.00    -0.198 NA
ATOM      6  C   UNL     1       4.371   1.899  -3.192  0.00  0.00    +0.217 A 
ATOM      7  N   UNL     1       4.010   0.812  -3.865  0.00  0.00    -0.181 NA
ATOM      8  N   UNL     1       5.167   2.852  -3.794  0.00  0.00    -0.327 N 
ATOM      9  H   UNL     1       2.374  -1.939  -3.526  0.00  0.00    +0.155 HD
ATOM     10  H   UNL     1       5.430   3.646  -3.302  0.00  0.00    +0.145 HD
ATOM     11  H   UNL     1       5.463   2.728  -4.710  0.00  0.00    +0.145 HD
ENDROOT
BRANCH   1  16
ATOM     12  C   UNL     1       4.189  -1.765  -9.467  0.00  0.00    +0.044 C 
ATOM     13  C   UNL     1       3.837  -1.624  -8.008  0.00  0.00    -0.050 A 
ATOM     14  C   UNL     1       3.789  -2.744  -7.199  0.00  0.00    +0.005 A 
ATOM     15  C   UNL     1       3.467  -2.618  -5.862  0.00  0.00    +0.023 A 
ATOM     16  C   UNL     1       3.192  -1.365  -5.330  0.00  0.00    +0.034 A 
ATOM     17  C   UNL     1       3.236  -0.243  -6.147  0.00  0.00    +0.023 A 
ATOM     18  C   UNL     1       3.564  -0.375  -7.482  0.00  0.00    +0.005 A 
ENDBRANCH   1  16
BRANCH   4  19
ATOM     19  C   UNL     1       2.743   1.351   0.064  0.00  0.00    +0.194 C 
BRANCH  19  20
ATOM     20  N   UNL     1       1.467   2.070   0.071  0.00  0.00    -0.216 N 
ATOM     21  C   UNL     1       1.354   3.412   0.118  0.00  0.00    +0.254 C 
ATOM     22  O   UNL     1       2.256   4.222   0.161  0.00  0.00    -0.272 OA
ATOM     23  C   UNL     1      -0.134   3.699   0.107  0.00  0.00    +0.168 C 
ATOM     24  N   UNL     1      -0.745   2.360   0.044  0.00  0.00    -0.279 N 
ATOM     25  C   UNL     1       0.269   1.476   0.032  0.00  0.00    +0.310 C 
ATOM     26  O   UNL     1       0.114   0.271  -0.014  0.00  0.00    -0.252 OA
ATOM     27  C   UNL     1      -0.516   4.518  -1.127  0.00  0.00    +0.050 C 
ATOM     28  H   UNL     1      -1.692   2.156   0.018  0.00  0.00    +0.152 HD
BRANCH  23  29
ATOM     29  C   UNL     1      -0.545   4.416   1.368  0.00  0.00    +0.137 A 
ATOM     30  C   UNL     1      -1.748   4.332   1.964  0.00  0.00    +0.047 A 
ATOM     31  C   UNL     1      -1.697   5.160   3.108  0.00  0.00    +0.041 A 
ATOM     32  C   UNL     1      -0.466   5.700   3.144  0.00  0.00    +0.195 A 
ATOM     33  O   UNL     1       0.230   5.241   2.090  0.00  0.00    -0.465 OA
ENDBRANCH  23  29
ENDBRANCH  19  20
ENDBRANCH   4  19
TORSDOF 4
