REMARK  Name = ZINC61365456
REMARK  3 active torsions:
REMARK  status: ('A' for Active; 'I' for Inactive)
REMARK    1  A    between atoms: C_6  and  N_11
REMARK    2  A    between atoms: N_11  and  S_12
REMARK    3  A    between atoms: S_12  and  C_15
REMARK                            x       y       z     vdW  Elec       q    Type
REMARK                         _______ _______ _______ _____ _____    ______ ____
ROOT
ATOM      1  N   UNL     1      -2.262  -0.247  -0.908  0.00  0.00    -0.182 NA
ATOM      2  H   UNL     1      -1.985   0.188  -1.730  0.00  0.00    +0.149 HD
ENDROOT
BRANCH   1   8
ATOM      3  C   UNL     1      -0.239   1.641   0.053  0.00  0.00    +0.013 A 
ATOM      4  C   UNL     1       0.847   2.447   0.079  0.00  0.00    +0.046 A 
ATOM      5  S   UNL     1       2.183   1.262   0.138  0.00  0.00    -0.101 S 
ATOM      6  C   UNL     1       1.196  -0.210   0.124  0.00  0.00    -0.005 A 
ATOM      7  C   UNL     1      -0.082   0.255   0.075  0.00  0.00    -0.019 A 
ATOM      8  C   UNL     1      -1.255  -0.719   0.046  0.00  0.00    +0.107 C 
ATOM      9  C   UNL     1      -0.743  -2.095  -0.384  0.00  0.00    +0.025 C 
ATOM     10  C   UNL     1       0.434  -2.516   0.500  0.00  0.00    +0.007 C 
ATOM     11  C   UNL     1       1.646  -1.635   0.159  0.00  0.00    +0.043 C 
ENDBRANCH   1   8
BRANCH   1  12
ATOM     12  S   UNL     1      -3.872  -0.457  -0.584  0.00  0.00    +0.067 S 
ATOM     13  O   UNL     1      -4.584   0.129  -1.666  0.00  0.00    -0.152 OA
ATOM     14  O   UNL     1      -4.038  -1.818  -0.212  0.00  0.00    -0.152 OA
BRANCH  12  15
ATOM     15  C   UNL     1      -4.246   0.505   0.844  0.00  0.00    +0.163 A 
ATOM     16  C   UNL     1      -4.735   1.768   0.934  0.00  0.00    +0.149 A 
ATOM     17  N   UNL     1      -4.924   2.250   2.147  0.00  0.00    -0.234 NA
ATOM     18  C   UNL     1      -4.651   1.539   3.213  0.00  0.00    +0.169 A 
ATOM     19  S   UNL     1      -4.094   0.085   2.573  0.00  0.00    -0.036 S 
ATOM     20 CL   UNL     1      -4.826   1.985   4.882  0.00  0.00    -0.054 Cl
ENDBRANCH  12  15
ENDBRANCH   1  12
TORSDOF 3
