REMARK  Name = ZINC05024340
REMARK  4 active torsions:
REMARK  status: ('A' for Active; 'I' for Inactive)
REMARK    1  A    between atoms: C_3  and  C_7
REMARK    2  A    between atoms: C_10  and  C_21
REMARK    3  A    between atoms: C_16  and  N_20
REMARK    4  A    between atoms: C_17  and  C_18
REMARK                            x       y       z     vdW  Elec       q    Type
REMARK                         _______ _______ _______ _____ _____    ______ ____
ROOT
ATOM      1  C   UNL     1       3.696   2.049  -0.023  0.00  0.00    +0.103 C 
ATOM      2  C   UNL     1       4.472   1.655  -1.253  0.00  0.00    +0.058 A 
ATOM      3  C   UNL     1       4.261   2.014  -2.578  0.00  0.00    +0.173 A 
ATOM      4  N   UNL     1       5.183   1.434  -3.309  0.00  0.00    -0.167 NA
ATOM      5  N   UNL     1       6.013   0.682  -2.462  0.00  0.00    -0.246 N 
ATOM      6  H   UNL     1       6.777   0.151  -2.735  0.00  0.00    +0.192 HD
ATOM      7  C   UNL     1       5.562   0.831  -1.206  0.00  0.00    +0.223 A 
ATOM      8  O   UNL     1       6.033   0.306  -0.048  0.00  0.00    -0.423 OA
ATOM      9  C   UNL     1       5.572   0.827   1.107  0.00  0.00    +0.200 C 
ATOM     10  C   UNL     1       4.497   1.643   1.190  0.00  0.00    +0.098 C 
ENDROOT
BRANCH   1  13
ATOM     11  C   UNL     1      -0.017   1.378   0.010  0.00  0.00    +0.020 A 
ATOM     12  C   UNL     1       1.185   2.070   0.002  0.00  0.00    +0.007 A 
ATOM     13  C   UNL     1       2.365   1.343  -0.013  0.00  0.00    -0.016 A 
ATOM     14  C   UNL     1       2.305  -0.038  -0.020  0.00  0.00    +0.115 A 
ATOM     15  N   UNL     1       1.144  -0.663  -0.013  0.00  0.00    -0.263 NA
ATOM     16  C   UNL     1       0.002  -0.004   0.002  0.00  0.00    +0.111 A 
ENDBRANCH   1  13
BRANCH   3  17
ATOM     17  C   UNL     1       3.165   2.914  -3.087  0.00  0.00    +0.436 C 
ATOM     18  F   UNL     1       3.611   4.240  -3.085  0.00  0.00    -0.164 F 
ATOM     19  F   UNL     1       2.821   2.539  -4.390  0.00  0.00    -0.164 F 
ATOM     20  F   UNL     1       2.044   2.799  -2.257  0.00  0.00    -0.164 F 
ENDBRANCH   3  17
BRANCH   9  21
ATOM     21  N   UNL     1       6.233   0.510   2.268  0.00  0.00    -0.328 N 
ATOM     22  H   UNL     1       7.008  -0.073   2.242  0.00  0.00    +0.145 HD
ATOM     23  H   UNL     1       5.925   0.870   3.115  0.00  0.00    +0.145 HD
ENDBRANCH   9  21
BRANCH  10  24
ATOM     24  C   UNL     1       4.103   2.139   2.474  0.00  0.00    +0.101 C 
ATOM     25  N   UNL     1       3.791   2.533   3.492  0.00  0.00    -0.191 NA
ENDBRANCH  10  24
TORSDOF 4
