REMARK  Name = ZINC09479207
REMARK  8 active torsions:
REMARK  status: ('A' for Active; 'I' for Inactive)
REMARK    1  A    between atoms: C_1  and  C_2
REMARK    2  A    between atoms: C_2  and  C_17
REMARK    3  A    between atoms: N_5  and  C_9
REMARK    4  A    between atoms: C_9  and  C_10
REMARK    5  A    between atoms: N_12  and  C_13
REMARK    6  A    between atoms: C_13  and  C_14
REMARK    7  A    between atoms: C_13  and  C_15
REMARK    8  A    between atoms: C_13  and  C_16
REMARK                            x       y       z     vdW  Elec       q    Type
REMARK                         _______ _______ _______ _____ _____    ______ ____
ROOT
ATOM      1  C   UNL     1      -1.292   1.740   4.527  0.00  0.00    +0.050 C 
ATOM      2  C   UNL     1      -1.179   2.690   3.333  0.00  0.00    +0.168 C 
ATOM      3  C   UNL     1      -0.088   2.229   2.387  0.00  0.00    +0.254 C 
ATOM      4  O   UNL     1       1.094   2.114   2.633  0.00  0.00    -0.272 OA
ATOM      5  N   UNL     1      -0.704   1.975   1.216  0.00  0.00    -0.215 N 
ATOM      6  C   UNL     1      -2.019   2.213   1.288  0.00  0.00    +0.310 C 
ATOM      7  O   UNL     1      -2.785   2.061   0.357  0.00  0.00    -0.252 OA
ATOM      8  N   UNL     1      -2.398   2.636   2.507  0.00  0.00    -0.279 N 
ATOM      9  H   UNL     1      -3.298   2.865   2.787  0.00  0.00    +0.152 HD
ENDROOT
BRANCH   2  10
ATOM     10  C   UNL     1      -0.916   4.098   3.800  0.00  0.00    +0.138 A 
ATOM     11  C   UNL     1      -1.864   4.986   4.130  0.00  0.00    +0.056 A 
ATOM     12  C   UNL     1      -1.158   6.211   4.524  0.00  0.00    +0.020 A 
ATOM     13  C   UNL     1      -1.562   7.470   4.966  0.00  0.00    +0.011 A 
ATOM     14  C   UNL     1      -0.623   8.421   5.253  0.00  0.00    +0.001 A 
ATOM     15  C   UNL     1       0.728   8.141   5.107  0.00  0.00    +0.004 A 
ATOM     16  C   UNL     1       1.147   6.902   4.672  0.00  0.00    +0.047 A 
ATOM     17  C   UNL     1       0.208   5.921   4.375  0.00  0.00    +0.135 A 
ATOM     18  O   UNL     1       0.302   4.648   3.941  0.00  0.00    -0.457 OA
ENDBRANCH   2  10
BRANCH   5  19
ATOM     19  C   UNL     1      -0.018   1.503   0.010  0.00  0.00    +0.213 C 
BRANCH  19  20
ATOM     20  C   UNL     1       0.002  -0.004   0.002  0.00  0.00    +0.231 C 
ATOM     21  O   UNL     1      -0.506  -0.622   0.913  0.00  0.00    -0.274 OA
ATOM     22  N   UNL     1       0.585  -0.664  -1.018  0.00  0.00    -0.309 N 
ATOM     23  H   UNL     1       0.992  -0.170  -1.747  0.00  0.00    +0.149 HD
BRANCH  22  24
ATOM     24  C   UNL     1       0.605  -2.129  -1.026  0.00  0.00    +0.026 C 
ATOM     25  C   UNL     1      -0.830  -2.659  -1.015  0.00  0.00    +0.031 C 
ATOM     26  C   UNL     1       1.321  -2.623  -2.285  0.00  0.00    +0.031 C 
ATOM     27  C   UNL     1       1.345  -2.636   0.213  0.00  0.00    +0.031 C 
ENDBRANCH  22  24
ENDBRANCH  19  20
ENDBRANCH   5  19
TORSDOF 4
