REMARK  Name = ZINC46914463
REMARK  11 active torsions:
REMARK  status: ('A' for Active; 'I' for Inactive)
REMARK    1  A    between atoms: C_1  and  C_2
REMARK    2  A    between atoms: C_2  and  C_3
REMARK    3  A    between atoms: C_6  and  N_9
REMARK    4  A    between atoms: C_10  and  C_12
REMARK    5  A    between atoms: C_12  and  N_13
REMARK    6  A    between atoms: C_14  and  N_32
REMARK    7  A    between atoms: C_15  and  C_20
REMARK    8  A    between atoms: C_16  and  S_18
REMARK    9  A    between atoms: S_18  and  C_19
REMARK   10  A    between atoms: C_22  and  C_25
REMARK   11  A    between atoms: C_28  and  C_31
REMARK                            x       y       z     vdW  Elec       q    Type
REMARK                         _______ _______ _______ _____ _____    ______ ____
ROOT
ATOM      1  N   UNL     1       6.157  -2.386  -5.698  0.00  0.00    -0.240 N 
ATOM      2  C   UNL     1       7.020  -1.357  -5.824  0.00  0.00    +0.129 A 
ATOM      3  C   UNL     1       8.284  -1.835  -5.496  0.00  0.00    +0.112 A 
ATOM      4  C   UNL     1       8.135  -3.207  -5.166  0.00  0.00    +0.133 A 
ATOM      5  N   UNL     1       6.868  -3.517  -5.285  0.00  0.00    -0.162 NA
ENDROOT
BRANCH   3   6
ATOM      6  C   UNL     1       9.537  -1.066  -5.491  0.00  0.00    +0.265 A 
ATOM      7  N   UNL     1      10.729  -1.533  -5.183  0.00  0.00    -0.187 NA
ATOM      8  C   UNL     1      11.642  -0.555  -5.286  0.00  0.00    +0.202 A 
ATOM      9  N   UNL     1      11.042   0.548  -5.662  0.00  0.00    -0.056 NA
ATOM     10  O   UNL     1       9.665   0.236  -5.808  0.00  0.00    -0.332 OA
BRANCH   8  11
ATOM     11  C   UNL     1      13.095  -0.700  -5.017  0.00  0.00    +0.022 A 
ATOM     12  C   UNL     1      13.614  -1.932  -4.627  0.00  0.00    +0.012 A 
ATOM     13  C   UNL     1      14.966  -2.060  -4.379  0.00  0.00    +0.004 A 
ATOM     14  C   UNL     1      15.804  -0.969  -4.517  0.00  0.00    -0.050 A 
ATOM     15  C   UNL     1      15.293   0.257  -4.904  0.00  0.00    +0.004 A 
ATOM     16  C   UNL     1      13.944   0.396  -5.160  0.00  0.00    +0.012 A 
ATOM     17  C   UNL     1      17.279  -1.115  -4.244  0.00  0.00    +0.044 C 
ENDBRANCH   8  11
ENDBRANCH   3   6
BRANCH   2  18
ATOM     18  N   UNL     1       6.707  -0.066  -6.208  0.00  0.00    -0.343 N 
ATOM     19  H   UNL     1       5.789   0.169  -6.418  0.00  0.00    +0.144 HD
ATOM     20  H   UNL     1       7.405   0.605  -6.269  0.00  0.00    +0.144 HD
ENDBRANCH   2  18
BRANCH   4  21
ATOM     21  S   UNL     1       9.427  -4.301  -4.675  0.00  0.00    -0.107 S 
ATOM     22  C   UNL     1       8.582  -5.883  -4.403  0.00  0.00    +0.091 C 
ENDBRANCH   4  21
BRANCH   1  23
ATOM     23  C   UNL     1       4.715  -2.327  -5.947  0.00  0.00    +0.241 C 
BRANCH  23  25
ATOM     24  N   UNL     1       2.657  -1.834  -4.665  0.00  0.00    -0.284 N 
ATOM     25  C   UNL     1       4.000  -1.949  -4.676  0.00  0.00    +0.239 C 
ATOM     26  O   UNL     1       4.634  -1.749  -3.661  0.00  0.00    -0.273 OA
ATOM     27  H   UNL     1       2.145  -2.067  -5.455  0.00  0.00    +0.155 HD
BRANCH  24  31
ATOM     28  C   UNL     1       0.708  -0.471  -1.245  0.00  0.00    -0.048 A 
ATOM     29  C   UNL     1       1.965   0.011  -1.561  0.00  0.00    +0.005 A 
ATOM     30  C   UNL     1       2.614  -0.438  -2.695  0.00  0.00    +0.023 A 
ATOM     31  C   UNL     1       2.003  -1.377  -3.516  0.00  0.00    +0.033 A 
ATOM     32  C   UNL     1       0.741  -1.860  -3.195  0.00  0.00    +0.023 A 
ATOM     33  C   UNL     1       0.100  -1.410  -2.058  0.00  0.00    +0.005 A 
BRANCH  28  35
ATOM     34  C   UNL     1       0.372  -0.872   1.179  0.00  0.00    +0.009 C 
ATOM     35  C   UNL     1       0.003   0.021  -0.007  0.00  0.00    +0.032 C 
ENDBRANCH  28  35
ENDBRANCH  24  31
ENDBRANCH  23  25
ENDBRANCH   1  23
TORSDOF 8
