REMARK  Name = ZINC44737214
REMARK  7 active torsions:
REMARK  status: ('A' for Active; 'I' for Inactive)
REMARK    1  A    between atoms: C_1  and  C_2
REMARK    2  A    between atoms: C_2  and  C_3
REMARK    3  A    between atoms: C_7  and  C_16
REMARK    4  A    between atoms: N_18  and  C_19
REMARK    5  A    between atoms: C_19  and  C_21
REMARK    6  A    between atoms: C_19  and  C_22
REMARK    7  A    between atoms: C_27  and  C_31
REMARK                            x       y       z     vdW  Elec       q    Type
REMARK                         _______ _______ _______ _____ _____    ______ ____
ROOT
ATOM      1  C   UNL     1       0.195  -5.377  -1.122  0.00  0.00    +0.219 C 
ATOM      2  O   UNL     1       1.227  -5.576  -0.517  0.00  0.00    -0.275 OA
ATOM      3  N   UNL     1      -0.656  -6.396  -1.355  0.00  0.00    -0.305 N 
ATOM      4  H   UNL     1      -1.482  -6.238  -1.839  0.00  0.00    +0.149 HD
ENDROOT
BRANCH   1   9
ATOM      5  C   UNL     1       0.809  -0.506  -1.351  0.00  0.00    +0.215 C 
ATOM      6  O   UNL     1       1.216   0.270  -2.189  0.00  0.00    -0.276 OA
ATOM      7  N   UNL     1       0.903  -1.834  -1.559  0.00  0.00    -0.300 N 
ATOM      8  C   UNL     1       0.460  -2.928  -0.664  0.00  0.00    +0.121 C 
ATOM      9  C   UNL     1      -0.137  -3.992  -1.612  0.00  0.00    +0.100 C 
ATOM     10  C   UNL     1       0.534  -3.727  -2.970  0.00  0.00    -0.004 C 
ATOM     11  C   UNL     1       1.469  -2.530  -2.740  0.00  0.00    +0.115 C 
ATOM     12  C   UNL     1      -0.516  -3.373  -4.019  0.00  0.00    -0.010 C 
ATOM     13  C   UNL     1       0.169  -3.170  -5.373  0.00  0.00    -0.082 C 
ATOM     14  N   UNL     1       0.876  -4.399  -5.755  0.00  0.00    +0.379 N 
ATOM     15  C   UNL     1       1.946  -4.681  -4.790  0.00  0.00    -0.082 C 
ATOM     16  C   UNL     1       1.336  -4.947  -3.411  0.00  0.00    -0.010 C 
ATOM     17  H   UNL     1       0.226  -5.170  -5.768  0.00  0.00    -0.086 HD
ATOM     18  H   UNL     1       1.276  -4.284  -6.674  0.00  0.00    -0.086 HD
BRANCH   5  20
ATOM     19  C   UNL     1       0.211   1.545  -0.091  0.00  0.00    +0.013 C 
ATOM     20  C   UNL     1       0.197   0.015  -0.076  0.00  0.00    +0.092 C 
ENDBRANCH   5  20
ENDBRANCH   1   9
BRANCH   3  21
ATOM     21  C   UNL     1      -0.334  -7.744  -0.878  0.00  0.00    +0.136 C 
ATOM     22  C   UNL     1       0.559  -8.447  -1.903  0.00  0.00    +0.036 C 
BRANCH  21  23
ATOM     23  C   UNL     1      -1.606  -8.530  -0.696  0.00  0.00    +0.128 A 
ATOM     24  N   UNL     1      -2.720  -8.302  -1.329  0.00  0.00    -0.231 NA
ATOM     25  C   UNL     1      -3.663  -9.193  -0.927  0.00  0.00    +0.089 A 
ATOM     26  C   UNL     1      -5.002  -9.400  -1.271  0.00  0.00    +0.030 A 
ATOM     27  C   UNL     1      -5.709 -10.406  -0.678  0.00  0.00    +0.005 A 
ATOM     28  C   UNL     1      -5.113 -11.229   0.267  0.00  0.00    -0.048 A 
ATOM     29  C   UNL     1      -3.794 -11.043   0.622  0.00  0.00    +0.031 A 
ATOM     30  C   UNL     1      -3.059 -10.026   0.029  0.00  0.00    +0.067 A 
ATOM     31  N   UNL     1      -1.756  -9.585   0.149  0.00  0.00    -0.340 N 
ATOM     32  C   UNL     1      -5.913 -12.332   0.910  0.00  0.00    +0.044 C 
ATOM     33  H   UNL     1      -1.074  -9.957   0.730  0.00  0.00    +0.167 HD
ENDBRANCH  21  23
ENDBRANCH   3  21
TORSDOF 4
