REMARK  Name = ZINC39276607
REMARK  1 active torsions:
REMARK  status: ('A' for Active; 'I' for Inactive)
REMARK    1  A    between atoms: C_1  and  C_2
REMARK                            x       y       z     vdW  Elec       q    Type
REMARK                         _______ _______ _______ _____ _____    ______ ____
ROOT
ATOM      1  C   UNL     1      -0.018   1.503   0.010  0.00  0.00    +0.068 C 
ATOM      2  C   UNL     1       0.002  -0.004   0.002  0.00  0.00    +0.069 C 
ATOM      3  C   UNL     1      -1.075  -0.785   0.003  0.00  0.00    +0.044 C 
ATOM      4  C   UNL     1      -0.527  -2.190  -0.251  0.00  0.00    +0.163 C 
ATOM      5  C   UNL     1      -1.141  -3.076   0.834  0.00  0.00    +0.034 C 
ATOM      6  C   UNL     1      -2.667  -2.984   0.740  0.00  0.00    +0.010 C 
ATOM      7  C   UNL     1      -3.175  -1.588   1.104  0.00  0.00    +0.079 C 
ATOM      8  C   UNL     1      -2.504  -0.565   0.213  0.00  0.00    +0.163 C 
ATOM      9  O   UNL     1      -3.115   0.349  -0.300  0.00  0.00    -0.292 OA
ATOM     10  N   UNL     1       0.914  -1.988  -0.113  0.00  0.00    -0.179 NA
ATOM     11  N   UNL     1       1.123  -0.771  -0.013  0.00  0.00    -0.158 NA
ENDROOT
TORSDOF 0
