REMARK  Name = ZINC20150730
REMARK  10 active torsions:
REMARK  status: ('A' for Active; 'I' for Inactive)
REMARK    1  A    between atoms: C_1  and  C_2
REMARK    2  A    between atoms: C_2  and  C_3
REMARK    3  A    between atoms: C_3  and  C_4
REMARK    4  A    between atoms: C_4  and  C_34
REMARK    5  A    between atoms: C_9  and  C_12
REMARK    6  A    between atoms: C_15  and  O_18
REMARK    7  A    between atoms: N_21  and  C_24
REMARK    8  A    between atoms: C_34  and  O_36
REMARK    9  A    between atoms: O_36  and  C_37
REMARK   10  A    between atoms: C_37  and  C_38
REMARK                            x       y       z     vdW  Elec       q    Type
REMARK                         _______ _______ _______ _____ _____    ______ ____
ROOT
ATOM      1  C   UNL     1       0.739  -2.027  -1.265  0.00  0.00    +0.129 C 
ATOM      2  C   UNL     1       1.339  -2.551  -2.566  0.00  0.00    +0.120 C 
ATOM      3  C   UNL     1       0.778  -4.020  -2.463  0.00  0.00    +0.111 C 
ATOM      4  C   UNL     1      -0.641  -3.822  -2.141  0.00  0.00    +0.097 C 
ATOM      5  N   UNL     1      -0.656  -2.576  -1.290  0.00  0.00    -0.293 NA
ATOM      6  C   UNL     1       1.610  -4.725  -3.408  0.00  0.00    +0.232 C 
ATOM      7  O   UNL     1       1.297  -5.661  -4.113  0.00  0.00    -0.274 OA
ATOM      8  N   UNL     1       2.833  -4.106  -3.335  0.00  0.00    -0.210 N 
ATOM      9  C   UNL     1       2.791  -2.903  -2.660  0.00  0.00    +0.232 C 
ATOM     10  O   UNL     1       3.725  -2.264  -2.227  0.00  0.00    -0.274 OA
ATOM     11  H   UNL     1      -0.985  -2.771  -0.357  0.00  0.00    +0.124 HD
ENDROOT
BRANCH   8  12
ATOM     12  C   UNL     1       4.006  -4.633  -3.897  0.00  0.00    +0.048 A 
ATOM     13  C   UNL     1       5.205  -3.946  -3.773  0.00  0.00    +0.028 A 
ATOM     14  C   UNL     1       6.359  -4.463  -4.328  0.00  0.00    +0.051 A 
ATOM     15  C   UNL     1       6.324  -5.670  -5.010  0.00  0.00    +0.162 A 
ATOM     16  C   UNL     1       5.125  -6.362  -5.134  0.00  0.00    +0.164 A 
ATOM     17  C   UNL     1       3.967  -5.844  -4.574  0.00  0.00    +0.073 A 
ATOM     18  O   UNL     1       5.072  -7.552  -5.793  0.00  0.00    -0.485 OA
ATOM     19  C   UNL     1       6.172  -7.860  -6.656  0.00  0.00    +0.270 C 
ATOM     20  C   UNL     1       7.474  -7.551  -5.903  0.00  0.00    +0.270 C 
ATOM     21  O   UNL     1       7.471  -6.163  -5.554  0.00  0.00    -0.485 OA
ENDBRANCH   8  12
BRANCH   4  22
ATOM     22  C   UNL     1      -1.446  -3.637  -3.402  0.00  0.00    -0.029 A 
ATOM     23  C   UNL     1      -1.460  -2.409  -4.037  0.00  0.00    +0.009 A 
ATOM     24  C   UNL     1      -2.198  -2.237  -5.193  0.00  0.00    +0.046 A 
ATOM     25  C   UNL     1      -2.923  -3.298  -5.716  0.00  0.00    +0.117 A 
ATOM     26  C   UNL     1      -2.906  -4.529  -5.077  0.00  0.00    +0.046 A 
ATOM     27  C   UNL     1      -2.163  -4.697  -3.924  0.00  0.00    +0.009 A 
BRANCH  25  28
ATOM     28  O   UNL     1      -3.649  -3.131  -6.852  0.00  0.00    -0.507 OA
ATOM     29  H   UNL     1      -3.160  -3.323  -7.664  0.00  0.00    +0.292 HD
ENDBRANCH  25  28
ENDBRANCH   4  22
BRANCH   1  30
ATOM     30  C   UNL     1       1.497  -2.554  -0.074  0.00  0.00    +0.328 C 
ATOM     31  O   UNL     1       2.664  -2.848  -0.182  0.00  0.00    -0.249 OA
BRANCH  30  32
ATOM     32  O   UNL     1       0.876  -2.697   1.107  0.00  0.00    -0.464 OA
BRANCH  32  33
ATOM     33  C   UNL     1       1.655  -3.203   2.193  0.00  0.00    +0.229 C 
ATOM     34  C   UNL     1       0.783  -3.296   3.447  0.00  0.00    +0.048 C 
ENDBRANCH  32  33
ENDBRANCH  30  32
ENDBRANCH   1  30
BRANCH   1  35
ATOM     35  C   UNL     1       0.718  -0.497  -1.257  0.00  0.00    +0.034 C 
BRANCH  35  37
ATOM     36  C   UNL     1      -0.019   1.526   0.010  0.00  0.00    +0.004 C 
ATOM     37  C   UNL     1       0.002  -0.004   0.002  0.00  0.00    -0.001 C 
ENDBRANCH  35  37
ENDBRANCH   1  35
TORSDOF 8
