REMARK  Name = ZINC42937455
REMARK  8 active torsions:
REMARK  status: ('A' for Active; 'I' for Inactive)
REMARK    1  A    between atoms: C_4  and  O_7
REMARK    2  A    between atoms: O_7  and  C_8
REMARK    3  A    between atoms: C_12  and  C_14
REMARK    4  A    between atoms: C_14  and  C_16
REMARK    5  A    between atoms: C_14  and  N_26
REMARK    6  A    between atoms: C_16  and  C_17
REMARK    7  A    between atoms: N_19  and  C_20
REMARK    8  A    between atoms: C_20  and  C_21
REMARK                            x       y       z     vdW  Elec       q    Type
REMARK                         _______ _______ _______ _____ _____    ______ ____
ROOT
ATOM      1  C   UNL     1       6.296  -4.681   0.144  0.00  0.00    +0.113 C 
ENDROOT
BRANCH   1   2
ATOM      2  N   UNL     1       6.335  -5.790  -0.813  0.00  0.00    -0.292 N 
ATOM      3  C   UNL     1       6.563  -5.546  -2.118  0.00  0.00    +0.298 C 
ATOM      4  O   UNL     1       6.832  -4.419  -2.488  0.00  0.00    -0.253 OA
ATOM      5  N   UNL     1       6.492  -6.550  -3.014  0.00  0.00    -0.313 N 
ATOM      6  H   UNL     1       6.196  -6.700  -0.506  0.00  0.00    +0.151 HD
ATOM      7  H   UNL     1       6.277  -7.449  -2.719  0.00  0.00    +0.146 HD
ATOM      8  H   UNL     1       6.656  -6.375  -3.954  0.00  0.00    +0.146 HD
ENDBRANCH   1   2
BRANCH   1  13
ATOM      9  C   UNL     1       3.566  -2.070   0.051  0.00  0.00    +0.129 A 
ATOM     10  C   UNL     1       2.428  -2.863   0.058  0.00  0.00    +0.046 A 
ATOM     11  C   UNL     1       2.546  -4.239   0.091  0.00  0.00    +0.004 A 
ATOM     12  C   UNL     1       3.798  -4.826   0.119  0.00  0.00    +0.006 A 
ATOM     13  C   UNL     1       4.934  -4.038   0.113  0.00  0.00    -0.023 A 
ATOM     14  C   UNL     1       4.821  -2.662   0.073  0.00  0.00    +0.051 A 
BRANCH   9  15
ATOM     15  O   UNL     1       3.452  -0.716   0.018  0.00  0.00    -0.456 OA
BRANCH  15  19
ATOM     16  C   UNL     1       2.542   1.238   3.535  0.00  0.00    +0.000 A 
ATOM     17  C   UNL     1       2.590  -0.143   3.506  0.00  0.00    +0.004 A 
ATOM     18  C   UNL     1       2.895  -0.800   2.329  0.00  0.00    +0.046 A 
ATOM     19  C   UNL     1       3.152  -0.073   1.176  0.00  0.00    +0.128 A 
ATOM     20  C   UNL     1       3.103   1.314   1.208  0.00  0.00    +0.046 A 
ATOM     21  C   UNL     1       2.798   1.966   2.387  0.00  0.00    +0.004 A 
ENDBRANCH  15  19
ENDBRANCH   9  15
ENDBRANCH   1  13
BRANCH   1  22
ATOM     22  C   UNL     1       6.578  -5.212   1.551  0.00  0.00    +0.123 C 
BRANCH  22  23
ATOM     23  C   UNL     1       7.986  -5.744   1.615  0.00  0.00    +0.215 C 
ATOM     24  O   UNL     1       8.695  -5.704   0.631  0.00  0.00    -0.276 OA
ATOM     25  N   UNL     1       8.459  -6.266   2.764  0.00  0.00    -0.311 N 
ATOM     26  H   UNL     1       7.892  -6.298   3.551  0.00  0.00    +0.149 HD
BRANCH  25  27
ATOM     27  C   UNL     1       9.828  -6.784   2.826  0.00  0.00    +0.140 C 
BRANCH  27  28
ATOM     28  C   UNL     1      10.105  -7.306   4.212  0.00  0.00    -0.023 A 
ATOM     29  C   UNL     1      10.622  -6.472   5.185  0.00  0.00    +0.013 A 
ATOM     30  C   UNL     1      10.860  -6.974   6.422  0.00  0.00    +0.045 A 
ATOM     31  S   UNL     1      10.349  -8.674   6.235  0.00  0.00    -0.105 S 
ATOM     32  C   UNL     1       9.847  -8.600   4.524  0.00  0.00    +0.050 A 
ENDBRANCH  27  28
ENDBRANCH  25  27
ENDBRANCH  22  23
ENDBRANCH   1  22
TORSDOF 8
