REMARK  Name = ZINC28905449
REMARK  10 active torsions:
REMARK  status: ('A' for Active; 'I' for Inactive)
REMARK    1  A    between atoms: C_1  and  C_2
REMARK    2  A    between atoms: C_5  and  C_27
REMARK    3  A    between atoms: N_8  and  C_10
REMARK    4  A    between atoms: C_10  and  C_11
REMARK    5  A    between atoms: C_11  and  C_13
REMARK    6  A    between atoms: C_14  and  N_26
REMARK    7  A    between atoms: N_15  and  C_22
REMARK    8  A    between atoms: C_22  and  C_23
REMARK    9  A    between atoms: C_23  and  C_24
REMARK   10  A    between atoms: C_23  and  C_25
REMARK                            x       y       z     vdW  Elec       q    Type
REMARK                         _______ _______ _______ _____ _____    ______ ____
ROOT
ATOM      1  C   UNL     1       1.165   3.020   0.024  0.00  0.00    +0.118 A 
ATOM      2  C   UNL     1      -0.044   3.738   0.044  0.00  0.00    +0.116 A 
ATOM      3  N   UNL     1      -1.222   3.048   0.034  0.00  0.00    -0.281 N 
ATOM      4  C   UNL     1      -1.245   1.706   0.001  0.00  0.00    +0.331 A 
ATOM      5  O   UNL     1      -2.320   1.139  -0.013  0.00  0.00    -0.246 OA
ATOM      6  N   UNL     1      -0.124   0.968  -0.014  0.00  0.00    -0.274 N 
ATOM      7  H   UNL     1      -0.189  -0.130  -0.032  0.00  0.00    +0.173 HD
ATOM      8  C   UNL     1       1.091   1.554  -0.006  0.00  0.00    +0.266 A 
ATOM      9  O   UNL     1       2.106   0.881  -0.024  0.00  0.00    -0.267 OA
ENDROOT
BRANCH   2  10
ATOM     10  N   UNL     1      -0.039   5.098   0.073  0.00  0.00    -0.344 N 
ATOM     11  H   UNL     1      -0.990   5.651   0.088  0.00  0.00    +0.144 HD
ATOM     12  H   UNL     1       0.915   5.645   0.081  0.00  0.00    +0.144 HD
ENDBRANCH   2  10
BRANCH   1  13
ATOM     13  C   UNL     1       2.408   3.687   0.033  0.00  0.00    +0.155 C 
ATOM     14  O   UNL     1       2.448   4.898  -0.049  0.00  0.00    -0.294 OA
BRANCH  13  15
ATOM     15  C   UNL     1       3.687   2.897   0.144  0.00  0.00    +0.002 C 
BRANCH  15  21
ATOM     16  C   UNL     1       6.193   6.238  -2.453  0.00  0.00    +0.005 C 
ATOM     17  C   UNL     1       6.058   5.546  -1.095  0.00  0.00    -0.031 C 
ATOM     18  C   UNL     1       7.380   4.861  -0.737  0.00  0.00    +0.003 C 
ATOM     19  C   UNL     1       7.219   4.121   0.593  0.00  0.00    -0.031 C 
ATOM     20  C   UNL     1       6.075   3.111   0.474  0.00  0.00    -0.075 C 
ATOM     21  N   UNL     1       4.833   3.815   0.131  0.00  0.00    +0.385 N 
ATOM     22  C   UNL     1       4.948   4.495  -1.165  0.00  0.00    -0.075 C 
ATOM     23  C   UNL     1       6.900   5.126   1.702  0.00  0.00    +0.005 C 
ATOM     24  H   UNL     1       4.661   4.584   0.899  0.00  0.00    -0.081 HD
ENDBRANCH  15  21
ENDBRANCH  13  15
ENDBRANCH   1  13
BRANCH   3  25
ATOM     25  C   UNL     1      -2.487   3.787   0.054  0.00  0.00    +0.131 C 
BRANCH  25  26
ATOM     26  C   UNL     1      -2.933   4.074  -1.382  0.00  0.00    +0.003 C 
ATOM     27  C   UNL     1      -3.245   2.755  -2.092  0.00  0.00    +0.009 C 
ATOM     28  C   UNL     1      -4.186   4.952  -1.361  0.00  0.00    +0.009 C 
ENDBRANCH  25  26
ENDBRANCH   3  25
TORSDOF 6
