REMARK  Name = ZINC19419218
REMARK  5 active torsions:
REMARK  status: ('A' for Active; 'I' for Inactive)
REMARK    1  A    between atoms: C_3  and  N_25
REMARK    2  A    between atoms: C_6  and  C_7
REMARK    3  A    between atoms: C_11  and  C_12
REMARK    4  A    between atoms: C_16  and  N_18
REMARK    5  A    between atoms: C_26  and  C_28
REMARK                            x       y       z     vdW  Elec       q    Type
REMARK                         _______ _______ _______ _____ _____    ______ ____
ROOT
ATOM      1  C   UNL     1      -1.129  -0.825   0.592  0.00  0.00    +0.296 C 
ATOM      2  N   UNL     1      -0.970  -2.130  -0.060  0.00  0.00    -0.300 N 
ATOM      3  C   UNL     1      -1.605  -3.067   0.764  0.00  0.00    +0.116 C 
ATOM      4  C   UNL     1      -1.697  -4.398   0.538  0.00  0.00    +0.038 C 
ATOM      5  C   UNL     1      -2.153  -2.344   1.918  0.00  0.00    +0.355 C 
ATOM      6  O   UNL     1      -2.770  -2.847   2.837  0.00  0.00    -0.243 OA
ATOM      7  O   UNL     1      -1.865  -1.032   1.798  0.00  0.00    -0.434 OA
ATOM      8  H   UNL     1      -0.514  -2.309  -0.897  0.00  0.00    +0.150 HD
ENDROOT
BRANCH   4   9
ATOM      9  C   UNL     1      -0.956  -5.008  -0.577  0.00  0.00    -0.021 A 
ATOM     10  C   UNL     1       0.210  -4.404  -1.060  0.00  0.00    +0.009 A 
ATOM     11  C   UNL     1       0.899  -4.981  -2.104  0.00  0.00    +0.018 A 
ATOM     12  C   UNL     1       0.440  -6.156  -2.676  0.00  0.00    +0.048 A 
ATOM     13  C   UNL     1      -0.713  -6.760  -2.204  0.00  0.00    +0.141 A 
ATOM     14  C   UNL     1      -1.410  -6.197  -1.156  0.00  0.00    +0.041 A 
ATOM     15 BR   UNL     1       1.393  -6.940  -4.109  0.00  0.00    -0.048 Br
BRANCH  13  16
ATOM     16  N   UNL     1      -1.195  -8.016  -2.821  0.00  0.00    +0.058 N 
ATOM     17  O   UNL     1      -2.201  -8.545  -2.410  0.00  0.00    -0.126 OA
ATOM     18  O   UNL     1      -0.582  -8.513  -3.737  0.00  0.00    -0.126 OA
ENDBRANCH  13  16
ENDBRANCH   4   9
BRANCH   1  24
ATOM     19  C   UNL     1       0.398   1.127   0.938  0.00  0.00    +0.011 A 
ATOM     20  C   UNL     1       1.637   1.662   1.231  0.00  0.00    +0.024 A 
ATOM     21  C   UNL     1       2.709   0.821   1.500  0.00  0.00    +0.034 A 
ATOM     22  C   UNL     1       2.531  -0.556   1.472  0.00  0.00    +0.024 A 
ATOM     23  C   UNL     1       1.290  -1.085   1.179  0.00  0.00    +0.011 A 
ATOM     24  C   UNL     1       0.224  -0.244   0.912  0.00  0.00    +0.011 A 
BRANCH  21  25
ATOM     25  N   UNL     1       3.965   1.360   1.796  0.00  0.00    -0.279 N 
ATOM     26  C   UNL     1       4.058   2.497   2.513  0.00  0.00    +0.287 C 
ATOM     27  O   UNL     1       3.051   3.102   2.828  0.00  0.00    -0.266 OA
ATOM     28  H   UNL     1       4.769   0.915   1.486  0.00  0.00    +0.155 HD
BRANCH  26  29
ATOM     29  C   UNL     1       5.384   3.010   2.916  0.00  0.00    +0.239 A 
ATOM     30  N   UNL     1       5.622   4.105   3.616  0.00  0.00    -0.209 NA
ATOM     31  C   UNL     1       6.940   4.203   3.761  0.00  0.00    +0.247 A 
ATOM     32  N   UNL     1       7.501   3.184   3.159  0.00  0.00    -0.136 NA
ATOM     33  N   UNL     1       6.581   2.443   2.644  0.00  0.00    -0.123 NA
ENDBRANCH  26  29
ENDBRANCH  21  25
ENDBRANCH   1  24
TORSDOF 5
