REMARK  Name = ZINC35367599
REMARK  4 active torsions:
REMARK  status: ('A' for Active; 'I' for Inactive)
REMARK    1  A    between atoms: C_4  and  N_8
REMARK    2  A    between atoms: C_5  and  N_7
REMARK    3  A    between atoms: N_11  and  S_14
REMARK    4  A    between atoms: S_14  and  N_17
REMARK                            x       y       z     vdW  Elec       q    Type
REMARK                         _______ _______ _______ _____ _____    ______ ____
ROOT
ATOM      1  N   UNL     1       3.633  -0.640  -0.037  0.00  0.00    -0.326 N 
ATOM      2  C   UNL     1       4.278  -0.990  -1.311  0.00  0.00    +0.122 C 
ATOM      3  C   UNL     1       5.698  -0.411  -1.317  0.00  0.00    +0.129 C 
ATOM      4  N   UNL     1       6.363  -0.784  -0.061  0.00  0.00    -0.163 NA
ATOM      5  C   UNL     1       5.718  -0.435   1.213  0.00  0.00    +0.129 C 
ATOM      6  C   UNL     1       4.301  -1.009   1.219  0.00  0.00    +0.122 C 
ENDROOT
BRANCH   1  10
ATOM      7  C   UNL     1      -0.017   1.379   0.010  0.00  0.00    +0.002 A 
ATOM      8  C   UNL     1       1.169   2.090   0.002  0.00  0.00    +0.002 A 
ATOM      9  C   UNL     1       2.380   1.423  -0.013  0.00  0.00    +0.025 A 
ATOM     10  C   UNL     1       2.408   0.037  -0.021  0.00  0.00    +0.051 A 
ATOM     11  C   UNL     1       1.212  -0.681  -0.013  0.00  0.00    +0.046 A 
ATOM     12  C   UNL     1       0.002  -0.004   0.002  0.00  0.00    +0.024 A 
BRANCH  11  13
ATOM     13  N   UNL     1       1.234  -2.081  -0.021  0.00  0.00    -0.357 N 
ATOM     14  H   UNL     1       2.081  -2.553  -0.033  0.00  0.00    +0.142 HD
ATOM     15  H   UNL     1       0.401  -2.579  -0.016  0.00  0.00    +0.142 HD
ENDBRANCH  11  13
ENDBRANCH   1  10
BRANCH   4  16
ATOM     16  S   UNL     1       7.812  -1.585  -0.080  0.00  0.00    +0.100 S 
ATOM     17  O   UNL     1       7.911  -2.275   1.158  0.00  0.00    -0.141 OA
ATOM     18  O   UNL     1       7.891  -2.252  -1.333  0.00  0.00    -0.141 OA
BRANCH  16  19
ATOM     19  N   UNL     1       9.006  -0.438  -0.079  0.00  0.00    -0.166 NA
ATOM     20  C   UNL     1       9.609   0.172  -1.273  0.00  0.00    +0.110 C 
ATOM     21  C   UNL     1      10.689   1.161  -0.787  0.00  0.00    +0.018 C 
ATOM     22  C   UNL     1      11.024   0.638   0.635  0.00  0.00    +0.018 C 
ATOM     23  C   UNL     1       9.635   0.147   1.119  0.00  0.00    +0.110 C 
ENDBRANCH  16  19
ENDBRANCH   4  16
TORSDOF 4
