REMARK  Name = ZINC01196783
REMARK  10 active torsions:
REMARK  status: ('A' for Active; 'I' for Inactive)
REMARK    1  A    between atoms: C_1  and  C_2
REMARK    2  A    between atoms: C_2  and  O_3
REMARK    3  A    between atoms: O_3  and  C_4
REMARK    4  A    between atoms: C_4  and  C_6
REMARK    5  A    between atoms: C_6  and  C_28
REMARK    6  A    between atoms: C_7  and  C_22
REMARK    7  A    between atoms: C_13  and  C_15
REMARK    8  A    between atoms: C_18  and  N_21
REMARK    9  A    between atoms: C_28  and  C_30
REMARK   10  A    between atoms: C_33  and  N_36
REMARK                            x       y       z     vdW  Elec       q    Type
REMARK                         _______ _______ _______ _____ _____    ______ ____
ROOT
ATOM      1  C   UNL     1      -1.008   6.467   1.283  0.00  0.00    +0.214 C 
ATOM      2  C   UNL     1       0.348   5.880   0.828  0.00  0.00    +0.070 C 
ATOM      3  C   UNL     1       0.143   5.762  -0.699  0.00  0.00    +0.127 C 
ATOM      4  N   UNL     1      -0.870   6.768  -1.037  0.00  0.00    -0.236 N 
ATOM      5  C   UNL     1      -1.535   7.178   0.057  0.00  0.00    +0.247 C 
ATOM      6  O   UNL     1      -2.428   7.998   0.060  0.00  0.00    -0.273 OA
ATOM      7  C   UNL     1      -1.103   7.224  -2.284  0.00  0.00    +0.253 C 
ATOM      8  O   UNL     1      -1.882   8.140  -2.461  0.00  0.00    -0.270 OA
ENDROOT
BRANCH   7   9
ATOM      9  C   UNL     1      -0.412   6.612  -3.433  0.00  0.00    +0.037 A 
ATOM     10  C   UNL     1       0.314   5.428  -3.265  0.00  0.00    +0.015 A 
ATOM     11  C   UNL     1       0.951   4.858  -4.338  0.00  0.00    +0.023 A 
ATOM     12  C   UNL     1       0.884   5.463  -5.590  0.00  0.00    +0.025 A 
ATOM     13  C   UNL     1       0.167   6.644  -5.760  0.00  0.00    +0.023 A 
ATOM     14  C   UNL     1      -0.476   7.216  -4.693  0.00  0.00    +0.015 A 
BRANCH  12  15
ATOM     15  N   UNL     1       1.537   4.886  -6.674  0.00  0.00    -0.358 N 
ATOM     16  H   UNL     1       1.492   5.306  -7.547  0.00  0.00    +0.142 HD
ATOM     17  H   UNL     1       2.037   4.063  -6.557  0.00  0.00    +0.142 HD
ENDBRANCH  12  15
ENDBRANCH   7   9
BRANCH   2  18
ATOM     18  C   UNL     1       0.585   4.526   1.446  0.00  0.00    -0.041 A 
ATOM     19  C   UNL     1      -0.189   3.446   1.064  0.00  0.00    +0.004 A 
ATOM     20  C   UNL     1       0.029   2.205   1.631  0.00  0.00    +0.000 A 
ATOM     21  C   UNL     1       1.021   2.043   2.580  0.00  0.00    +0.000 A 
ATOM     22  C   UNL     1       1.791   3.123   2.966  0.00  0.00    +0.000 A 
ATOM     23  C   UNL     1       1.576   4.364   2.396  0.00  0.00    +0.004 A 
ENDBRANCH   2  18
BRANCH   1  24
ATOM     24  C   UNL     1      -0.807   7.444   2.413  0.00  0.00    +0.331 C 
ATOM     25  O   UNL     1       0.311   7.753   2.753  0.00  0.00    -0.249 OA
BRANCH  24  26
ATOM     26  O   UNL     1      -1.869   7.970   3.043  0.00  0.00    -0.464 OA
BRANCH  26  28
ATOM     27  C   UNL     1      -2.923   9.394   4.713  0.00  0.00    +0.048 C 
ATOM     28  C   UNL     1      -1.600   8.904   4.122  0.00  0.00    +0.229 C 
ENDBRANCH  26  28
ENDBRANCH  24  26
ENDBRANCH   1  24
BRANCH   1  29
ATOM     29  C   UNL     1      -1.948   5.364   1.698  0.00  0.00    +0.190 C 
ATOM     30  O   UNL     1      -2.809   4.982   0.935  0.00  0.00    -0.290 OA
BRANCH  29  31
ATOM     31  C   UNL     1      -1.820   4.753   3.027  0.00  0.00    +0.019 A 
ATOM     32  C   UNL     1      -0.754   5.108   3.864  0.00  0.00    +0.013 A 
ATOM     33  C   UNL     1      -0.643   4.541   5.101  0.00  0.00    +0.023 A 
ATOM     34  C   UNL     1      -1.581   3.602   5.527  0.00  0.00    +0.025 A 
ATOM     35  C   UNL     1      -2.639   3.243   4.695  0.00  0.00    +0.023 A 
ATOM     36  C   UNL     1      -2.761   3.809   3.458  0.00  0.00    +0.013 A 
BRANCH  34  37
ATOM     37  N   UNL     1      -1.460   3.024   6.784  0.00  0.00    -0.358 N 
ATOM     38  H   UNL     1      -2.113   2.371   7.081  0.00  0.00    +0.142 HD
ATOM     39  H   UNL     1      -0.724   3.273   7.364  0.00  0.00    +0.142 HD
ENDBRANCH  34  37
ENDBRANCH  29  31
ENDBRANCH   1  29
TORSDOF 9
