REMARK  Name = ZINC54314024
REMARK  9 active torsions:
REMARK  status: ('A' for Active; 'I' for Inactive)
REMARK    1  A    between atoms: C_1  and  S_2
REMARK    2  A    between atoms: S_2  and  C_3
REMARK    3  A    between atoms: C_3  and  C_4
REMARK    4  A    between atoms: C_4  and  C_5
REMARK    5  A    between atoms: C_5  and  C_7
REMARK    6  A    between atoms: C_5  and  N_24
REMARK    7  A    between atoms: N_9  and  C_10
REMARK    8  A    between atoms: C_10  and  C_11
REMARK    9  A    between atoms: C_11  and  C_17
REMARK                            x       y       z     vdW  Elec       q    Type
REMARK                         _______ _______ _______ _____ _____    ______ ____
ROOT
ATOM      1  C   UNL     1       1.486  -3.699   2.910  0.00  0.00    +0.233 C 
ATOM      2  O   UNL     1       2.500  -4.285   2.595  0.00  0.00    -0.274 OA
ATOM      3  N   UNL     1       0.469  -4.372   3.483  0.00  0.00    -0.313 N 
ATOM      4  H   UNL     1      -0.342  -3.903   3.735  0.00  0.00    +0.149 HD
ENDROOT
BRANCH   1   5
ATOM      5  C   UNL     1       1.363  -2.218   2.660  0.00  0.00    +0.161 C 
BRANCH   5   6
ATOM      6  N   UNL     1       2.699  -1.639   2.493  0.00  0.00    -0.288 N 
ATOM      7  C   UNL     1       3.501  -2.072   1.500  0.00  0.00    +0.298 C 
ATOM      8  O   UNL     1       3.117  -2.942   0.743  0.00  0.00    -0.253 OA
ATOM      9  N   UNL     1       4.729  -1.539   1.346  0.00  0.00    -0.313 N 
ATOM     10  H   UNL     1       3.005  -0.944   3.096  0.00  0.00    +0.151 HD
ATOM     11  H   UNL     1       5.036  -0.844   1.949  0.00  0.00    +0.146 HD
ATOM     12  H   UNL     1       5.307  -1.850   0.631  0.00  0.00    +0.146 HD
ENDBRANCH   5   6
BRANCH   5  13
ATOM     13  C   UNL     1       0.542  -1.982   1.391  0.00  0.00    +0.042 C 
BRANCH  13  14
ATOM     14  C   UNL     1       0.312  -0.480   1.205  0.00  0.00    +0.071 C 
BRANCH  14  16
ATOM     15  C   UNL     1      -0.845   1.603  -0.374  0.00  0.00    +0.084 C 
ATOM     16  S   UNL     1      -0.662  -0.200  -0.299  0.00  0.00    -0.164 S 
ENDBRANCH  14  16
ENDBRANCH  13  14
ENDBRANCH   5  13
ENDBRANCH   1   5
BRANCH   3  17
ATOM     17  C   UNL     1       0.588  -5.812   3.727  0.00  0.00    +0.116 C 
BRANCH  17  18
ATOM     18  C   UNL     1      -0.646  -6.305   4.485  0.00  0.00    +0.015 C 
ATOM     19  C   UNL     1      -0.504  -7.802   4.777  0.00  0.00    +0.041 C 
ATOM     20  C   UNL     1      -0.450  -8.569   3.453  0.00  0.00    +0.160 C 
ATOM     21  O   UNL     1      -1.629  -8.290   2.694  0.00  0.00    -0.380 OA
ATOM     22  C   UNL     1      -1.790  -6.912   2.351  0.00  0.00    +0.160 C 
ATOM     23  C   UNL     1      -1.897  -6.079   3.631  0.00  0.00    +0.041 C 
BRANCH  18  24
ATOM     24  C   UNL     1      -0.777  -5.547   5.781  0.00  0.00    -0.038 A 
ATOM     25  C   UNL     1      -1.919  -4.813   6.041  0.00  0.00    +0.004 A 
ATOM     26  C   UNL     1      -2.040  -4.118   7.229  0.00  0.00    +0.002 A 
ATOM     27  C   UNL     1      -1.018  -4.156   8.159  0.00  0.00    +0.020 A 
ATOM     28  C   UNL     1       0.125  -4.891   7.901  0.00  0.00    +0.041 A 
ATOM     29  C   UNL     1       0.243  -5.591   6.713  0.00  0.00    +0.024 A 
ATOM     30 CL   UNL     1       1.409  -4.939   9.068  0.00  0.00    -0.084 Cl
ENDBRANCH  18  24
ENDBRANCH  17  18
ENDBRANCH   3  17
TORSDOF 8
