REMARK  Name = ZINC61706137
REMARK  6 active torsions:
REMARK  status: ('A' for Active; 'I' for Inactive)
REMARK    1  A    between atoms: C_1  and  C_2
REMARK    2  A    between atoms: C_4  and  C_19
REMARK    3  A    between atoms: C_6  and  O_8
REMARK    4  A    between atoms: O_8  and  C_9
REMARK    5  A    between atoms: C_9  and  C_10
REMARK    6  A    between atoms: C_15  and  O_18
REMARK                            x       y       z     vdW  Elec       q    Type
REMARK                         _______ _______ _______ _____ _____    ______ ____
ROOT
ATOM      1  C   UNL     1       0.046  -2.005   3.563  0.00  0.00    +0.324 C 
ENDROOT
BRANCH   1   2
ATOM      2  C   UNL     1       0.064  -2.932   4.751  0.00  0.00    +0.253 C 
ATOM      3  O   UNL     1       0.080  -4.133   4.584  0.00  0.00    -0.272 OA
ATOM      4  N   UNL     1       0.063  -2.425   6.000  0.00  0.00    -0.296 N 
ATOM      5  C   UNL     1       0.039  -0.996   6.345  0.00  0.00    +0.110 C 
ATOM      6  C   UNL     1       0.019  -0.897   7.885  0.00  0.00    +0.052 C 
ATOM      7  C   UNL     1      -0.537  -2.280   8.315  0.00  0.00    +0.133 C 
ATOM      8  C   UNL     1       0.080  -3.212   7.247  0.00  0.00    +0.139 C 
BRANCH   7   9
ATOM      9  O   UNL     1      -0.087  -2.629   9.626  0.00  0.00    -0.390 OA
ATOM     10  H   UNL     1      -0.409  -3.485   9.938  0.00  0.00    +0.210 HD
ENDBRANCH   7   9
ENDBRANCH   1   2
BRANCH   1  11
ATOM     11  O   UNL     1       0.051  -2.775   2.359  0.00  0.00    -0.483 OA
BRANCH  11  17
ATOM     12  C   UNL     1      -0.018   1.503   0.010  0.00  0.00    +0.044 C 
ATOM     13  C   UNL     1       0.002  -0.004   0.002  0.00  0.00    -0.047 A 
ATOM     14  C   UNL     1       0.006  -0.688  -1.200  0.00  0.00    +0.007 A 
ATOM     15  C   UNL     1       0.025  -2.071  -1.210  0.00  0.00    -0.047 A 
ATOM     16  C   UNL     1       0.040  -2.772  -0.020  0.00  0.00    +0.049 A 
ATOM     17  C   UNL     1       0.036  -2.088   1.187  0.00  0.00    +0.122 A 
ATOM     18  C   UNL     1       0.023  -0.701   1.195  0.00  0.00    +0.049 A 
ATOM     19  C   UNL     1       0.029  -2.813  -2.522  0.00  0.00    +0.044 C 
ENDBRANCH  11  17
ENDBRANCH   1  11
TORSDOF 4
