REMARK  Name = ZINC50244738
REMARK  2 active torsions:
REMARK  status: ('A' for Active; 'I' for Inactive)
REMARK    1  A    between atoms: C_6  and  C_20
REMARK    2  A    between atoms: C_16  and  N_19
REMARK                            x       y       z     vdW  Elec       q    Type
REMARK                         _______ _______ _______ _____ _____    ______ ____
ROOT
ATOM      1  C   UNL     1       0.669   1.013  -0.925  0.00  0.00    +0.014 A 
ATOM      2  C   UNL     1       1.954   1.405  -1.088  0.00  0.00    +0.046 A 
ATOM      3  S   UNL     1       2.852  -0.052  -0.578  0.00  0.00    -0.101 S 
ATOM      4  C   UNL     1       1.453  -1.072  -0.191  0.00  0.00    -0.003 A 
ATOM      5  C   UNL     1       0.386  -0.270  -0.458  0.00  0.00    -0.006 A 
ATOM      6  C   UNL     1      -1.034  -0.786  -0.239  0.00  0.00    +0.222 C 
ATOM      7  N   UNL     1      -0.959  -2.241  -0.049  0.00  0.00    -0.268 N 
ATOM      8  C   UNL     1       0.046  -2.790   0.874  0.00  0.00    +0.115 C 
ATOM      9  C   UNL     1       1.440  -2.480   0.308  0.00  0.00    +0.062 C 
ATOM     10  C   UNL     1      -1.800  -3.062  -0.710  0.00  0.00    +0.306 C 
ATOM     11  O   UNL     1      -2.701  -2.596  -1.380  0.00  0.00    -0.252 OA
ATOM     12  N   UNL     1      -1.641  -4.397  -0.629  0.00  0.00    -0.287 N 
ATOM     13  C   UNL     1      -0.730  -5.098   0.288  0.00  0.00    +0.107 C 
ATOM     14  C   UNL     1      -0.907  -6.611   0.044  0.00  0.00    +0.004 C 
ATOM     15  C   UNL     1      -2.317  -6.696  -0.598  0.00  0.00    -0.056 C 
ATOM     16  C   UNL     1      -2.357  -5.399  -1.440  0.00  0.00    +0.093 C 
ENDROOT
BRANCH  15  17
ATOM     17  N   UNL     1      -2.436  -7.886  -1.452  0.00  0.00    +0.381 N 
ATOM     18  H   UNL     1      -2.306  -8.715  -0.893  0.00  0.00    -0.090 HD
ATOM     19  H   UNL     1      -3.351  -7.905  -1.876  0.00  0.00    -0.090 HD
ATOM     20  H   UNL     1      -1.732  -7.853  -2.174  0.00  0.00    -0.090 HD
ENDBRANCH  15  17
BRANCH   6  21
ATOM     21  C   UNL     1      -1.883  -0.472  -1.444  0.00  0.00    +0.381 C 
ATOM     22  O   UNL     1      -1.706  -1.074  -2.489  0.00  0.00    -0.244 OA
ATOM     23  O   UNL     1      -2.747   0.386  -1.374  0.00  0.00    -0.244 OA
ENDBRANCH   6  21
TORSDOF 2
