REMARK  Name = ZINC66418494
REMARK  3 active torsions:
REMARK  status: ('A' for Active; 'I' for Inactive)
REMARK    1  A    between atoms: C_8  and  C_11
REMARK    2  A    between atoms: N_13  and  C_14
REMARK    3  A    between atoms: C_17  and  N_21
REMARK                            x       y       z     vdW  Elec       q    Type
REMARK                         _______ _______ _______ _____ _____    ______ ____
ROOT
ATOM      1  C   UNL     1       3.795  -3.223   0.247  0.00  0.00    +0.258 C 
ATOM      2  O   UNL     1       4.669  -2.941   1.040  0.00  0.00    -0.271 OA
ATOM      3  N   UNL     1       3.519  -4.515  -0.018  0.00  0.00    -0.282 N 
ATOM      4  H   UNL     1       2.779  -4.742  -0.604  0.00  0.00    +0.155 HD
ENDROOT
BRANCH   1  12
ATOM      5  C   UNL     1      -0.048   1.360   0.068  0.00  0.00    +0.000 A 
ATOM      6  C   UNL     1       1.139   2.069   0.059  0.00  0.00    +0.004 A 
ATOM      7  C   UNL     1       2.348   1.405   0.036  0.00  0.00    +0.046 A 
ATOM      8  C   UNL     1       2.383   0.013   0.022  0.00  0.00    +0.125 A 
ATOM      9  C   UNL     1       1.184  -0.689   0.024  0.00  0.00    -0.002 A 
ATOM     10  C   UNL     1      -0.022  -0.023   0.051  0.00  0.00    +0.007 A 
ATOM     11  C   UNL     1       1.532  -2.164  -0.019  0.00  0.00    +0.093 C 
ATOM     12  C   UNL     1       3.020  -2.130  -0.441  0.00  0.00    +0.263 C 
ATOM     13  O   UNL     1       3.449  -0.834   0.011  0.00  0.00    -0.479 OA
ENDBRANCH   1  12
BRANCH   3  14
ATOM     14  C   UNL     1       4.298  -5.529   0.551  0.00  0.00    +0.035 A 
ATOM     15  C   UNL     1       4.566  -6.686  -0.170  0.00  0.00    +0.025 A 
ATOM     16  C   UNL     1       5.334  -7.687   0.391  0.00  0.00    +0.031 A 
ATOM     17  C   UNL     1       5.840  -7.537   1.675  0.00  0.00    +0.084 A 
ATOM     18  C   UNL     1       5.573  -6.380   2.397  0.00  0.00    +0.068 A 
ATOM     19  C   UNL     1       4.808  -5.376   1.833  0.00  0.00    +0.045 A 
ATOM     20 CL   UNL     1       6.204  -6.192   4.003  0.00  0.00    -0.081 Cl
BRANCH  17  21
ATOM     21  N   UNL     1       6.620  -8.554   2.245  0.00  0.00    -0.238 N 
ATOM     22  C   UNL     1       7.680  -9.163   1.667  0.00  0.00    +0.114 A 
ATOM     23  C   UNL     1       8.153 -10.082   2.540  0.00  0.00    +0.041 A 
ATOM     24  C   UNL     1       7.358 -10.035   3.690  0.00  0.00    +0.135 A 
ATOM     25  N   UNL     1       6.442  -9.116   3.516  0.00  0.00    -0.175 NA
ENDBRANCH  17  21
ENDBRANCH   3  14
TORSDOF 3
