REMARK  Name = ZINC10151130
REMARK  11 active torsions:
REMARK  status: ('A' for Active; 'I' for Inactive)
REMARK    1  A    between atoms: C_1  and  C_2
REMARK    2  A    between atoms: C_2  and  O_3
REMARK    3  A    between atoms: O_3  and  C_4
REMARK    4  A    between atoms: C_7  and  C_10
REMARK    5  A    between atoms: N_11  and  N_12
REMARK    6  A    between atoms: C_13  and  C_15
REMARK    7  A    between atoms: C_15  and  C_17
REMARK    8  A    between atoms: C_15  and  O_18
REMARK    9  A    between atoms: O_18  and  C_19
REMARK   10  A    between atoms: C_22  and  C_26
REMARK   11  A    between atoms: C_23  and  C_25
REMARK                            x       y       z     vdW  Elec       q    Type
REMARK                         _______ _______ _______ _____ _____    ______ ____
ROOT
ATOM      1  N   UNL     1      -2.375  -0.261   1.084  0.00  0.00    -0.204 N 
ATOM      2  C   UNL     1      -2.127   1.062   1.028  0.00  0.00    +0.273 C 
ATOM      3  O   UNL     1      -3.027   1.838   0.779  0.00  0.00    -0.270 OA
ATOM      4  H   UNL     1      -1.656  -0.881   1.282  0.00  0.00    +0.177 HD
ENDROOT
BRANCH   1   6
ATOM      5  C   UNL     1      -3.910  -2.016   0.909  0.00  0.00    +0.138 C 
ATOM      6  N   UNL     1      -3.671  -0.741   0.855  0.00  0.00    -0.188 NA
BRANCH   5  10
ATOM      7  C   UNL     1      -7.838  -3.471   0.218  0.00  0.00    +0.121 A 
ATOM      8  C   UNL     1      -6.810  -4.361   0.502  0.00  0.00    +0.046 A 
ATOM      9  C   UNL     1      -5.533  -3.893   0.727  0.00  0.00    +0.013 A 
ATOM     10  C   UNL     1      -5.274  -2.521   0.669  0.00  0.00    -0.005 A 
ATOM     11  C   UNL     1      -6.313  -1.629   0.388  0.00  0.00    +0.013 A 
ATOM     12  C   UNL     1      -7.585  -2.107   0.160  0.00  0.00    +0.046 A 
BRANCH   7  13
ATOM     13  O   UNL     1      -9.095  -3.937  -0.003  0.00  0.00    -0.492 OA
BRANCH  13  15
ATOM     14  C   UNL     1     -11.444  -3.675  -0.508  0.00  0.00    +0.048 C 
ATOM     15  C   UNL     1     -10.105  -2.967  -0.290  0.00  0.00    +0.225 C 
ENDBRANCH  13  15
ENDBRANCH   7  13
ENDBRANCH   5  10
ENDBRANCH   1   6
BRANCH   2  16
ATOM     16  C   UNL     1      -0.733   1.579   1.273  0.00  0.00    +0.257 C 
ATOM     17  C   UNL     1       0.198   1.080   0.167  0.00  0.00    +0.062 C 
BRANCH  16  18
ATOM     18  O   UNL     1      -0.748   3.008   1.275  0.00  0.00    -0.480 OA
BRANCH  18  19
ATOM     19  C   UNL     1       0.242   3.635   1.963  0.00  0.00    +0.122 A 
ATOM     20  C   UNL     1       0.227   5.015   2.100  0.00  0.00    +0.046 A 
ATOM     21  C   UNL     1       1.234   5.650   2.800  0.00  0.00    +0.007 A 
ATOM     22  C   UNL     1       2.257   4.910   3.365  0.00  0.00    -0.047 A 
ATOM     23  C   UNL     1       2.274   3.535   3.230  0.00  0.00    -0.044 A 
ATOM     24  C   UNL     1       1.266   2.895   2.535  0.00  0.00    +0.049 A 
ATOM     25  C   UNL     1       3.390   2.732   3.848  0.00  0.00    +0.044 C 
ATOM     26  C   UNL     1       3.354   5.605   4.129  0.00  0.00    +0.044 C 
ENDBRANCH  18  19
ENDBRANCH  16  18
ENDBRANCH   2  16
TORSDOF 7
