REMARK  Name = ZINC67570665
REMARK  10 active torsions:
REMARK  status: ('A' for Active; 'I' for Inactive)
REMARK    1  A    between atoms: C_1  and  C_2
REMARK    2  A    between atoms: C_2  and  C_3
REMARK    3  A    between atoms: C_2  and  N_4
REMARK    4  A    between atoms: N_4  and  C_5
REMARK    5  A    between atoms: N_4  and  C_6
REMARK    6  A    between atoms: C_6  and  C_7
REMARK    7  A    between atoms: N_9  and  N_10
REMARK    8  A    between atoms: C_11  and  C_13
REMARK    9  A    between atoms: C_17  and  S_19
REMARK   10  A    between atoms: S_19  and  N_22
REMARK                            x       y       z     vdW  Elec       q    Type
REMARK                         _______ _______ _______ _____ _____    ______ ____
ROOT
ATOM      1  N   UNL     1      -4.299  -4.317   0.280  0.00  0.00    -0.230 N 
ATOM      2  C   UNL     1      -4.526  -5.646   0.297  0.00  0.00    +0.260 C 
ATOM      3  O   UNL     1      -3.596  -6.423   0.203  0.00  0.00    -0.269 OA
ATOM      4  H   UNL     1      -5.041  -3.697   0.355  0.00  0.00    +0.173 HD
ENDROOT
BRANCH   2   5
ATOM      5  C   UNL     1      -5.906  -6.158   0.429  0.00  0.00    +0.040 A 
ATOM      6  C   UNL     1      -6.978  -5.269   0.531  0.00  0.00    +0.013 A 
ATOM      7  C   UNL     1      -8.263  -5.753   0.653  0.00  0.00    +0.003 A 
ATOM      8  C   UNL     1      -8.492  -7.118   0.675  0.00  0.00    +0.028 A 
ATOM      9  C   UNL     1      -7.435  -8.005   0.575  0.00  0.00    +0.106 A 
ATOM     10  C   UNL     1      -6.145  -7.533   0.446  0.00  0.00    +0.041 A 
BRANCH   9  11
ATOM     11  S   UNL     1      -7.738  -9.740   0.605  0.00  0.00    +0.061 S 
ATOM     12  O   UNL     1      -6.535 -10.355   1.044  0.00  0.00    -0.153 OA
ATOM     13  O   UNL     1      -8.977  -9.925   1.276  0.00  0.00    -0.153 OA
BRANCH  11  14
ATOM     14  N   UNL     1      -7.972 -10.223  -0.962  0.00  0.00    -0.177 NA
ATOM     15  C   UNL     1      -9.317 -10.218  -1.554  0.00  0.00    +0.109 C 
ATOM     16  C   UNL     1      -9.279  -9.413  -2.856  0.00  0.00    +0.017 C 
ATOM     17  C   UNL     1      -8.192  -9.981  -3.771  0.00  0.00    +0.003 C 
ATOM     18  C   UNL     1      -6.829  -9.856  -3.086  0.00  0.00    +0.017 C 
ATOM     19  C   UNL     1      -6.839 -10.660  -1.788  0.00  0.00    +0.109 C 
ENDBRANCH  11  14
ENDBRANCH   9  11
ENDBRANCH   2   5
BRANCH   1  22
ATOM     20  C   UNL     1      -2.763  -2.504   0.139  0.00  0.00    +0.213 C 
ATOM     21  O   UNL     1      -3.692  -1.728   0.232  0.00  0.00    -0.276 OA
ATOM     22  N   UNL     1      -2.990  -3.832   0.155  0.00  0.00    -0.236 N 
ATOM     23  H   UNL     1      -2.248  -4.452   0.081  0.00  0.00    +0.173 HD
BRANCH  20  24
ATOM     24  C   UNL     1      -1.356  -1.981   0.004  0.00  0.00    +0.020 C 
BRANCH  24  25
ATOM     25  N   UNL     1      -1.376  -0.512   0.012  0.00  0.00    +0.385 N 
ATOM     26  C   UNL     1      -2.087  -0.026  -1.178  0.00  0.00    -0.095 C 
ATOM     27  H   UNL     1      -1.848  -0.187   0.843  0.00  0.00    -0.081 HD
BRANCH  25  29
ATOM     28  C   UNL     1      -0.019   1.526   0.010  0.00  0.00    -0.014 C 
ATOM     29  C   UNL     1       0.002  -0.004   0.002  0.00  0.00    -0.075 C 
ATOM     30  C   UNL     1       0.742  -0.511   1.242  0.00  0.00    -0.014 C 
ENDBRANCH  25  29
ENDBRANCH  24  25
ENDBRANCH  20  24
ENDBRANCH   1  22
TORSDOF 7
