REMARK  Name = ZINC42874368
REMARK  9 active torsions:
REMARK  status: ('A' for Active; 'I' for Inactive)
REMARK    1  A    between atoms: C_1  and  C_2
REMARK    2  A    between atoms: C_5  and  C_25
REMARK    3  A    between atoms: N_8  and  C_10
REMARK    4  A    between atoms: C_10  and  C_11
REMARK    5  A    between atoms: C_16  and  C_17
REMARK    6  A    between atoms: C_17  and  N_18
REMARK    7  A    between atoms: N_21  and  C_22
REMARK    8  A    between atoms: C_22  and  C_23
REMARK    9  A    between atoms: C_23  and  O_24
REMARK                            x       y       z     vdW  Elec       q    Type
REMARK                         _______ _______ _______ _____ _____    ______ ____
ROOT
ATOM      1  C   UNL     1       2.220  -0.015   3.260  0.00  0.00    -0.059 A 
ATOM      2  C   UNL     1       2.811   1.163   3.678  0.00  0.00    +0.002 A 
ATOM      3  C   UNL     1       2.268   1.870   4.734  0.00  0.00    +0.000 A 
ATOM      4  C   UNL     1       1.135   1.400   5.372  0.00  0.00    +0.000 A 
ATOM      5  C   UNL     1       0.545   0.223   4.953  0.00  0.00    +0.005 A 
ATOM      6  C   UNL     1       1.084  -0.482   3.894  0.00  0.00    -0.029 A 
ENDROOT
BRANCH   1   7
ATOM      7  C   UNL     1       2.811  -0.787   2.108  0.00  0.00    -0.043 C 
BRANCH   7  13
ATOM      8  C   UNL     1       4.768  -3.237   4.932  0.00  0.00    +0.005 C 
ATOM      9  C   UNL     1       5.631  -2.446   3.947  0.00  0.00    -0.031 C 
ATOM     10  C   UNL     1       6.117  -3.377   2.832  0.00  0.00    +0.003 C 
ATOM     11  C   UNL     1       4.907  -3.900   2.053  0.00  0.00    -0.031 C 
ATOM     12  C   UNL     1       4.104  -2.715   1.511  0.00  0.00    -0.075 C 
ATOM     13  N   UNL     1       3.646  -1.879   2.627  0.00  0.00    +0.383 N 
ATOM     14  C   UNL     1       4.802  -1.315   3.336  0.00  0.00    -0.075 C 
ATOM     15  C   UNL     1       5.385  -4.770   0.889  0.00  0.00    +0.005 C 
ATOM     16  H   UNL     1       3.103  -2.440   3.266  0.00  0.00    -0.081 HD
ENDBRANCH   7  13
ENDBRANCH   1   7
BRANCH   6  17
ATOM     17  C   UNL     1       0.437  -1.763   3.434  0.00  0.00    +0.141 C 
BRANCH  17  18
ATOM     18  N   UNL     1       1.148  -2.905   4.014  0.00  0.00    -0.295 N 
ATOM     19  C   UNL     1       0.815  -4.160   3.653  0.00  0.00    +0.300 C 
ATOM     20  O   UNL     1      -0.074  -4.345   2.845  0.00  0.00    -0.253 OA
ATOM     21  N   UNL     1       1.469  -5.211   4.187  0.00  0.00    -0.297 N 
ATOM     22  H   UNL     1       1.858  -2.758   4.659  0.00  0.00    +0.151 HD
ATOM     23  H   UNL     1       2.179  -5.064   4.831  0.00  0.00    +0.150 HD
BRANCH  21  24
ATOM     24  C   UNL     1       1.108  -6.575   3.793  0.00  0.00    +0.133 C 
BRANCH  24  25
ATOM     25  C   UNL     1       1.995  -7.573   4.540  0.00  0.00    +0.174 C 
BRANCH  25  26
ATOM     26  O   UNL     1       1.722  -7.499   5.941  0.00  0.00    -0.393 OA
ATOM     27  H   UNL     1       2.250  -8.106   6.477  0.00  0.00    +0.209 HD
ENDBRANCH  25  26
ENDBRANCH  24  25
ENDBRANCH  21  24
ENDBRANCH  17  18
ENDBRANCH   6  17
TORSDOF 7
