REMARK  Name = ZINC63493866
REMARK  13 active torsions:
REMARK  status: ('A' for Active; 'I' for Inactive)
REMARK    1  A    between atoms: C_1  and  C_2
REMARK    2  A    between atoms: C_4  and  C_37
REMARK    3  A    between atoms: C_9  and  N_23
REMARK    4  A    between atoms: N_10  and  C_11
REMARK    5  A    between atoms: C_11  and  C_13
REMARK    6  A    between atoms: C_13  and  S_14
REMARK    7  A    between atoms: S_14  and  C_15
REMARK    8  A    between atoms: C_19  and  C_22
REMARK    9  A    between atoms: N_23  and  C_24
REMARK   10  A    between atoms: C_24  and  C_25
REMARK   11  A    between atoms: C_25  and  C_26
REMARK   12  A    between atoms: C_29  and  O_35
REMARK   13  A    between atoms: O_35  and  C_36
REMARK                            x       y       z     vdW  Elec       q    Type
REMARK                         _______ _______ _______ _____ _____    ______ ____
ROOT
ATOM      1  C   UNL     1      -0.018   1.503   0.010  0.00  0.00    +0.066 C 
ATOM      2  C   UNL     1       0.002  -0.004   0.002  0.00  0.00    +0.044 A 
ATOM      3  C   UNL     1       0.006  -0.699  -1.197  0.00  0.00    +0.046 A 
ATOM      4  C   UNL     1       0.025  -2.085  -1.160  0.00  0.00    +0.044 A 
ATOM      5  N   UNL     1       0.039  -2.698   0.012  0.00  0.00    -0.217 NA
ATOM      6  C   UNL     1       0.035  -2.004   1.140  0.00  0.00    +0.231 A 
ATOM      7  N   UNL     1       0.022  -0.680   1.139  0.00  0.00    -0.217 NA
ATOM      8  N   UNL     1       0.049  -2.681   2.352  0.00  0.00    -0.295 N 
ATOM      9  C   UNL     1       0.045  -1.981   3.525  0.00  0.00    +0.218 C 
ATOM     10  N   UNL     1       0.027  -0.655   3.506  0.00  0.00    -0.145 NA
ATOM     11  C   UNL     1       0.029  -2.882  -2.438  0.00  0.00    +0.066 C 
ATOM     12  H   UNL     1       0.062  -3.651   2.366  0.00  0.00    +0.172 HD
ENDROOT
BRANCH  10  13
ATOM     13  C   UNL     1       0.023   0.028   4.650  0.00  0.00    +0.249 C 
ATOM     14  O   UNL     1       0.036  -0.565   5.711  0.00  0.00    -0.273 OA
BRANCH  13  15
ATOM     15  C   UNL     1       0.003   1.534   4.628  0.00  0.00    +0.169 C 
BRANCH  15  16
ATOM     16  S   UNL     1       0.002   2.164   6.330  0.00  0.00    -0.121 S 
BRANCH  16  17
ATOM     17  C   UNL     1      -0.023   3.966   6.131  0.00  0.00    +0.186 C 
ATOM     18  N   UNL     1       1.117   4.433   5.300  0.00  0.00    -0.233 NA
ATOM     19  N   UNL     1       0.824   5.473   4.347  0.00  0.00    -0.242 NA
ATOM     20  C   UNL     1      -0.582   5.952   4.312  0.00  0.00    +0.126 C 
ATOM     21  S   UNL     1      -1.442   4.504   5.076  0.00  0.00    -0.110 S 
ATOM     22  C   UNL     1      -1.054   6.183   2.875  0.00  0.00    +0.037 C 
ATOM     23  H   UNL     1       1.906   4.683   5.877  0.00  0.00    +0.143 HD
ATOM     24  H   UNL     1       1.466   6.245   4.445  0.00  0.00    +0.142 HD
ENDBRANCH  16  17
ENDBRANCH  15  16
ENDBRANCH  13  15
ENDBRANCH  10  13
BRANCH   9  25
ATOM     25  N   UNL     1       0.060  -2.645   4.715  0.00  0.00    -0.252 NA
BRANCH  25  26
ATOM     26  C   UNL     1       0.080  -4.109   4.736  0.00  0.00    +0.149 C 
BRANCH  26  27
ATOM     27  C   UNL     1       0.093  -4.598   6.185  0.00  0.00    +0.056 C 
BRANCH  27  28
ATOM     28  C   UNL     1       0.114  -6.105   6.207  0.00  0.00    -0.040 C 
ATOM     29  C   UNL     1       1.201  -6.902   6.313  0.00  0.00    +0.002 A 
ATOM     30  C   UNL     1       2.635  -6.618   6.435  0.00  0.00    +0.055 A 
ATOM     31  C   UNL     1       3.513  -7.645   6.525  0.00  0.00    +0.121 A 
ATOM     32  C   UNL     1       3.101  -8.989   6.507  0.00  0.00    +0.047 A 
ATOM     33  C   UNL     1       1.804  -9.350   6.397  0.00  0.00    +0.029 A 
ATOM     34  C   UNL     1       0.768  -8.318   6.294  0.00  0.00    +0.043 A 
ATOM     35  N   UNL     1      -0.535  -8.393   6.180  0.00  0.00    -0.380 N 
ATOM     36  C   UNL     1      -1.078  -7.032   6.121  0.00  0.00    +0.144 C 
ATOM     37  H   UNL     1      -1.054  -9.212   6.145  0.00  0.00    +0.160 HD
BRANCH  31  38
ATOM     38  O   UNL     1       4.839  -7.367   6.637  0.00  0.00    -0.495 OA
ATOM     39  C   UNL     1       5.730  -8.480   6.730  0.00  0.00    +0.277 C 
ENDBRANCH  31  38
ENDBRANCH  27  28
ENDBRANCH  26  27
ENDBRANCH  25  26
ENDBRANCH   9  25
TORSDOF 9
