REMARK  Name = ZINC21868250
REMARK  10 active torsions:
REMARK  status: ('A' for Active; 'I' for Inactive)
REMARK    1  A    between atoms: C_6  and  C_7
REMARK    2  A    between atoms: C_9  and  C_12
REMARK    3  A    between atoms: C_12  and  O_13
REMARK    4  A    between atoms: O_13  and  C_14
REMARK    5  A    between atoms: C_14  and  C_15
REMARK    6  A    between atoms: N_17  and  C_18
REMARK    7  A    between atoms: C_18  and  C_19
REMARK    8  A    between atoms: C_19  and  C_20
REMARK    9  A    between atoms: C_20  and  N_21
REMARK   10  A    between atoms: C_24  and  N_27
REMARK                            x       y       z     vdW  Elec       q    Type
REMARK                         _______ _______ _______ _____ _____    ______ ____
ROOT
ATOM      1  C   UNL     1      -0.920   1.705  -3.533  0.00  0.00    +0.239 C 
ATOM      2  O   UNL     1      -1.903   2.380  -3.314  0.00  0.00    -0.273 OA
ATOM      3  N   UNL     1      -0.548   1.448  -4.803  0.00  0.00    -0.313 N 
ATOM      4  H   UNL     1       0.344   0.835  -5.002  0.00  0.00    +0.149 HD
ENDROOT
BRANCH   1   5
ATOM      5  C   UNL     1      -0.114   1.152  -2.386  0.00  0.00    +0.255 C 
BRANCH   5   6
ATOM      6  O   UNL     1      -0.704   1.559  -1.150  0.00  0.00    -0.364 OA
BRANCH   6   7
ATOM      7  C   UNL     1      -0.013   1.086   0.008  0.00  0.00    +0.219 C 
BRANCH   7  10
ATOM      8  C   UNL     1      -2.110   2.529   2.638  0.00  0.00    +0.168 A 
ATOM      9  C   UNL     1      -1.879   2.369   1.298  0.00  0.00    +0.078 A 
ATOM     10  C   UNL     1      -0.718   1.572   1.248  0.00  0.00    +0.110 A 
ATOM     11  N   UNL     1      -0.377   1.332   2.482  0.00  0.00    -0.080 NA
ATOM     12  O   UNL     1      -1.130   1.857   3.269  0.00  0.00    -0.354 OA
BRANCH   8  18
ATOM     13  C   UNL     1      -4.158   3.934   2.469  0.00  0.00    +0.015 A 
ATOM     14  C   UNL     1      -5.187   4.641   3.056  0.00  0.00    +0.050 A 
ATOM     15  C   UNL     1      -5.286   4.711   4.438  0.00  0.00    +0.166 A 
ATOM     16  C   UNL     1      -4.345   4.066   5.239  0.00  0.00    +0.167 A 
ATOM     17  C   UNL     1      -3.315   3.352   4.657  0.00  0.00    +0.061 A 
ATOM     18  C   UNL     1      -3.212   3.287   3.265  0.00  0.00    +0.024 A 
ATOM     19  O   UNL     1      -4.663   4.286   6.549  0.00  0.00    -0.453 OA
ATOM     20  C   UNL     1      -6.034   4.726   6.542  0.00  0.00    +0.466 C 
ATOM     21  O   UNL     1      -6.192   5.334   5.246  0.00  0.00    -0.453 OA
ENDBRANCH   8  18
ENDBRANCH   7  10
ENDBRANCH   6   7
ENDBRANCH   5   6
ENDBRANCH   1   5
BRANCH   3  22
ATOM     22  C   UNL     1      -1.332   1.985  -5.918  0.00  0.00    +0.105 C 
BRANCH  22  23
ATOM     23  C   UNL     1      -0.700   1.549  -7.242  0.00  0.00    +0.034 C 
BRANCH  23  24
ATOM     24  C   UNL     1      -1.518   2.110  -8.407  0.00  0.00    +0.086 C 
BRANCH  24  25
ATOM     25  N   UNL     1      -0.911   1.692  -9.678  0.00  0.00    -0.302 NA
ATOM     26  C   UNL     1       0.415   2.297  -9.852  0.00  0.00    +0.083 C 
ATOM     27  C   UNL     1       1.076   1.728 -11.110  0.00  0.00    +0.000 C 
ATOM     28  C   UNL     1       0.193   2.029 -12.324  0.00  0.00    -0.066 C 
ATOM     29  C   UNL     1      -1.197   1.429 -12.096  0.00  0.00    +0.000 C 
ATOM     30  C   UNL     1      -1.792   2.006 -10.810  0.00  0.00    +0.083 C 
BRANCH  28  31
ATOM     31  N   UNL     1       0.793   1.434 -13.526  0.00  0.00    +0.382 N 
ATOM     32  C   UNL     1       0.944  -0.019 -13.375  0.00  0.00    -0.078 C 
ATOM     33  C   UNL     1       1.434  -0.622 -14.694  0.00  0.00    -0.019 C 
ATOM     34  C   UNL     1       2.775   0.013 -15.072  0.00  0.00    -0.004 C 
ATOM     35  C   UNL     1       2.602   1.531 -15.176  0.00  0.00    -0.019 C 
ATOM     36  C   UNL     1       2.078   2.071 -13.843  0.00  0.00    -0.078 C 
ATOM     37  H   UNL     1       0.112   1.615 -14.371  0.00  0.00    -0.081 HD
ENDBRANCH  28  31
ENDBRANCH  24  25
ENDBRANCH  23  24
ENDBRANCH  22  23
ENDBRANCH   3  22
TORSDOF 10
