REMARK  Name = ZINC45555403
REMARK  9 active torsions:
REMARK  status: ('A' for Active; 'I' for Inactive)
REMARK    1  A    between atoms: C_1  and  C_2
REMARK    2  A    between atoms: C_11  and  N_31
REMARK    3  A    between atoms: C_13  and  S_15
REMARK    4  A    between atoms: S_15  and  C_16
REMARK    5  A    between atoms: C_16  and  C_17
REMARK    6  A    between atoms: N_19  and  C_20
REMARK    7  A    between atoms: N_19  and  C_25
REMARK    8  A    between atoms: C_20  and  C_21
REMARK    9  A    between atoms: C_21  and  C_22
REMARK                            x       y       z     vdW  Elec       q    Type
REMARK                         _______ _______ _______ _____ _____    ______ ____
ROOT
ATOM      1  S   UNL     1      -1.213  -9.596   2.137  0.00  0.00    -0.077 S 
ENDROOT
BRANCH   1  13
ATOM      2  C   UNL     1       1.417  -0.094  -0.467  0.00  0.00    +0.008 C 
ATOM      3  C   UNL     1       1.060  -1.581  -0.428  0.00  0.00    -0.009 C 
ATOM      4  C   UNL     1      -0.461  -1.743  -0.368  0.00  0.00    +0.008 C 
ATOM      5  C   UNL     1      -0.835  -3.210  -0.577  0.00  0.00    +0.037 C 
ATOM      6  C   UNL     1      -0.047  -4.067   0.410  0.00  0.00    -0.025 A 
ATOM      7  C   UNL     1       1.064  -3.581   1.007  0.00  0.00    -0.004 A 
ATOM      8  S   UNL     1       1.645  -4.893   2.053  0.00  0.00    -0.073 S 
ATOM      9  C   UNL     1       0.402  -6.090   1.690  0.00  0.00    +0.115 A 
ATOM     10  C   UNL     1      -0.434  -5.425   0.758  0.00  0.00    +0.051 A 
ATOM     11  C   UNL     1      -1.558  -6.151   0.265  0.00  0.00    +0.129 A 
ATOM     12  N   UNL     1      -1.705  -7.387   0.736  0.00  0.00    -0.207 NA
ATOM     13  C   UNL     1      -0.882  -7.948   1.609  0.00  0.00    +0.191 A 
ATOM     14  N   UNL     1       0.187  -7.322   2.109  0.00  0.00    -0.214 NA
ATOM     15  C   UNL     1       1.676  -2.226   0.822  0.00  0.00    +0.046 C 
BRANCH  11  16
ATOM     16  N   UNL     1      -2.441  -5.603  -0.647  0.00  0.00    -0.343 N 
ATOM     17  H   UNL     1      -2.174  -4.840  -1.183  0.00  0.00    +0.144 HD
ATOM     18  H   UNL     1      -3.328  -5.982  -0.750  0.00  0.00    +0.144 HD
ENDBRANCH  11  16
ENDBRANCH   1  13
BRANCH   1  19
ATOM     19  C   UNL     1      -2.719 -10.052   1.234  0.00  0.00    +0.173 C 
BRANCH  19  20
ATOM     20  C   UNL     1      -3.117 -11.459   1.599  0.00  0.00    +0.230 C 
ATOM     21  O   UNL     1      -2.515 -12.053   2.468  0.00  0.00    -0.274 OA
ATOM     22  N   UNL     1      -4.141 -12.057   0.959  0.00  0.00    -0.270 N 
BRANCH  22  23
ATOM     23  C   UNL     1      -4.766 -11.413  -0.115  0.00  0.00    +0.036 A 
ATOM     24  C   UNL     1      -4.595 -11.891  -1.408  0.00  0.00    +0.023 A 
ATOM     25  C   UNL     1      -5.213 -11.254  -2.466  0.00  0.00    +0.002 A 
ATOM     26  C   UNL     1      -6.002 -10.141  -2.239  0.00  0.00    +0.000 A 
ATOM     27  C   UNL     1      -6.175  -9.663  -0.953  0.00  0.00    +0.002 A 
ATOM     28  C   UNL     1      -5.564 -10.299   0.110  0.00  0.00    +0.023 A 
ENDBRANCH  22  23
BRANCH  22  29
ATOM     29  C   UNL     1      -4.600 -13.380   1.388  0.00  0.00    +0.123 C 
BRANCH  29  30
ATOM     30  C   UNL     1      -5.691 -13.222   2.449  0.00  0.00    +0.115 C 
BRANCH  30  31
ATOM     31  C   UNL     1      -6.163 -14.584   2.890  0.00  0.00    +0.212 C 
ATOM     32  O   UNL     1      -5.675 -15.582   2.404  0.00  0.00    -0.276 OA
ATOM     33  N   UNL     1      -7.127 -14.692   3.826  0.00  0.00    -0.329 N 
ATOM     34  H   UNL     1      -7.517 -13.894   4.215  0.00  0.00    +0.145 HD
ATOM     35  H   UNL     1      -7.431 -15.568   4.110  0.00  0.00    +0.145 HD
ENDBRANCH  30  31
ENDBRANCH  29  30
ENDBRANCH  22  29
ENDBRANCH  19  20
ENDBRANCH   1  19
TORSDOF 8
