REMARK  Name = ZINC48654635
REMARK  9 active torsions:
REMARK  status: ('A' for Active; 'I' for Inactive)
REMARK    1  A    between atoms: C_1  and  C_2
REMARK    2  A    between atoms: C_2  and  C_3
REMARK    3  A    between atoms: C_3  and  C_5
REMARK    4  A    between atoms: C_3  and  C_6
REMARK    5  A    between atoms: N_8  and  N_9
REMARK    6  A    between atoms: N_9  and  S_10
REMARK    7  A    between atoms: S_10  and  C_13
REMARK    8  A    between atoms: C_15  and  C_21
REMARK    9  A    between atoms: C_16  and  C_18
REMARK                            x       y       z     vdW  Elec       q    Type
REMARK                         _______ _______ _______ _____ _____    ______ ____
ROOT
ATOM      1  S   UNL     1      -3.389  -4.870   1.483  0.00  0.00    +0.080 S 
ATOM      2  O   UNL     1      -3.296  -6.267   1.241  0.00  0.00    -0.151 OA
ATOM      3  O   UNL     1      -2.953  -4.276   2.699  0.00  0.00    -0.151 OA
ENDROOT
BRANCH   1   4
ATOM      4  C   UNL     1      -5.086  -4.437   1.293  0.00  0.00    +0.145 A 
ATOM      5  C   UNL     1      -6.039  -5.091   0.580  0.00  0.00    +0.040 A 
ATOM      6  C   UNL     1      -7.316  -4.590   0.556  0.00  0.00    -0.027 A 
ATOM      7  C   UNL     1      -7.521  -3.425   1.285  0.00  0.00    +0.105 A 
ATOM      8  S   UNL     1      -5.897  -3.124   1.957  0.00  0.00    -0.062 S 
ATOM      9  C   UNL     1      -8.426  -5.261  -0.213  0.00  0.00    +0.045 C 
BRANCH   7  10
ATOM     10  C   UNL     1      -8.711  -2.674   1.454  0.00  0.00    +0.393 C 
ATOM     11  O   UNL     1      -9.748  -3.040   0.913  0.00  0.00    -0.240 OA
ATOM     12  O   UNL     1      -8.704  -1.660   2.142  0.00  0.00    -0.240 OA
ENDBRANCH   7  10
ENDBRANCH   1   4
BRANCH   1  13
ATOM     13  N   UNL     1      -2.553  -4.122   0.265  0.00  0.00    -0.107 NA
ATOM     14  H   UNL     1      -2.051  -4.651  -0.375  0.00  0.00    +0.172 HD
BRANCH  13  17
ATOM     15  C   UNL     1      -1.414  -2.036   0.129  0.00  0.00    +0.231 C 
ATOM     16  O   UNL     1      -0.356  -2.625   0.196  0.00  0.00    -0.274 OA
ATOM     17  N   UNL     1      -2.572  -2.725   0.157  0.00  0.00    -0.232 N 
ATOM     18  H   UNL     1      -3.418  -2.254   0.104  0.00  0.00    +0.171 HD
BRANCH  15  19
ATOM     19  C   UNL     1      -1.433  -0.534   0.013  0.00  0.00    +0.073 C 
ATOM     20  C   UNL     1      -2.135  -0.131  -1.286  0.00  0.00    +0.017 C 
BRANCH  19  22
ATOM     21  C   UNL     1      -0.019   1.526   0.010  0.00  0.00    +0.004 C 
ATOM     22  C   UNL     1       0.002  -0.004   0.002  0.00  0.00    +0.009 C 
ENDBRANCH  19  22
ENDBRANCH  15  19
ENDBRANCH  13  17
ENDBRANCH   1  13
TORSDOF 6
