REMARK  Name = ZINC02207588
REMARK  12 active torsions:
REMARK  status: ('A' for Active; 'I' for Inactive)
REMARK    1  A    between atoms: C_1  and  C_2
REMARK    2  A    between atoms: C_2  and  N_3
REMARK    3  A    between atoms: N_3  and  C_4
REMARK    4  A    between atoms: N_3  and  C_6
REMARK    5  A    between atoms: C_4  and  C_5
REMARK    6  A    between atoms: C_9  and  C_13
REMARK    7  A    between atoms: C_10  and  O_12
REMARK    8  A    between atoms: N_14  and  N_15
REMARK    9  A    between atoms: C_16  and  C_18
REMARK   10  A    between atoms: C_19  and  C_29
REMARK   11  A    between atoms: C_29  and  S_30
REMARK   12  A    between atoms: S_30  and  C_31
REMARK                            x       y       z     vdW  Elec       q    Type
REMARK                         _______ _______ _______ _____ _____    ______ ____
ROOT
ATOM      1  C   UNL     1      -4.787  -0.958  -1.057  0.00  0.00    +0.173 A 
ATOM      2  C   UNL     1      -4.058  -0.583   0.035  0.00  0.00    +0.089 A 
ATOM      3  N   UNL     1      -4.757  -0.971   1.124  0.00  0.00    -0.191 N 
ATOM      4  N   UNL     1      -5.923  -1.593   0.655  0.00  0.00    -0.058 NA
ATOM      5  N   UNL     1      -5.906  -1.571  -0.632  0.00  0.00    -0.124 NA
ATOM      6  C   UNL     1      -4.390  -0.787   2.462  0.00  0.00    +0.240 A 
ATOM      7  C   UNL     1      -5.163  -1.216   3.631  0.00  0.00    +0.206 A 
ATOM      8  N   UNL     1      -4.506  -0.875   4.705  0.00  0.00    -0.032 NA
ATOM      9  O   UNL     1      -3.313  -0.229   4.297  0.00  0.00    -0.239 OA
ATOM     10  N   UNL     1      -3.299  -0.211   2.881  0.00  0.00    -0.027 NA
ATOM     11  N   UNL     1      -6.388  -1.873   3.600  0.00  0.00    -0.337 N 
ATOM     12  H   UNL     1      -6.802  -2.087   2.750  0.00  0.00    +0.144 HD
ATOM     13  H   UNL     1      -6.827  -2.119   4.429  0.00  0.00    +0.144 HD
ENDROOT
BRANCH   1  15
ATOM     14  N   UNL     1      -5.221  -1.153  -3.456  0.00  0.00    -0.202 N 
ATOM     15  C   UNL     1      -4.410  -0.733  -2.465  0.00  0.00    +0.285 C 
ATOM     16  O   UNL     1      -3.367  -0.167  -2.732  0.00  0.00    -0.267 OA
ATOM     17  H   UNL     1      -6.053  -1.604  -3.243  0.00  0.00    +0.178 HD
BRANCH  14  19
ATOM     18  C   UNL     1      -5.644  -1.344  -5.747  0.00  0.00    +0.142 C 
ATOM     19  N   UNL     1      -4.863  -0.939  -4.793  0.00  0.00    -0.187 NA
BRANCH  18  23
ATOM     20  C   UNL     1      -4.559  -0.694  -9.803  0.00  0.00    +0.033 A 
ATOM     21  C   UNL     1      -5.752  -1.342  -9.496  0.00  0.00    +0.024 A 
ATOM     22  C   UNL     1      -6.107  -1.554  -8.183  0.00  0.00    +0.015 A 
ATOM     23  C   UNL     1      -5.267  -1.119  -7.153  0.00  0.00    +0.036 A 
ATOM     24  C   UNL     1      -4.068  -0.462  -7.464  0.00  0.00    +0.127 A 
ATOM     25  C   UNL     1      -3.718  -0.258  -8.786  0.00  0.00    +0.069 A 
BRANCH  24  26
ATOM     26  O   UNL     1      -3.250  -0.031  -6.469  0.00  0.00    -0.506 OA
ATOM     27  H   UNL     1      -2.591  -0.682  -6.192  0.00  0.00    +0.292 HD
ENDBRANCH  24  26
BRANCH  20  28
ATOM     28  N   UNL     1      -4.206  -0.482 -11.135  0.00  0.00    -0.330 N 
BRANCH  28  30
ATOM     29  C   UNL     1      -6.082   0.169 -12.562  0.00  0.00    +0.024 C 
ATOM     30  C   UNL     1      -5.090  -0.941 -12.209  0.00  0.00    +0.102 C 
ENDBRANCH  28  30
BRANCH  28  31
ATOM     31  C   UNL     1      -2.951   0.200 -11.461  0.00  0.00    +0.102 C 
ATOM     32  C   UNL     1      -1.830  -0.832 -11.595  0.00  0.00    +0.024 C 
ENDBRANCH  28  31
ENDBRANCH  20  28
ENDBRANCH  18  23
ENDBRANCH  14  19
ENDBRANCH   1  15
BRANCH   2  33
ATOM     33  C   UNL     1      -2.731   0.132   0.027  0.00  0.00    +0.134 C 
BRANCH  33  34
ATOM     34  S   UNL     1      -1.390  -1.084   0.009  0.00  0.00    -0.093 S 
BRANCH  34  35
ATOM     35  C   UNL     1       0.002  -0.004   0.002  0.00  0.00    +0.126 C 
ATOM     36  N   UNL     1      -0.015   1.292   0.009  0.00  0.00    -0.270 NA
ATOM     37  C   UNL     1       1.199   2.075   0.002  0.00  0.00    +0.154 C 
ATOM     38  C   UNL     1       2.473   1.202  -0.015  0.00  0.00    +0.099 C 
ATOM     39  S   UNL     1       1.721  -0.471  -0.017  0.00  0.00    -0.098 S 
ENDBRANCH  34  35
ENDBRANCH  33  34
ENDBRANCH   2  33
TORSDOF 10
