REMARK  Name = ZINC67089909
REMARK  7 active torsions:
REMARK  status: ('A' for Active; 'I' for Inactive)
REMARK    1  A    between atoms: C_1  and  C_2
REMARK    2  A    between atoms: C_4  and  C_8
REMARK    3  A    between atoms: C_5  and  C_7
REMARK    4  A    between atoms: N_10  and  N_11
REMARK    5  A    between atoms: N_14  and  C_15
REMARK    6  A    between atoms: C_15  and  C_16
REMARK    7  A    between atoms: C_16  and  C_19
REMARK                            x       y       z     vdW  Elec       q    Type
REMARK                         _______ _______ _______ _____ _____    ______ ____
ROOT
ATOM      1  N   UNL     1      -3.445  -4.513  -0.002  0.00  0.00    -0.218 N 
ATOM      2  C   UNL     1      -4.788  -4.465   0.099  0.00  0.00    +0.316 C 
ATOM      3  O   UNL     1      -5.429  -5.495   0.179  0.00  0.00    -0.251 OA
ATOM      4  N   UNL     1      -5.421  -3.275   0.110  0.00  0.00    -0.297 N 
ATOM      5  H   UNL     1      -2.995  -5.368  -0.086  0.00  0.00    +0.174 HD
ATOM      6  H   UNL     1      -4.919  -2.457  -0.029  0.00  0.00    +0.150 HD
ENDROOT
BRANCH   1   9
ATOM      7  C   UNL     1      -1.352  -3.379   0.017  0.00  0.00    +0.263 C 
ATOM      8  O   UNL     1      -0.784  -4.454   0.003  0.00  0.00    -0.269 OA
ATOM      9  N   UNL     1      -2.699  -3.327   0.015  0.00  0.00    -0.229 N 
ATOM     10  H   UNL     1      -3.151  -2.469   0.026  0.00  0.00    +0.173 HD
BRANCH   7  14
ATOM     11  C   UNL     1      -0.037   1.550   0.086  0.00  0.00    +0.086 C 
ATOM     12  C   UNL     1      -0.007   0.044   0.065  0.00  0.00    +0.103 A 
ATOM     13  C   UNL     1      -1.084  -0.756   0.053  0.00  0.00    +0.057 A 
ATOM     14  C   UNL     1      -0.567  -2.132   0.035  0.00  0.00    +0.079 A 
ATOM     15  C   UNL     1       0.792  -2.013   0.038  0.00  0.00    +0.114 A 
ATOM     16  O   UNL     1       1.102  -0.713   0.050  0.00  0.00    -0.464 OA
ATOM     17  C   UNL     1       1.777  -3.153   0.024  0.00  0.00    +0.087 C 
ENDBRANCH   7  14
ENDBRANCH   1   9
BRANCH   4  18
ATOM     18  C   UNL     1      -6.868  -3.217   0.333  0.00  0.00    +0.117 C 
BRANCH  18  19
ATOM     19  C   UNL     1      -7.312  -1.756   0.422  0.00  0.00    +0.011 C 
ATOM     20  C   UNL     1      -8.556  -1.347  -0.369  0.00  0.00    +0.014 C 
ATOM     21  C   UNL     1      -7.170  -0.897  -0.836  0.00  0.00    +0.014 C 
BRANCH  19  22
ATOM     22  C   UNL     1      -7.081  -1.086   1.752  0.00  0.00    -0.040 A 
ATOM     23  C   UNL     1      -6.851   0.276   1.809  0.00  0.00    +0.005 A 
ATOM     24  C   UNL     1      -6.639   0.891   3.028  0.00  0.00    +0.020 A 
ATOM     25  C   UNL     1      -6.657   0.143   4.192  0.00  0.00    +0.041 A 
ATOM     26  C   UNL     1      -6.887  -1.220   4.135  0.00  0.00    +0.020 A 
ATOM     27  C   UNL     1      -7.104  -1.833   2.915  0.00  0.00    +0.005 A 
ATOM     28 CL   UNL     1      -6.390   0.915   5.724  0.00  0.00    -0.084 Cl
ENDBRANCH  19  22
ENDBRANCH  18  19
ENDBRANCH   4  18
TORSDOF 5
