REMARK  Name = ZINC16844632
REMARK  3 active torsions:
REMARK  status: ('A' for Active; 'I' for Inactive)
REMARK    1  A    between atoms: C_8  and  N_12
REMARK    2  A    between atoms: N_12  and  N_13
REMARK    3  A    between atoms: C_14  and  C_15
REMARK                            x       y       z     vdW  Elec       q    Type
REMARK                         _______ _______ _______ _____ _____    ______ ____
ROOT
ATOM      1  C   UNL     1       5.883   1.660  -0.291  0.00  0.00    +0.005 A 
ATOM      2  C   UNL     1       5.879   3.060  -0.210  0.00  0.00    +0.018 A 
ATOM      3  C   UNL     1       4.710   3.732  -0.122  0.00  0.00    +0.096 A 
ATOM      4  N   UNL     1       3.521   3.065  -0.111  0.00  0.00    -0.268 N 
ATOM      5  C   UNL     1       3.493   1.700  -0.190  0.00  0.00    +0.142 A 
ATOM      6  C   UNL     1       4.701   0.983  -0.282  0.00  0.00    +0.047 A 
ATOM      7  N   UNL     1       2.339   1.039  -0.181  0.00  0.00    -0.213 NA
ATOM      8  C   UNL     1       1.176   1.681  -0.095  0.00  0.00    +0.145 A 
ATOM      9  C   UNL     1       1.158   3.073  -0.019  0.00  0.00    +0.115 A 
ATOM     10  C   UNL     1       2.369   3.762  -0.023  0.00  0.00    +0.260 A 
ATOM     11  O   UNL     1       2.386   4.981   0.048  0.00  0.00    -0.267 OA
ENDROOT
BRANCH   8  12
ATOM     12  N   UNL     1      -0.010   0.971  -0.088  0.00  0.00    -0.221 N 
ATOM     13  H   UNL     1       0.005   0.003  -0.145  0.00  0.00    +0.176 HD
BRANCH  12  14
ATOM     14  N   UNL     1      -1.232   1.650  -0.003  0.00  0.00    -0.186 NA
ATOM     15  C   UNL     1      -2.350   0.988  -0.074  0.00  0.00    +0.176 C 
BRANCH  15  16
ATOM     16  C   UNL     1      -2.335  -0.478  -0.076  0.00  0.00    +0.147 A 
ATOM     17  C   UNL     1      -3.415  -1.291  -0.262  0.00  0.00    +0.051 A 
ATOM     18  C   UNL     1      -2.944  -2.615  -0.187  0.00  0.00    +0.042 A 
ATOM     19  C   UNL     1      -1.616  -2.550   0.037  0.00  0.00    +0.196 A 
ATOM     20  O   UNL     1      -1.250  -1.259   0.098  0.00  0.00    -0.462 OA
ENDBRANCH  15  16
ENDBRANCH  12  14
ENDBRANCH   8  12
TORSDOF 3
