REMARK  Name = ZINC08725034
REMARK  12 active torsions:
REMARK  status: ('A' for Active; 'I' for Inactive)
REMARK    1  A    between atoms: C_1  and  C_2
REMARK    2  A    between atoms: C_3  and  C_31
REMARK    3  A    between atoms: N_9  and  C_10
REMARK    4  A    between atoms: C_10  and  C_11
REMARK    5  A    between atoms: C_11  and  O_12
REMARK    6  A    between atoms: O_12  and  C_13
REMARK    7  A    between atoms: C_13  and  C_14
REMARK    8  A    between atoms: C_14  and  O_15
REMARK    9  A    between atoms: N_16  and  C_30
REMARK   10  A    between atoms: N_19  and  C_22
REMARK   11  A    between atoms: C_22  and  C_23
REMARK   12  A    between atoms: C_23  and  C_24
REMARK                            x       y       z     vdW  Elec       q    Type
REMARK                         _______ _______ _______ _____ _____    ______ ____
ROOT
ATOM      1  C   UNL     1       1.592   3.080   2.733  0.00  0.00    +0.065 C 
ATOM      2  C   UNL     1       1.006   1.745   3.112  0.00  0.00    +0.038 A 
ATOM      3  C   UNL     1       1.386   0.989   4.137  0.00  0.00    +0.043 A 
ATOM      4  N   UNL     1       0.608  -0.155   4.147  0.00  0.00    -0.275 N 
ATOM      5  C   UNL     1       0.359  -1.352   4.802  0.00  0.00    +0.157 A 
ATOM      6  C   UNL     1      -0.679  -1.971   4.106  0.00  0.00    +0.170 A 
ATOM      7  N   UNL     1      -1.015  -1.173   3.097  0.00  0.00    -0.193 NA
ATOM      8  C   UNL     1      -0.261  -0.083   3.112  0.00  0.00    +0.218 A 
ATOM      9  N   UNL     1      -0.020   1.094   2.454  0.00  0.00    -0.311 N 
ATOM     10  N   UNL     1      -1.138  -3.203   4.548  0.00  0.00    -0.279 N 
ATOM     11  C   UNL     1      -0.583  -3.779   5.631  0.00  0.00    +0.333 A 
ATOM     12  O   UNL     1      -0.996  -4.860   6.005  0.00  0.00    -0.246 OA
ATOM     13  N   UNL     1       0.418  -3.190   6.308  0.00  0.00    -0.259 N 
ATOM     14  C   UNL     1       0.906  -1.992   5.926  0.00  0.00    +0.283 A 
ATOM     15  O   UNL     1       1.814  -1.470   6.550  0.00  0.00    -0.265 OA
ATOM     16  C   UNL     1      -2.227  -3.877   3.837  0.00  0.00    +0.155 C 
ATOM     17  C   UNL     1       2.479   1.321   5.121  0.00  0.00    +0.066 C 
ENDROOT
BRANCH   9  18
ATOM     18  C   UNL     1      -0.729   1.579   1.267  0.00  0.00    +0.153 C 
BRANCH  18  19
ATOM     19  C   UNL     1      -0.013   1.086   0.008  0.00  0.00    +0.181 C 
BRANCH  19  20
ATOM     20  O   UNL     1      -0.704   1.559  -1.150  0.00  0.00    -0.376 OA
BRANCH  20  21
ATOM     21  C   UNL     1      -0.114   1.152  -2.386  0.00  0.00    +0.187 C 
BRANCH  21  22
ATOM     22  C   UNL     1      -0.932   1.713  -3.551  0.00  0.00    +0.184 C 
BRANCH  22  23
ATOM     23  O   UNL     1      -0.853   3.140  -3.545  0.00  0.00    -0.393 OA
ATOM     24  H   UNL     1      -1.349   3.564  -4.258  0.00  0.00    +0.209 HD
ENDBRANCH  22  23
ENDBRANCH  21  22
ENDBRANCH  20  21
ENDBRANCH  19  20
ENDBRANCH  18  19
ENDBRANCH   9  18
BRANCH  13  25
ATOM     25  C   UNL     1       0.987  -3.859   7.480  0.00  0.00    +0.134 C 
BRANCH  25  26
ATOM     26  C   UNL     1       0.222  -3.430   8.734  0.00  0.00    +0.057 C 
BRANCH  26  27
ATOM     27  C   UNL     1       0.807  -4.119   9.940  0.00  0.00    -0.046 A 
ATOM     28  C   UNL     1       0.311  -5.344  10.345  0.00  0.00    +0.004 A 
ATOM     29  C   UNL     1       0.851  -5.978  11.448  0.00  0.00    +0.000 A 
ATOM     30  C   UNL     1       1.880  -5.382  12.153  0.00  0.00    +0.000 A 
ATOM     31  C   UNL     1       2.372  -4.154  11.751  0.00  0.00    +0.000 A 
ATOM     32  C   UNL     1       1.836  -3.523  10.645  0.00  0.00    +0.004 A 
ENDBRANCH  26  27
ENDBRANCH  25  26
ENDBRANCH  13  25
TORSDOF 9
