REMARK  Name = ZINC59245192
REMARK  7 active torsions:
REMARK  status: ('A' for Active; 'I' for Inactive)
REMARK    1  A    between atoms: C_7  and  C_19
REMARK    2  A    between atoms: N_9  and  C_10
REMARK    3  A    between atoms: C_10  and  C_11
REMARK    4  A    between atoms: C_20  and  C_21
REMARK    5  A    between atoms: C_20  and  C_23
REMARK    6  A    between atoms: N_25  and  C_26
REMARK    7  A    between atoms: C_30  and  N_32
REMARK                            x       y       z     vdW  Elec       q    Type
REMARK                         _______ _______ _______ _____ _____    ______ ____
ROOT
ATOM      1  C   UNL     1       0.690   0.872   2.142  0.00  0.00    +0.001 A 
ATOM      2  C   UNL     1       1.942   1.468   2.182  0.00  0.00    +0.002 A 
ATOM      3  C   UNL     1       3.054   0.799   1.718  0.00  0.00    +0.026 A 
ATOM      4  C   UNL     1       2.926  -0.487   1.205  0.00  0.00    +0.050 A 
ATOM      5  C   UNL     1       1.659  -1.089   1.166  0.00  0.00    +0.007 A 
ATOM      6  C   UNL     1       0.544  -0.402   1.637  0.00  0.00    +0.010 A 
ATOM      7  C   UNL     1       1.865  -2.426   0.575  0.00  0.00    +0.002 A 
ATOM      8  C   UNL     1       3.217  -2.524   0.308  0.00  0.00    +0.095 A 
ATOM      9  N   UNL     1       3.833  -1.385   0.679  0.00  0.00    -0.342 N 
ENDROOT
BRANCH   7  10
ATOM     10  C   UNL     1       0.878  -3.408   0.332  0.00  0.00    +0.034 C 
ATOM     11  C   UNL     1       1.142  -4.455  -0.534  0.00  0.00    +0.114 C 
BRANCH  11  12
ATOM     12  C   UNL     1       0.199  -5.574  -0.643  0.00  0.00    +0.259 C 
ATOM     13  O   UNL     1      -0.816  -5.582   0.029  0.00  0.00    -0.269 OA
ATOM     14  N   UNL     1       0.456  -6.593  -1.486  0.00  0.00    -0.281 N 
ATOM     15  H   UNL     1       1.294  -6.620  -1.973  0.00  0.00    +0.155 HD
BRANCH  14  16
ATOM     16  C   UNL     1      -0.487  -7.612  -1.660  0.00  0.00    +0.036 A 
ATOM     17  C   UNL     1      -0.067  -8.921  -1.863  0.00  0.00    +0.023 A 
ATOM     18  C   UNL     1      -1.000  -9.924  -2.034  0.00  0.00    +0.004 A 
ATOM     19  C   UNL     1      -2.351  -9.628  -2.003  0.00  0.00    +0.033 A 
ATOM     20  C   UNL     1      -2.771  -8.326  -1.800  0.00  0.00    +0.128 A 
ATOM     21  C   UNL     1      -1.843  -7.319  -1.623  0.00  0.00    +0.056 A 
BRANCH  20  22
ATOM     22  N   UNL     1      -4.218  -8.014  -1.767  0.00  0.00    +0.056 N 
ATOM     23  O   UNL     1      -5.031  -8.896  -1.918  0.00  0.00    -0.126 OA
ATOM     24  O   UNL     1      -4.586  -6.876  -1.590  0.00  0.00    -0.126 OA
ENDBRANCH  20  22
ENDBRANCH  14  16
ENDBRANCH  11  12
BRANCH  11  25
ATOM     25  C   UNL     1       2.336  -4.446  -1.325  0.00  0.00    +0.104 C 
ATOM     26  N   UNL     1       3.283  -4.439  -1.953  0.00  0.00    -0.191 NA
ENDBRANCH  11  25
ENDBRANCH   7  10
BRANCH   9  27
ATOM     27  C   UNL     1       5.270  -1.134   0.543  0.00  0.00    +0.157 C 
BRANCH  27  28
ATOM     28  C   UNL     1       5.964  -1.472   1.838  0.00  0.00    -0.026 A 
ATOM     29  C   UNL     1       6.116  -0.504   2.813  0.00  0.00    +0.007 A 
ATOM     30  C   UNL     1       6.753  -0.813   4.001  0.00  0.00    +0.022 A 
ATOM     31  C   UNL     1       7.238  -2.091   4.214  0.00  0.00    +0.059 A 
ATOM     32  C   UNL     1       7.085  -3.060   3.237  0.00  0.00    +0.060 A 
ATOM     33  C   UNL     1       6.443  -2.751   2.051  0.00  0.00    +0.026 A 
ATOM     34 CL   UNL     1       7.693  -4.664   3.502  0.00  0.00    -0.082 Cl
ATOM     35 CL   UNL     1       8.038  -2.479   5.705  0.00  0.00    -0.082 Cl
ENDBRANCH  27  28
ENDBRANCH   9  27
TORSDOF 7
