REMARK  Name = ZINC66176684
REMARK  7 active torsions:
REMARK  status: ('A' for Active; 'I' for Inactive)
REMARK    1  A    between atoms: C_1  and  C_2
REMARK    2  A    between atoms: C_5  and  N_8
REMARK    3  A    between atoms: C_11  and  N_14
REMARK    4  A    between atoms: N_14  and  C_15
REMARK    5  A    between atoms: N_18  and  C_19
REMARK    6  A    between atoms: C_19  and  C_20
REMARK    7  A    between atoms: C_19  and  C_23
REMARK                            x       y       z     vdW  Elec       q    Type
REMARK                         _______ _______ _______ _____ _____    ______ ____
ROOT
ATOM      1  N   UNL     1      -1.356   0.100   4.220  0.00  0.00    +0.382 N 
ATOM      2  C   UNL     1      -0.752  -0.131   5.538  0.00  0.00    -0.077 C 
ATOM      3  C   UNL     1      -1.691   0.386   6.631  0.00  0.00    +0.004 C 
ATOM      4  C   UNL     1      -3.027  -0.358   6.542  0.00  0.00    +0.074 C 
ATOM      5  C   UNL     1      -3.611  -0.171   5.139  0.00  0.00    +0.004 C 
ATOM      6  C   UNL     1      -2.602  -0.667   4.101  0.00  0.00    -0.077 C 
ATOM      7  H   UNL     1      -1.556   1.083   4.112  0.00  0.00    -0.081 HD
ENDROOT
BRANCH   1  12
ATOM      8  C   UNL     1       0.930   1.770   0.668  0.00  0.00    +0.007 C 
ATOM      9  C   UNL     1       1.232   0.279   0.828  0.00  0.00    -0.014 C 
ATOM     10  C   UNL     1      -0.067  -0.520   0.706  0.00  0.00    +0.002 C 
ATOM     11  C   UNL     1      -1.044  -0.077   1.798  0.00  0.00    -0.015 C 
ATOM     12  C   UNL     1      -0.419  -0.325   3.172  0.00  0.00    -0.069 C 
ATOM     13  C   UNL     1       0.880   0.473   3.294  0.00  0.00    -0.015 C 
ATOM     14  C   UNL     1       1.856   0.030   2.203  0.00  0.00    +0.002 C 
ENDBRANCH   1  12
BRANCH   4  15
ATOM     15  N   UNL     1      -3.956   0.184   7.536  0.00  0.00    -0.286 N 
ATOM     16  C   UNL     1      -4.335   1.598   7.490  0.00  0.00    +0.134 C 
ATOM     17  C   UNL     1      -4.462  -0.618   8.494  0.00  0.00    +0.302 C 
ATOM     18  O   UNL     1      -4.147  -1.792   8.533  0.00  0.00    -0.253 OA
ATOM     19  N   UNL     1      -5.317  -0.119   9.409  0.00  0.00    -0.296 N 
ATOM     20  H   UNL     1      -5.568   0.817   9.378  0.00  0.00    +0.151 HD
BRANCH  19  21
ATOM     21  C   UNL     1      -5.866  -0.991  10.450  0.00  0.00    +0.081 C 
BRANCH  21  22
ATOM     22  C   UNL     1      -5.810  -0.273  11.799  0.00  0.00    +0.010 C 
ATOM     23  C   UNL     1      -4.767  -0.752  12.812  0.00  0.00    +0.006 C 
ATOM     24  C   UNL     1      -6.250  -1.058  13.037  0.00  0.00    +0.006 C 
ENDBRANCH  21  22
BRANCH  21  25
ATOM     25  C   UNL     1      -7.320  -1.332  10.114  0.00  0.00    +0.010 C 
ATOM     26  C   UNL     1      -7.718  -2.809  10.122  0.00  0.00    +0.006 C 
ATOM     27  C   UNL     1      -7.588  -2.059   8.795  0.00  0.00    +0.006 C 
ENDBRANCH  21  25
ENDBRANCH  19  21
ENDBRANCH   4  15
TORSDOF 5
