REMARK  Name = ZINC39554649
REMARK  3 active torsions:
REMARK  status: ('A' for Active; 'I' for Inactive)
REMARK    1  A    between atoms: C_1  and  C_2
REMARK    2  A    between atoms: C_4  and  C_16
REMARK    3  A    between atoms: N_18  and  C_19
REMARK                            x       y       z     vdW  Elec       q    Type
REMARK                         _______ _______ _______ _____ _____    ______ ____
ROOT
ATOM      1  C   UNL     1       0.031  -2.821  -2.491  0.00  0.00    +0.250 C 
ATOM      2  O   UNL     1       0.056  -4.037  -2.478  0.00  0.00    -0.270 OA
ATOM      3  N   UNL     1       0.014  -2.160  -3.666  0.00  0.00    -0.281 N 
ATOM      4  H   UNL     1      -0.074  -1.194  -3.678  0.00  0.00    +0.155 HD
ENDROOT
BRANCH   1   8
ATOM      5  C   UNL     1      -0.052   1.503   0.010  0.00  0.00    +0.065 C 
ATOM      6  C   UNL     1      -0.021  -0.004   0.002  0.00  0.00    +0.041 A 
ATOM      7  C   UNL     1      -0.011  -0.673  -1.209  0.00  0.00    +0.038 A 
ATOM      8  C   UNL     1       0.018  -2.069  -1.220  0.00  0.00    +0.068 A 
ATOM      9  C   UNL     1       0.035  -2.737   0.021  0.00  0.00    +0.120 A 
ATOM     10  C   UNL     1       0.021  -1.973   1.204  0.00  0.00    +0.161 A 
ATOM     11  N   UNL     1       0.000  -0.653   1.148  0.00  0.00    -0.233 NA
ATOM     12  N   UNL     1       0.038  -2.885   2.237  0.00  0.00    -0.312 N 
ATOM     13  C   UNL     1       0.070  -4.129   1.685  0.00  0.00    +0.112 A 
ATOM     14  N   UNL     1       0.063  -4.033   0.384  0.00  0.00    -0.230 NA
ATOM     15  C   UNL     1       0.117  -5.422   2.465  0.00  0.00    +0.074 C 
ATOM     16  C   UNL     1      -0.928  -5.378   3.582  0.00  0.00    +0.008 C 
ATOM     17  C   UNL     1      -0.313  -4.758   4.832  0.00  0.00    +0.002 C 
ATOM     18  C   UNL     1       0.709  -3.689   4.450  0.00  0.00    +0.022 C 
ATOM     19  C   UNL     1       0.016  -2.571   3.668  0.00  0.00    +0.125 C 
ENDBRANCH   1   8
BRANCH   3  20
ATOM     20  C   UNL     1       0.124  -2.868  -4.869  0.00  0.00    +0.036 A 
ATOM     21  C   UNL     1      -0.457  -4.125  -4.990  0.00  0.00    +0.025 A 
ATOM     22  C   UNL     1      -0.353  -4.828  -6.173  0.00  0.00    +0.029 A 
ATOM     23  C   UNL     1       0.334  -4.279  -7.246  0.00  0.00    +0.067 A 
ATOM     24  C   UNL     1       0.918  -3.016  -7.128  0.00  0.00    +0.069 A 
ATOM     25  C   UNL     1       0.807  -2.311  -5.940  0.00  0.00    +0.051 A 
ATOM     26  N   UNL     1       1.526  -2.738  -8.350  0.00  0.00    -0.306 N 
ATOM     27  H   UNL     1       2.015  -1.929  -8.569  0.00  0.00    +0.170 HD
ATOM     28  C   UNL     1       1.321  -3.783  -9.174  0.00  0.00    +0.325 A 
ATOM     29  O   UNL     1       1.723  -3.860 -10.320  0.00  0.00    -0.247 OA
ATOM     30  N   UNL     1       0.605  -4.728  -8.538  0.00  0.00    -0.306 N 
ATOM     31  H   UNL     1       0.326  -5.578  -8.914  0.00  0.00    +0.170 HD
ENDBRANCH   3  20
TORSDOF 2
