REMARK  Name = ZINC39847235
REMARK  4 active torsions:
REMARK  status: ('A' for Active; 'I' for Inactive)
REMARK    1  A    between atoms: C_1  and  C_2
REMARK    2  A    between atoms: C_5  and  N_8
REMARK    3  A    between atoms: C_13  and  C_16
REMARK    4  A    between atoms: C_16  and  C_17
REMARK                            x       y       z     vdW  Elec       q    Type
REMARK                         _______ _______ _______ _____ _____    ______ ____
ROOT
ATOM      1  N   UNL     1       0.058  -4.142  -0.021  0.00  0.00    -0.226 NA
ATOM      2  C   UNL     1       0.875  -4.792   0.775  0.00  0.00    +0.161 C 
ATOM      3  N   UNL     1       1.036  -6.156   0.900  0.00  0.00    -0.264 N 
ATOM      4  C   UNL     1       1.899  -6.694   1.745  0.00  0.00    +0.232 C 
ATOM      5  O   UNL     1       2.035  -7.894   1.850  0.00  0.00    -0.274 OA
ATOM      6  C   UNL     1       2.710  -5.713   2.577  0.00  0.00    +0.144 C 
ATOM      7  S   UNL     1       2.045  -4.118   1.945  0.00  0.00    -0.077 S 
ATOM      8  H   UNL     1       0.495  -6.743   0.348  0.00  0.00    +0.157 HD
ENDROOT
BRANCH   1  13
ATOM      9  C   UNL     1      -0.018   1.503   0.010  0.00  0.00    +0.044 C 
ATOM     10  C   UNL     1       0.002  -0.004   0.002  0.00  0.00    -0.050 A 
ATOM     11  C   UNL     1       0.006  -0.686  -1.202  0.00  0.00    +0.005 A 
ATOM     12  C   UNL     1       0.024  -2.065  -1.217  0.00  0.00    +0.028 A 
ATOM     13  C   UNL     1       0.040  -2.773  -0.013  0.00  0.00    +0.067 A 
ATOM     14  C   UNL     1       0.037  -2.079   1.198  0.00  0.00    +0.028 A 
ATOM     15  C   UNL     1       0.023  -0.699   1.198  0.00  0.00    +0.005 A 
ENDBRANCH   1  13
BRANCH   6  16
ATOM     16  C   UNL     1       4.206  -5.841   2.283  0.00  0.00    +0.059 C 
BRANCH  16  17
ATOM     17  C   UNL     1       4.979  -4.942   3.213  0.00  0.00    -0.043 A 
ATOM     18  C   UNL     1       5.248  -3.637   2.846  0.00  0.00    +0.023 A 
ATOM     19  C   UNL     1       5.959  -2.811   3.700  0.00  0.00    +0.043 A 
ATOM     20  C   UNL     1       6.399  -3.292   4.920  0.00  0.00    +0.040 A 
ATOM     21  C   UNL     1       6.129  -4.598   5.286  0.00  0.00    +0.043 A 
ATOM     22  C   UNL     1       5.414  -5.422   4.434  0.00  0.00    +0.023 A 
ATOM     23 CL   UNL     1       6.682  -5.203   6.816  0.00  0.00    -0.083 Cl
ATOM     24 CL   UNL     1       6.298  -1.172   3.239  0.00  0.00    -0.083 Cl
ENDBRANCH  16  17
ENDBRANCH   6  16
TORSDOF 3
