REMARK  Name = ZINC14200737
REMARK  10 active torsions:
REMARK  status: ('A' for Active; 'I' for Inactive)
REMARK    1  A    between atoms: C_1  and  C_2
REMARK    2  A    between atoms: C_3  and  C_30
REMARK    3  A    between atoms: C_4  and  C_29
REMARK    4  A    between atoms: C_7  and  C_8
REMARK    5  A    between atoms: C_8  and  C_10
REMARK    6  A    between atoms: C_10  and  S_11
REMARK    7  A    between atoms: S_11  and  C_12
REMARK    8  A    between atoms: C_15  and  C_18
REMARK    9  A    between atoms: N_16  and  C_17
REMARK   10  A    between atoms: C_30  and  C_32
REMARK                            x       y       z     vdW  Elec       q    Type
REMARK                         _______ _______ _______ _____ _____    ______ ____
ROOT
ATOM      1  C   UNL     1       1.669  -0.727   0.970  0.00  0.00    +0.192 A 
ATOM      2  N   UNL     1       0.478  -0.209   0.777  0.00  0.00    -0.122 NA
ATOM      3  N   UNL     1       0.537   1.071   0.876  0.00  0.00    -0.130 NA
ATOM      4  C   UNL     1       1.759   1.443   1.135  0.00  0.00    +0.178 A 
ATOM      5  N   UNL     1       2.523   0.311   1.205  0.00  0.00    -0.306 N 
ATOM      6  C   UNL     1       3.961   0.230   1.475  0.00  0.00    +0.153 C 
ENDROOT
BRANCH   4   7
ATOM      7  C   UNL     1       2.240   2.859   1.324  0.00  0.00    +0.278 C 
ATOM      8  C   UNL     1       2.306   3.568  -0.035  0.00  0.00    +0.281 C 
ATOM      9  O   UNL     1       2.752   4.911   0.181  0.00  0.00    -0.484 OA
ATOM     10  C   UNL     1       2.159   5.597   1.196  0.00  0.00    +0.162 A 
ATOM     11  C   UNL     1       2.268   6.979   1.240  0.00  0.00    +0.049 A 
ATOM     12  C   UNL     1       1.673   7.689   2.266  0.00  0.00    +0.004 A 
ATOM     13  C   UNL     1       0.969   7.024   3.252  0.00  0.00    +0.004 A 
ATOM     14  C   UNL     1       0.855   5.647   3.214  0.00  0.00    +0.049 A 
ATOM     15  C   UNL     1       1.448   4.929   2.186  0.00  0.00    +0.163 A 
ATOM     16  O   UNL     1       1.323   3.573   2.159  0.00  0.00    -0.474 OA
ENDBRANCH   4   7
BRANCH   1  17
ATOM     17  S   UNL     1       2.085  -2.439   0.933  0.00  0.00    -0.078 S 
BRANCH  17  18
ATOM     18  C   UNL     1       0.460  -3.150   0.573  0.00  0.00    +0.158 C 
BRANCH  18  19
ATOM     19  C   UNL     1       0.575  -4.650   0.493  0.00  0.00    +0.190 C 
ATOM     20  O   UNL     1       1.651  -5.187   0.663  0.00  0.00    -0.290 OA
BRANCH  19  27
ATOM     21  C   UNL     1       0.560  -7.750   0.266  0.00  0.00    +0.047 C 
ATOM     22  C   UNL     1      -0.606  -6.807   0.114  0.00  0.00    -0.012 A 
ATOM     23  C   UNL     1      -1.946  -7.163  -0.162  0.00  0.00    +0.041 A 
ATOM     24  C   UNL     1      -2.676  -5.985  -0.223  0.00  0.00    +0.024 A 
ATOM     25  N   UNL     1      -1.849  -4.956   0.006  0.00  0.00    -0.355 N 
ATOM     26  H   UNL     1      -2.107  -4.021   0.020  0.00  0.00    +0.166 HD
ATOM     27  C   UNL     1      -0.572  -5.435   0.219  0.00  0.00    +0.087 A 
ATOM     28  C   UNL     1      -4.154  -5.880  -0.499  0.00  0.00    +0.064 C 
BRANCH  23  29
ATOM     29  C   UNL     1      -2.466  -8.521  -0.354  0.00  0.00    +0.162 C 
ATOM     30  O   UNL     1      -2.790  -9.187   0.607  0.00  0.00    -0.292 OA
ATOM     31  C   UNL     1      -2.596  -9.088  -1.744  0.00  0.00    +0.091 C 
ENDBRANCH  23  29
ENDBRANCH  19  27
ENDBRANCH  18  19
ENDBRANCH  17  18
ENDBRANCH   1  17
TORSDOF 6
