REMARK  Name = ZINC39693505
REMARK  10 active torsions:
REMARK  status: ('A' for Active; 'I' for Inactive)
REMARK    1  A    between atoms: C_1  and  C_2
REMARK    2  A    between atoms: C_2  and  C_3
REMARK    3  A    between atoms: C_2  and  C_4
REMARK    4  A    between atoms: C_2  and  O_5
REMARK    5  A    between atoms: O_5  and  C_6
REMARK    6  A    between atoms: N_8  and  C_9
REMARK    7  A    between atoms: C_9  and  C_10
REMARK    8  A    between atoms: C_10  and  N_11
REMARK    9  A    between atoms: C_12  and  C_14
REMARK   10  A    between atoms: C_25  and  C_27
REMARK                            x       y       z     vdW  Elec       q    Type
REMARK                         _______ _______ _______ _____ _____    ______ ____
ROOT
ATOM      1  C   UNL     1       7.672  -0.611  -5.523  0.00  0.00    +0.100 C 
ATOM      2  C   UNL     1       8.578  -0.856  -4.296  0.00  0.00    +0.121 C 
ATOM      3  N   UNL     1       9.370  -2.058  -4.648  0.00  0.00    -0.296 N 
ATOM      4  C   UNL     1       9.689  -1.881  -6.085  0.00  0.00    +0.115 C 
ATOM      5  C   UNL     1       8.406  -1.282  -6.696  0.00  0.00    -0.004 C 
ATOM      6  C   UNL     1       8.760  -0.247  -7.759  0.00  0.00    -0.010 C 
ATOM      7  C   UNL     1       9.437  -0.946  -8.941  0.00  0.00    -0.082 C 
ATOM      8  N   UNL     1       8.531  -1.958  -9.498  0.00  0.00    +0.379 N 
ATOM      9  C   UNL     1       8.269  -3.000  -8.498  0.00  0.00    -0.082 C 
ATOM     10  C   UNL     1       7.543  -2.388  -7.297  0.00  0.00    -0.010 C 
ATOM     11  C   UNL     1       9.721  -3.081  -3.844  0.00  0.00    +0.249 C 
ATOM     12  O   UNL     1      10.456  -3.956  -4.260  0.00  0.00    -0.270 OA
ATOM     13  H   UNL     1       7.660  -1.520  -9.760  0.00  0.00    -0.086 HD
ATOM     14  H   UNL     1       8.954  -2.375 -10.313  0.00  0.00    -0.086 HD
ENDROOT
BRANCH  11  15
ATOM     15  C   UNL     1       9.212  -3.140  -2.459  0.00  0.00    +0.073 A 
ATOM     16  C   UNL     1       9.026  -1.964  -1.730  0.00  0.00    +0.036 A 
ATOM     17  C   UNL     1       8.550  -2.026  -0.436  0.00  0.00    +0.042 A 
ATOM     18  C   UNL     1       8.257  -3.251   0.141  0.00  0.00    +0.023 A 
ATOM     19  C   UNL     1       8.438  -4.420  -0.574  0.00  0.00    +0.040 A 
ATOM     20  C   UNL     1       8.909  -4.373  -1.874  0.00  0.00    +0.136 A 
ATOM     21  F   UNL     1       9.081  -5.516  -2.574  0.00  0.00    -0.205 F 
ATOM     22 CL   UNL     1       8.319  -0.564   0.472  0.00  0.00    -0.084 Cl
ENDBRANCH  11  15
BRANCH   1  24
ATOM     23  N   UNL     1       5.235  -0.743  -5.929  0.00  0.00    -0.314 N 
ATOM     24  C   UNL     1       6.323  -1.250  -5.314  0.00  0.00    +0.218 C 
ATOM     25  O   UNL     1       6.215  -2.219  -4.594  0.00  0.00    -0.275 OA
ATOM     26  H   UNL     1       5.321   0.033  -6.505  0.00  0.00    +0.149 HD
BRANCH  23  27
ATOM     27  C   UNL     1       3.924  -1.364  -5.726  0.00  0.00    +0.123 C 
BRANCH  27  28
ATOM     28  C   UNL     1       2.869  -0.601  -6.530  0.00  0.00    +0.126 C 
BRANCH  28  31
ATOM     29  C   UNL     1       0.470  -0.715  -6.941  0.00  0.00    +0.401 C 
ATOM     30  O   UNL     1       0.577   0.257  -7.663  0.00  0.00    -0.226 OA
ATOM     31  N   UNL     1       1.557  -1.221  -6.327  0.00  0.00    -0.280 N 
ATOM     32  H   UNL     1       1.472  -1.997  -5.751  0.00  0.00    +0.152 HD
BRANCH  29  33
ATOM     33  O   UNL     1      -0.735  -1.285  -6.755  0.00  0.00    -0.445 OA
BRANCH  33  35
ATOM     34  C   UNL     1      -1.597  -0.740  -8.946  0.00  0.00    +0.055 C 
ATOM     35  C   UNL     1      -1.844  -0.696  -7.437  0.00  0.00    +0.107 C 
ATOM     36  C   UNL     1      -2.004   0.759  -6.989  0.00  0.00    +0.055 C 
ATOM     37  C   UNL     1      -3.119  -1.474  -7.106  0.00  0.00    +0.055 C 
ENDBRANCH  33  35
ENDBRANCH  29  33
ENDBRANCH  28  31
ENDBRANCH  27  28
ENDBRANCH  23  27
ENDBRANCH   1  24
TORSDOF 7
