REMARK  Name = ZINC11350793
REMARK  12 active torsions:
REMARK  status: ('A' for Active; 'I' for Inactive)
REMARK    1  A    between atoms: C_1  and  C_2
REMARK    2  A    between atoms: C_2  and  C_3
REMARK    3  A    between atoms: C_3  and  C_4
REMARK    4  A    between atoms: C_4  and  N_5
REMARK    5  A    between atoms: C_6  and  N_36
REMARK    6  A    between atoms: C_7  and  N_14
REMARK    7  A    between atoms: N_14  and  C_15
REMARK    8  A    between atoms: N_14  and  C_18
REMARK    9  A    between atoms: C_15  and  C_16
REMARK   10  A    between atoms: C_16  and  C_17
REMARK   11  A    between atoms: C_18  and  C_19
REMARK   12  A    between atoms: N_21  and  C_22
REMARK                            x       y       z     vdW  Elec       q    Type
REMARK                         _______ _______ _______ _____ _____    ______ ____
ROOT
ATOM      1  N   UNL     1      -6.015   1.850   0.353  0.00  0.00    -0.314 N 
ENDROOT
BRANCH   1   4
ATOM      2  N   UNL     1      -8.999   0.745   2.182  0.00  0.00    -0.280 N 
ATOM      3  C   UNL     1      -7.840   1.421   1.878  0.00  0.00    +0.127 A 
ATOM      4  C   UNL     1      -7.208   1.169   0.690  0.00  0.00    +0.134 A 
ATOM      5  C   UNL     1      -7.766   0.227  -0.193  0.00  0.00    +0.277 A 
ATOM      6  O   UNL     1      -7.225  -0.010  -1.259  0.00  0.00    -0.266 OA
ATOM      7  N   UNL     1      -8.900  -0.415   0.149  0.00  0.00    -0.273 N 
ATOM      8  H   UNL     1      -9.294  -1.092  -0.473  0.00  0.00    +0.173 HD
ATOM      9  C   UNL     1      -9.508  -0.155   1.321  0.00  0.00    +0.331 A 
ATOM     10  O   UNL     1     -10.534  -0.743   1.607  0.00  0.00    -0.246 OA
BRANCH   3  11
ATOM     11  N   UNL     1      -7.320   2.341   2.759  0.00  0.00    -0.343 N 
ATOM     12  H   UNL     1      -6.502   2.815   2.540  0.00  0.00    +0.144 HD
ATOM     13  H   UNL     1      -7.771   2.516   3.600  0.00  0.00    +0.144 HD
ENDBRANCH   3  11
BRANCH   2  14
ATOM     14  C   UNL     1      -9.683   1.007   3.451  0.00  0.00    +0.128 C 
BRANCH  14  15
ATOM     15  C   UNL     1     -10.694   2.139   3.261  0.00  0.00    +0.021 C 
BRANCH  15  17
ATOM     16  C   UNL     1     -12.420   3.545   4.396  0.00  0.00    +0.004 C 
ATOM     17  C   UNL     1     -11.409   2.413   4.586  0.00  0.00    -0.002 C 
ENDBRANCH  15  17
ENDBRANCH  14  15
ENDBRANCH   2  14
ENDBRANCH   1   4
BRANCH   1  18
ATOM     18  C   UNL     1      -6.181   2.620  -0.887  0.00  0.00    +0.105 C 
BRANCH  18  19
ATOM     19  C   UNL     1      -7.191   3.746  -0.657  0.00  0.00    +0.015 C 
ATOM     20  C   UNL     1      -7.364   4.548  -1.949  0.00  0.00    +0.005 C 
ENDBRANCH  18  19
ENDBRANCH   1  18
BRANCH   1  21
ATOM     21  C   UNL     1      -4.888   0.915   0.245  0.00  0.00    +0.201 C 
BRANCH  21  22
ATOM     22  C   UNL     1      -3.601   1.691   0.130  0.00  0.00    +0.235 C 
ATOM     23  O   UNL     1      -3.621   2.903   0.137  0.00  0.00    -0.274 OA
ATOM     24  N   UNL     1      -2.428   1.037   0.019  0.00  0.00    -0.284 N 
ATOM     25  H   UNL     1      -2.417   0.070  -0.064  0.00  0.00    +0.155 HD
BRANCH  24  26
ATOM     26  C   UNL     1      -1.224   1.753   0.023  0.00  0.00    +0.037 A 
ATOM     27  C   UNL     1      -1.106   2.910   0.782  0.00  0.00    +0.027 A 
ATOM     28  C   UNL     1       0.079   3.620   0.782  0.00  0.00    +0.051 A 
ATOM     29  C   UNL     1       1.155   3.178   0.030  0.00  0.00    +0.167 A 
ATOM     30  C   UNL     1       1.042   2.015  -0.728  0.00  0.00    +0.169 A 
ATOM     31  C   UNL     1      -0.146   1.304  -0.728  0.00  0.00    +0.072 A 
ATOM     32  O   UNL     1       2.227   1.795  -1.371  0.00  0.00    -0.447 OA
ATOM     33  C   UNL     1       3.187   2.618  -0.694  0.00  0.00    +0.254 C 
ATOM     34  O   UNL     1       2.411   3.689  -0.138  0.00  0.00    -0.448 OA
ATOM     35  C   UNL     1       4.211   3.162  -1.684  0.00  0.00    +0.093 C 
ATOM     36  C   UNL     1       5.005   2.002  -2.289  0.00  0.00    +0.008 C 
ATOM     37  C   UNL     1       5.712   1.233  -1.171  0.00  0.00    +0.000 C 
ATOM     38  C   UNL     1       4.673   0.675  -0.196  0.00  0.00    +0.008 C 
ATOM     39  C   UNL     1       3.876   1.830   0.415  0.00  0.00    +0.093 C 
ENDBRANCH  24  26
ENDBRANCH  21  22
ENDBRANCH   1  21
TORSDOF 10
