REMARK  Name = ZINC12897329
REMARK  7 active torsions:
REMARK  status: ('A' for Active; 'I' for Inactive)
REMARK    1  A    between atoms: C_3  and  O_26
REMARK    2  A    between atoms: C_6  and  C_7
REMARK    3  A    between atoms: C_10  and  S_13
REMARK    4  A    between atoms: N_11  and  N_12
REMARK    5  A    between atoms: S_13  and  C_14
REMARK    6  A    between atoms: C_14  and  C_15
REMARK    7  A    between atoms: O_26  and  C_27
REMARK                            x       y       z     vdW  Elec       q    Type
REMARK                         _______ _______ _______ _____ _____    ______ ____
ROOT
ATOM      1  C   UNL     1       0.002  -0.004   0.002  0.00  0.00    +0.182 A 
ATOM      2  N   UNL     1       1.035  -0.772   0.262  0.00  0.00    -0.127 NA
ATOM      3  N   UNL     1       0.698  -2.008   0.164  0.00  0.00    -0.121 NA
ATOM      4  C   UNL     1      -0.571  -2.106  -0.163  0.00  0.00    +0.209 A 
ATOM      5  N   UNL     1      -1.060  -0.835  -0.273  0.00  0.00    -0.224 N 
ENDROOT
BRANCH   1  11
ATOM      6  C   UNL     1      -1.235   2.157   0.020  0.00  0.00    +0.015 A 
ATOM      7  C   UNL     1      -1.250   3.536   0.033  0.00  0.00    +0.046 A 
ATOM      8  C   UNL     1      -0.056   4.245   0.025  0.00  0.00    +0.127 A 
ATOM      9  C   UNL     1       1.157   3.568   0.010  0.00  0.00    +0.046 A 
ATOM     10  C   UNL     1       1.180   2.190   0.003  0.00  0.00    +0.015 A 
ATOM     11  C   UNL     1      -0.018   1.474   0.010  0.00  0.00    +0.021 A 
BRANCH   8  12
ATOM     12  O   UNL     1      -0.074   5.603   0.033  0.00  0.00    -0.434 OA
BRANCH  12  13
ATOM     13  C   UNL     1      -1.356   6.234   0.048  0.00  0.00    +0.541 C 
ATOM     14  F   UNL     1      -2.077   5.855  -1.089  0.00  0.00    -0.166 F 
ATOM     15  F   UNL     1      -2.054   5.843   1.195  0.00  0.00    -0.166 F 
ENDBRANCH  12  13
ENDBRANCH   8  12
ENDBRANCH   1  11
BRANCH   5  16
ATOM     16  N   UNL     1      -2.335  -0.466  -0.593  0.00  0.00    -0.295 N 
ATOM     17  H   UNL     1      -2.442  -0.360  -1.591  0.00  0.00    +0.163 HD
ATOM     18  H   UNL     1      -3.005  -1.125  -0.225  0.00  0.00    +0.163 HD
ENDBRANCH   5  16
BRANCH   4  19
ATOM     19  S   UNL     1      -1.475  -3.598  -0.408  0.00  0.00    -0.077 S 
BRANCH  19  20
ATOM     20  C   UNL     1      -0.172  -4.812  -0.083  0.00  0.00    +0.151 C 
BRANCH  20  21
ATOM     21  C   UNL     1      -0.732  -6.203  -0.238  0.00  0.00    +0.121 A 
ATOM     22  N   UNL     1       0.098  -7.259  -0.033  0.00  0.00    -0.309 N 
ATOM     23  H   UNL     1       1.027  -7.114   0.207  0.00  0.00    +0.170 HD
ATOM     24  C   UNL     1      -0.385  -8.518  -0.167  0.00  0.00    +0.266 A 
ATOM     25  O   UNL     1       0.334  -9.488   0.010  0.00  0.00    -0.267 OA
ATOM     26  C   UNL     1      -1.727  -8.675  -0.513  0.00  0.00    +0.102 A 
ATOM     27  C   UNL     1      -2.564  -7.564  -0.720  0.00  0.00    +0.085 A 
ATOM     28  N   UNL     1      -1.980  -6.332  -0.555  0.00  0.00    -0.232 NA
ATOM     29  C   UNL     1      -3.889  -7.864  -1.063  0.00  0.00    +0.036 A 
ATOM     30  C   UNL     1      -4.288  -9.149  -1.175  0.00  0.00    +0.048 A 
ATOM     31  S   UNL     1      -2.799 -10.058  -0.799  0.00  0.00    -0.090 S 
ENDBRANCH  20  21
ENDBRANCH  19  20
ENDBRANCH   4  19
TORSDOF 7
