REMARK  Name = ZINC37866617
REMARK  7 active torsions:
REMARK  status: ('A' for Active; 'I' for Inactive)
REMARK    1  A    between atoms: C_1  and  C_2
REMARK    2  A    between atoms: C_5  and  N_9
REMARK    3  A    between atoms: C_10  and  C_12
REMARK    4  A    between atoms: C_13  and  N_14
REMARK    5  A    between atoms: C_13  and  C_24
REMARK    6  A    between atoms: N_14  and  N_15
REMARK    7  A    between atoms: C_16  and  C_18
REMARK                            x       y       z     vdW  Elec       q    Type
REMARK                         _______ _______ _______ _____ _____    ______ ____
ROOT
ATOM      1  C   UNL     1       0.084  -6.278   1.131  0.00  0.00    +0.087 C 
ATOM      2  C   UNL     1       0.313  -6.947   2.279  0.00  0.00    +0.024 C 
ATOM      3  C   UNL     1       0.311  -6.210   3.594  0.00  0.00    +0.062 C 
ENDROOT
BRANCH   1   5
ATOM      4  N   UNL     1      -0.433  -4.220   0.026  0.00  0.00    -0.282 N 
ATOM      5  C   UNL     1      -0.325  -4.925   1.170  0.00  0.00    +0.243 C 
ATOM      6  O   UNL     1      -0.581  -4.397   2.237  0.00  0.00    -0.270 OA
ATOM      7  H   UNL     1      -0.278  -4.654  -0.827  0.00  0.00    +0.155 HD
BRANCH   4  12
ATOM      8  C   UNL     1      -1.794   1.285   0.205  0.00  0.00    +0.045 C 
ATOM      9  C   UNL     1      -1.432  -0.177   0.158  0.00  0.00    -0.032 A 
ATOM     10  C   UNL     1      -1.883  -0.967  -0.884  0.00  0.00    +0.006 A 
ATOM     11  C   UNL     1      -1.553  -2.307  -0.931  0.00  0.00    +0.023 A 
ATOM     12  C   UNL     1      -0.767  -2.863   0.071  0.00  0.00    +0.035 A 
ATOM     13  C   UNL     1      -0.315  -2.068   1.116  0.00  0.00    +0.043 A 
ATOM     14  C   UNL     1      -0.644  -0.726   1.154  0.00  0.00    +0.046 A 
ATOM     15 CL   UNL     1      -0.073   0.270   2.456  0.00  0.00    -0.083 Cl
ENDBRANCH   4  12
ENDBRANCH   1   5
BRANCH   2  16
ATOM     16  N   UNL     1       0.547  -8.294   2.251  0.00  0.00    -0.268 N 
ATOM     17  H   UNL     1       0.712  -8.775   3.077  0.00  0.00    +0.170 HD
BRANCH  16  18
ATOM     18  N   UNL     1       0.550  -8.979   1.029  0.00  0.00    -0.231 N 
ATOM     19  C   UNL     1       0.780 -10.306   1.001  0.00  0.00    +0.278 C 
ATOM     20  O   UNL     1       0.987 -10.909   2.035  0.00  0.00    -0.267 OA
ATOM     21  H   UNL     1       0.385  -8.497   0.203  0.00  0.00    +0.173 HD
BRANCH  19  22
ATOM     22  C   UNL     1       0.783 -11.030  -0.292  0.00  0.00    +0.127 A 
ATOM     23  C   UNL     1       1.016 -12.404  -0.314  0.00  0.00    +0.033 A 
ATOM     24  C   UNL     1       1.015 -13.068  -1.530  0.00  0.00    +0.004 A 
ATOM     25  C   UNL     1       0.780 -12.335  -2.683  0.00  0.00    +0.020 A 
ATOM     26  C   UNL     1       0.555 -10.971  -2.587  0.00  0.00    +0.111 A 
ATOM     27  N   UNL     1       0.557 -10.367  -1.419  0.00  0.00    -0.250 NA
ENDBRANCH  19  22
ENDBRANCH  16  18
ENDBRANCH   2  16
TORSDOF 5
