REMARK  Name = ZINC07209760
REMARK  5 active torsions:
REMARK  status: ('A' for Active; 'I' for Inactive)
REMARK    1  A    between atoms: C_1  and  N_2
REMARK    2  A    between atoms: C_3  and  C_5
REMARK    3  A    between atoms: C_5  and  C_17
REMARK    4  A    between atoms: C_6  and  C_7
REMARK    5  A    between atoms: C_11  and  N_13
REMARK                            x       y       z     vdW  Elec       q    Type
REMARK                         _______ _______ _______ _____ _____    ______ ____
ROOT
ATOM      1  C   UNL     1      -0.014  -0.027   0.280  0.00  0.00    -0.021 A 
ATOM      2  C   UNL     1       0.974  -0.593   1.098  0.00  0.00    +0.009 A 
ATOM      3  C   UNL     1       2.137   0.101   1.346  0.00  0.00    +0.023 A 
ATOM      4  C   UNL     1       2.333   1.355   0.790  0.00  0.00    +0.071 A 
ATOM      5  C   UNL     1       1.362   1.922  -0.021  0.00  0.00    +0.145 A 
ATOM      6  C   UNL     1       0.193   1.241  -0.279  0.00  0.00    +0.042 A 
ATOM      7 CL   UNL     1       3.804   2.221   1.110  0.00  0.00    -0.081 Cl
ENDROOT
BRANCH   5   8
ATOM      8  N   UNL     1       1.583   3.261  -0.610  0.00  0.00    +0.058 N 
ATOM      9  O   UNL     1       0.730   3.761  -1.323  0.00  0.00    -0.126 OA
ATOM     10  O   UNL     1       2.616   3.865  -0.383  0.00  0.00    -0.126 OA
ENDBRANCH   5   8
BRANCH   1  12
ATOM     11  C   UNL     1      -1.236  -2.130  -0.102  0.00  0.00    +0.114 C 
ATOM     12  C   UNL     1      -1.256  -0.758   0.009  0.00  0.00    +0.032 C 
BRANCH  11  15
ATOM     13  C   UNL     1      -3.738  -4.966  -0.417  0.00  0.00    +0.128 C 
ATOM     14  N   UNL     1      -2.480  -4.221  -0.314  0.00  0.00    -0.314 N 
ATOM     15  C   UNL     1      -2.500  -2.878  -0.205  0.00  0.00    +0.254 C 
ATOM     16  O   UNL     1      -3.561  -2.284  -0.192  0.00  0.00    -0.269 OA
ATOM     17  H   UNL     1      -1.634  -4.695  -0.325  0.00  0.00    +0.149 HD
ENDBRANCH  11  15
BRANCH  11  18
ATOM     18  C   UNL     1       0.014  -2.829  -0.117  0.00  0.00    +0.104 C 
ATOM     19  N   UNL     1       1.005  -3.384  -0.130  0.00  0.00    -0.191 NA
ENDBRANCH  11  18
ENDBRANCH   1  12
TORSDOF 4
