REMARK  Name = ZINC39665379
REMARK  9 active torsions:
REMARK  status: ('A' for Active; 'I' for Inactive)
REMARK    1  A    between atoms: C_1  and  C_2
REMARK    2  A    between atoms: C_5  and  C_9
REMARK    3  A    between atoms: C_6  and  C_8
REMARK    4  A    between atoms: C_13  and  C_22
REMARK    5  A    between atoms: N_24  and  C_25
REMARK    6  A    between atoms: C_25  and  C_26
REMARK    7  A    between atoms: C_26  and  C_28
REMARK    8  A    between atoms: C_26  and  O_29
REMARK    9  A    between atoms: O_29  and  C_30
REMARK                            x       y       z     vdW  Elec       q    Type
REMARK                         _______ _______ _______ _____ _____    ______ ____
ROOT
ATOM      1  C   UNL     1       0.201  -4.187   0.026  0.00  0.00    +0.247 C 
ATOM      2  O   UNL     1       0.325  -4.769   1.086  0.00  0.00    -0.270 OA
ATOM      3  N   UNL     1       0.154  -4.886  -1.125  0.00  0.00    -0.296 N 
ATOM      4  C   UNL     1       0.111  -4.355  -2.509  0.00  0.00    +0.121 C 
ATOM      5  C   UNL     1       1.021  -5.305  -3.319  0.00  0.00    +0.100 C 
ATOM      6  C   UNL     1       1.030  -6.618  -2.518  0.00  0.00    -0.004 C 
ATOM      7  C   UNL     1       0.140  -6.358  -1.295  0.00  0.00    +0.115 C 
ATOM      8  C   UNL     1       2.449  -6.953  -2.069  0.00  0.00    -0.010 C 
ATOM      9  C   UNL     1       2.441  -8.291  -1.324  0.00  0.00    -0.082 C 
ATOM     10  N   UNL     1       1.925  -9.343  -2.209  0.00  0.00    +0.379 N 
ATOM     11  C   UNL     1       0.529  -9.060  -2.562  0.00  0.00    -0.082 C 
ATOM     12  C   UNL     1       0.456  -7.755  -3.359  0.00  0.00    -0.010 C 
ATOM     13  H   UNL     1       2.483  -9.377  -3.050  0.00  0.00    -0.086 HD
ATOM     14  H   UNL     1       1.978 -10.233  -1.738  0.00  0.00    -0.086 HD
ENDROOT
BRANCH   1  19
ATOM     15  C   UNL     1      -0.185   1.554  -0.074  0.00  0.00    +0.044 C 
ATOM     16  C   UNL     1      -0.084   0.051  -0.048  0.00  0.00    -0.050 A 
ATOM     17  C   UNL     1      -0.987  -0.713  -0.766  0.00  0.00    +0.004 A 
ATOM     18  C   UNL     1      -0.900  -2.089  -0.747  0.00  0.00    +0.013 A 
ATOM     19  C   UNL     1       0.102  -2.712   0.000  0.00  0.00    +0.040 A 
ATOM     20  C   UNL     1       1.010  -1.936   0.723  0.00  0.00    -0.038 A 
ATOM     21  C   UNL     1       0.914  -0.560   0.690  0.00  0.00    +0.007 A 
ATOM     22  C   UNL     1       2.094  -2.599   1.532  0.00  0.00    +0.044 C 
ENDBRANCH   1  19
BRANCH   5  23
ATOM     23  C   UNL     1       2.414  -4.739  -3.419  0.00  0.00    +0.218 C 
ATOM     24  O   UNL     1       2.822  -3.980  -2.566  0.00  0.00    -0.275 OA
ATOM     25  N   UNL     1       3.205  -5.076  -4.457  0.00  0.00    -0.312 N 
ATOM     26  H   UNL     1       2.879  -5.683  -5.139  0.00  0.00    +0.149 HD
BRANCH  25  27
ATOM     27  C   UNL     1       4.560  -4.526  -4.554  0.00  0.00    +0.148 C 
BRANCH  27  28
ATOM     28  C   UNL     1       5.240  -5.064  -5.814  0.00  0.00    +0.187 C 
ATOM     29  C   UNL     1       6.654  -4.489  -5.916  0.00  0.00    +0.053 C 
BRANCH  28  30
ATOM     30  O   UNL     1       5.309  -6.489  -5.747  0.00  0.00    -0.488 OA
BRANCH  30  31
ATOM     31  C   UNL     1       5.385  -7.160  -6.926  0.00  0.00    +0.121 A 
ATOM     32  C   UNL     1       5.335  -8.546  -6.942  0.00  0.00    +0.045 A 
ATOM     33  C   UNL     1       5.412  -9.226  -8.143  0.00  0.00    +0.004 A 
ATOM     34  C   UNL     1       5.539  -8.525  -9.328  0.00  0.00    +0.000 A 
ATOM     35  C   UNL     1       5.589  -7.143  -9.315  0.00  0.00    +0.004 A 
ATOM     36  C   UNL     1       5.506  -6.459  -8.118  0.00  0.00    +0.045 A 
ENDBRANCH  30  31
ENDBRANCH  28  30
ENDBRANCH  27  28
ENDBRANCH  25  27
ENDBRANCH   5  23
TORSDOF 6
