REMARK  Name = ZINC26772065
REMARK  5 active torsions:
REMARK  status: ('A' for Active; 'I' for Inactive)
REMARK    1  A    between atoms: C_1  and  O_2
REMARK    2  A    between atoms: O_2  and  C_3
REMARK    3  A    between atoms: C_7  and  C_9
REMARK    4  A    between atoms: N_28  and  C_31
REMARK    5  A    between atoms: C_31  and  C_32
REMARK                            x       y       z     vdW  Elec       q    Type
REMARK                         _______ _______ _______ _____ _____    ______ ____
ROOT
ATOM      1  C   UNL     1       1.137  -4.318  -5.356  0.00  0.00    +0.154 C 
ATOM      2  C   UNL     1       0.140  -3.515  -6.160  0.00  0.00    +0.046 A 
ATOM      3  C   UNL     1      -0.720  -2.629  -5.612  0.00  0.00    -0.015 A 
ATOM      4  C   UNL     1      -1.504  -2.074  -6.696  0.00  0.00    +0.003 A 
ATOM      5  C   UNL     1      -2.533  -1.127  -6.734  0.00  0.00    +0.010 A 
ATOM      6  C   UNL     1      -3.059  -0.832  -7.967  0.00  0.00    +0.001 A 
ATOM      7  C   UNL     1      -2.603  -1.437  -9.127  0.00  0.00    +0.002 A 
ATOM      8  C   UNL     1      -1.587  -2.378  -9.118  0.00  0.00    +0.026 A 
ATOM      9  C   UNL     1      -1.033  -2.697  -7.880  0.00  0.00    +0.047 A 
ATOM     10  N   UNL     1      -0.040  -3.561  -7.517  0.00  0.00    -0.356 N 
ATOM     11  H   UNL     1       0.579  -4.231  -8.132  0.00  0.00    +0.166 HD
ATOM     12  C   UNL     1      -0.801  -2.310  -4.141  0.00  0.00    +0.069 C 
ATOM     13  C   UNL     1      -0.102  -3.426  -3.352  0.00  0.00    +0.167 C 
ATOM     14  N   UNL     1       1.173  -3.742  -3.994  0.00  0.00    -0.276 N 
ATOM     15  C   UNL     1       2.355  -3.533  -3.411  0.00  0.00    +0.234 C 
ATOM     16  O   UNL     1       3.354  -3.764  -4.059  0.00  0.00    -0.274 OA
ATOM     17  C   UNL     1       2.531  -3.031  -2.015  0.00  0.00    +0.204 C 
ATOM     18  N   UNL     1       1.258  -2.825  -1.345  0.00  0.00    -0.287 N 
ATOM     19  C   UNL     1       0.075  -3.005  -1.929  0.00  0.00    +0.237 C 
ATOM     20  O   UNL     1      -0.921  -2.812  -1.266  0.00  0.00    -0.274 OA
ENDROOT
BRANCH   1  25
ATOM     21  C   UNL     1       4.480  -5.287  -6.826  0.00  0.00    +0.120 A 
ATOM     22  C   UNL     1       5.008  -4.045  -7.150  0.00  0.00    +0.045 A 
ATOM     23  C   UNL     1       4.281  -2.898  -6.892  0.00  0.00    +0.004 A 
ATOM     24  C   UNL     1       3.027  -2.988  -6.317  0.00  0.00    +0.006 A 
ATOM     25  C   UNL     1       2.501  -4.224  -5.988  0.00  0.00    -0.018 A 
ATOM     26  C   UNL     1       3.224  -5.374  -6.244  0.00  0.00    +0.051 A 
BRANCH  21  28
ATOM     27  C   UNL     1       6.479  -6.250  -7.679  0.00  0.00    +0.277 C 
ATOM     28  O   UNL     1       5.193  -6.415  -7.079  0.00  0.00    -0.495 OA
ENDBRANCH  21  28
ENDBRANCH   1  25
BRANCH  18  29
ATOM     29  C   UNL     1       1.277  -2.399   0.057  0.00  0.00    +0.143 C 
BRANCH  29  30
ATOM     30  C   UNL     1       1.287  -0.894   0.125  0.00  0.00    -0.026 A 
ATOM     31  C   UNL     1       2.490  -0.212   0.141  0.00  0.00    +0.009 A 
ATOM     32  C   UNL     1       2.504   1.169   0.203  0.00  0.00    +0.050 A 
ATOM     33  C   UNL     1       1.311   1.873   0.249  0.00  0.00    +0.166 A 
ATOM     34  C   UNL     1       0.100   1.186   0.233  0.00  0.00    +0.167 A 
ATOM     35  C   UNL     1       0.093  -0.198   0.171  0.00  0.00    +0.054 A 
ATOM     36  O   UNL     1      -0.917   2.095   0.280  0.00  0.00    -0.453 OA
ATOM     37  C   UNL     1      -0.316   3.319   0.746  0.00  0.00    +0.466 C 
ATOM     38  O   UNL     1       1.053   3.212   0.312  0.00  0.00    -0.453 OA
ENDBRANCH  29  30
ENDBRANCH  18  29
TORSDOF 4
