REMARK  Name = ZINC67587464
REMARK  5 active torsions:
REMARK  status: ('A' for Active; 'I' for Inactive)
REMARK    1  A    between atoms: C_1  and  C_2
REMARK    2  A    between atoms: C_3  and  C_9
REMARK    3  A    between atoms: C_4  and  C_8
REMARK    4  A    between atoms: C_9  and  N_10
REMARK    5  A    between atoms: C_19  and  C_21
REMARK                            x       y       z     vdW  Elec       q    Type
REMARK                         _______ _______ _______ _____ _____    ______ ____
ROOT
ATOM      1  N   UNL     1       1.375  -0.154  -2.999  0.00  0.00    -0.286 NA
ATOM      2  C   UNL     1       2.080  -1.443  -3.046  0.00  0.00    +0.092 C 
ATOM      3  C   UNL     1       3.591  -1.198  -3.158  0.00  0.00    +0.070 C 
ATOM      4  C   UNL     1       3.817  -0.198  -4.262  0.00  0.00    +0.039 A 
ATOM      5  C   UNL     1       2.835   0.575  -4.781  0.00  0.00    +0.058 A 
ATOM      6  N   UNL     1       3.373   1.338  -5.733  0.00  0.00    -0.348 N 
ATOM      7  C   UNL     1       4.651   1.071  -5.826  0.00  0.00    +0.171 A 
ATOM      8  N   UNL     1       4.963   0.115  -4.920  0.00  0.00    -0.349 N 
ATOM      9  H   UNL     1       5.840  -0.273  -4.769  0.00  0.00    +0.166 HD
ATOM     10  C   UNL     1       1.405   0.525  -4.306  0.00  0.00    +0.138 C 
ATOM     11  H   UNL     1       2.894   1.987  -6.271  0.00  0.00    +0.166 HD
ENDROOT
BRANCH  10  12
ATOM     12  C   UNL     1       0.868   1.926  -4.162  0.00  0.00    +0.002 A 
ATOM     13  C   UNL     1       0.930   2.561  -2.959  0.00  0.00    +0.008 A 
ATOM     14  C   UNL     1       0.440   3.856  -2.804  0.00  0.00    +0.001 A 
ATOM     15  C   UNL     1      -0.115   4.524  -3.853  0.00  0.00    +0.010 A 
ATOM     16  C   UNL     1      -0.195   3.900  -5.108  0.00  0.00    +0.001 A 
ATOM     17  C   UNL     1       0.308   2.584  -5.270  0.00  0.00    +0.076 A 
ATOM     18  N   UNL     1       0.238   1.988  -6.464  0.00  0.00    -0.255 NA
ATOM     19  C   UNL     1      -0.284   2.597  -7.500  0.00  0.00    +0.111 A 
ATOM     20  C   UNL     1      -0.791   3.892  -7.412  0.00  0.00    +0.020 A 
ATOM     21  C   UNL     1      -0.762   4.555  -6.218  0.00  0.00    +0.011 A 
ENDBRANCH  10  12
BRANCH   1  22
ATOM     22  C   UNL     1      -0.006  -0.327  -2.527  0.00  0.00    +0.124 C 
BRANCH  22  25
ATOM     23  C   UNL     1      -0.018   1.503   0.010  0.00  0.00    +0.065 C 
ATOM     24  C   UNL     1       0.002  -0.004   0.002  0.00  0.00    +0.038 A 
ATOM     25  C   UNL     1       0.008  -0.796  -1.095  0.00  0.00    +0.010 A 
ATOM     26  C   UNL     1       0.028  -2.127  -0.666  0.00  0.00    +0.064 A 
ATOM     27  N   UNL     1       0.035  -2.134   0.643  0.00  0.00    -0.179 NA
ATOM     28  N   UNL     1       0.024  -0.805   1.088  0.00  0.00    -0.281 N 
ATOM     29  H   UNL     1       0.029  -0.513   2.013  0.00  0.00    +0.189 HD
ATOM     30  C   UNL     1       0.040  -3.343  -1.556  0.00  0.00    +0.068 C 
ENDBRANCH  22  25
ENDBRANCH   1  22
TORSDOF 3
