REMARK  Name = ZINC65666435
REMARK  6 active torsions:
REMARK  status: ('A' for Active; 'I' for Inactive)
REMARK    1  A    between atoms: C_1  and  C_2
REMARK    2  A    between atoms: C_2  and  C_25
REMARK    3  A    between atoms: C_9  and  O_13
REMARK    4  A    between atoms: O_13  and  C_14
REMARK    5  A    between atoms: C_14  and  C_16
REMARK    6  A    between atoms: C_19  and  C_22
REMARK                            x       y       z     vdW  Elec       q    Type
REMARK                         _______ _______ _______ _____ _____    ______ ____
ROOT
ATOM      1  O   UNL     1       2.640  -4.254   3.272  0.00  0.00    -0.422 OA
ENDROOT
BRANCH   1  10
ATOM      2  C   UNL     1       0.067   1.414  -0.244  0.00  0.00    +0.056 C 
ATOM      3  C   UNL     1       0.032  -0.113  -0.158  0.00  0.00    +0.112 C 
ATOM      4  C   UNL     1      -1.425  -0.588  -0.058  0.00  0.00    +0.127 C 
ATOM      5  C   UNL     1      -1.397  -2.102   0.058  0.00  0.00    +0.170 C 
ATOM      6  O   UNL     1      -2.202  -2.801  -0.520  0.00  0.00    -0.292 OA
ATOM      7  C   UNL     1      -0.343  -2.676   0.908  0.00  0.00    +0.059 A 
ATOM      8  C   UNL     1      -0.382  -4.023   1.281  0.00  0.00    +0.018 A 
ATOM      9  C   UNL     1       0.610  -4.539   2.065  0.00  0.00    +0.047 A 
ATOM     10  C   UNL     1       1.659  -3.729   2.494  0.00  0.00    +0.135 A 
ATOM     11  C   UNL     1       1.709  -2.390   2.135  0.00  0.00    +0.092 A 
ATOM     12  C   UNL     1       0.709  -1.850   1.342  0.00  0.00    +0.135 A 
ATOM     13  O   UNL     1       0.749  -0.541   1.000  0.00  0.00    -0.485 OA
ATOM     14  C   UNL     1       0.679  -0.710  -1.409  0.00  0.00    +0.056 C 
ENDBRANCH   1  10
BRANCH   1  15
ATOM     15  C   UNL     1       3.485  -5.141   2.710  0.00  0.00    +0.344 C 
ATOM     16  O   UNL     1       3.422  -5.369   1.519  0.00  0.00    -0.245 OA
BRANCH  15  17
ATOM     17  C   UNL     1       4.489  -5.836   3.545  0.00  0.00    +0.059 A 
ATOM     18  C   UNL     1       4.557  -5.577   4.915  0.00  0.00    +0.016 A 
ATOM     19  C   UNL     1       5.493  -6.225   5.692  0.00  0.00    +0.014 A 
ATOM     20  C   UNL     1       6.372  -7.139   5.110  0.00  0.00    +0.037 A 
ATOM     21  C   UNL     1       6.304  -7.397   3.740  0.00  0.00    +0.014 A 
ATOM     22  C   UNL     1       5.364  -6.755   2.963  0.00  0.00    +0.016 A 
BRANCH  20  23
ATOM     23  C   UNL     1       7.377  -7.835   5.945  0.00  0.00    +0.242 C 
ATOM     24  O   UNL     1       7.436  -7.610   7.138  0.00  0.00    -0.270 OA
ATOM     25  N   UNL     1       8.226  -8.718   5.383  0.00  0.00    -0.325 N 
ATOM     26  H   UNL     1       8.178  -8.898   4.431  0.00  0.00    +0.145 HD
ATOM     27  H   UNL     1       8.884  -9.174   5.931  0.00  0.00    +0.145 HD
ENDBRANCH  20  23
ENDBRANCH  15  17
ENDBRANCH   1  15
TORSDOF 4
