REMARK  Name = ZINC20352004
REMARK  6 active torsions:
REMARK  status: ('A' for Active; 'I' for Inactive)
REMARK    1  A    between atoms: C_1  and  O_2
REMARK    2  A    between atoms: O_2  and  C_3
REMARK    3  A    between atoms: C_7  and  N_9
REMARK    4  A    between atoms: N_12  and  C_15
REMARK    5  A    between atoms: C_18  and  C_22
REMARK    6  A    between atoms: C_20  and  N_21
REMARK                            x       y       z     vdW  Elec       q    Type
REMARK                         _______ _______ _______ _____ _____    ______ ____
ROOT
ATOM      1  N   UNL     1      -2.563   1.173  -0.108  0.00  0.00    -0.327 N 
ATOM      2  C   UNL     1      -3.239   1.396   1.178  0.00  0.00    +0.124 C 
ATOM      3  C   UNL     1      -4.582   0.661   1.179  0.00  0.00    +0.124 C 
ATOM      4  N   UNL     1      -4.354  -0.772   0.948  0.00  0.00    -0.325 N 
ATOM      5  C   UNL     1      -3.678  -0.995  -0.337  0.00  0.00    +0.124 C 
ATOM      6  C   UNL     1      -2.335  -0.260  -0.338  0.00  0.00    +0.124 C 
ENDROOT
BRANCH   1  11
ATOM      7  C   UNL     1      -0.173   3.968  -0.051  0.00  0.00    +0.122 A 
ATOM      8  C   UNL     1       1.015   3.299  -0.312  0.00  0.00    +0.046 A 
ATOM      9  C   UNL     1       1.013   1.931  -0.501  0.00  0.00    +0.005 A 
ATOM     10  C   UNL     1      -0.172   1.223  -0.430  0.00  0.00    +0.023 A 
ATOM     11  C   UNL     1      -1.364   1.887  -0.174  0.00  0.00    +0.033 A 
ATOM     12  C   UNL     1      -1.363   3.262   0.022  0.00  0.00    +0.068 A 
BRANCH   7  14
ATOM     13  C   UNL     1       1.094   5.978   0.045  0.00  0.00    +0.277 C 
ATOM     14  O   UNL     1      -0.169   5.314   0.134  0.00  0.00    -0.495 OA
ENDBRANCH   7  14
ENDBRANCH   1  11
BRANCH   4  15
ATOM     15  C   UNL     1      -5.555  -1.488   1.014  0.00  0.00    +0.051 A 
ATOM     16  C   UNL     1      -6.766  -0.813   1.049  0.00  0.00    +0.025 A 
ATOM     17  C   UNL     1      -7.951  -1.522   1.115  0.00  0.00    +0.014 A 
ATOM     18  C   UNL     1      -7.933  -2.905   1.145  0.00  0.00    +0.057 A 
ATOM     19  C   UNL     1      -6.730  -3.586   1.110  0.00  0.00    +0.037 A 
ATOM     20  C   UNL     1      -5.537  -2.882   1.039  0.00  0.00    +0.046 A 
BRANCH  18  21
ATOM     21  C   UNL     1      -9.229  -3.671   1.216  0.00  0.00    +0.417 C 
ATOM     22  F   UNL     1     -10.301  -2.773   1.240  0.00  0.00    -0.166 F 
ATOM     23  F   UNL     1      -9.341  -4.502   0.096  0.00  0.00    -0.166 F 
ATOM     24  F   UNL     1      -9.247  -4.450   2.378  0.00  0.00    -0.166 F 
ENDBRANCH  18  21
BRANCH  20  25
ATOM     25  N   UNL     1      -4.318  -3.570   0.999  0.00  0.00    -0.357 N 
ATOM     26  H   UNL     1      -4.306  -4.670   1.018  0.00  0.00    +0.142 HD
ATOM     27  H   UNL     1      -3.373  -3.011   0.947  0.00  0.00    +0.142 HD
ENDBRANCH  20  25
ENDBRANCH   4  15
TORSDOF 5
