REMARK  Name = ZINC27910979
REMARK  6 active torsions:
REMARK  status: ('A' for Active; 'I' for Inactive)
REMARK    1  A    between atoms: C_13  and  C_15
REMARK    2  A    between atoms: C_15  and  C_16
REMARK    3  A    between atoms: C_16  and  C_21
REMARK    4  A    between atoms: C_21  and  C_22
REMARK    5  A    between atoms: N_24  and  C_25
REMARK    6  A    between atoms: C_25  and  C_26
REMARK                            x       y       z     vdW  Elec       q    Type
REMARK                         _______ _______ _______ _____ _____    ______ ____
ROOT
ATOM      1  C   UNL     1      -1.137   3.780   0.116  0.00  0.00    +0.103 C 
ENDROOT
BRANCH   1  14
ATOM      2  C   UNL     1       6.975   4.977   0.180  0.00  0.00    +0.005 A 
ATOM      3  C   UNL     1       7.221   6.305   0.504  0.00  0.00    +0.018 A 
ATOM      4  C   UNL     1       6.240   7.038   1.140  0.00  0.00    +0.084 A 
ATOM      5  N   UNL     1       5.074   6.495   1.438  0.00  0.00    -0.350 N 
ATOM      6  C   UNL     1       4.804   5.231   1.151  0.00  0.00    +0.099 A 
ATOM      7  C   UNL     1       5.747   4.434   0.509  0.00  0.00    +0.042 A 
ATOM      8  N   UNL     1       3.566   4.698   1.488  0.00  0.00    -0.314 N 
ATOM      9  C   UNL     1       2.724   5.701   2.154  0.00  0.00    +0.125 C 
ATOM     10  C   UNL     1       1.446   5.030   2.669  0.00  0.00    +0.126 C 
ATOM     11  N   UNL     1       0.805   4.325   1.549  0.00  0.00    -0.298 N 
ATOM     12  C   UNL     1       1.623   3.404   0.747  0.00  0.00    +0.126 C 
ATOM     13  C   UNL     1       2.894   4.138   0.307  0.00  0.00    +0.125 C 
ATOM     14  C   UNL     1      -0.500   4.514   1.268  0.00  0.00    +0.216 C 
ATOM     15  O   UNL     1      -1.161   5.274   1.944  0.00  0.00    -0.276 OA
ATOM     16  H   UNL     1       4.299   7.095   1.937  0.00  0.00    +0.166 HD
ENDBRANCH   1  14
BRANCH   1  17
ATOM     17  C   UNL     1      -2.641   4.058   0.104  0.00  0.00    -0.013 C 
ATOM     18  C   UNL     1      -3.293   3.384  -1.121  0.00  0.00    +0.008 C 
ATOM     19  C   UNL     1      -4.380   4.391  -1.574  0.00  0.00    +0.001 C 
ATOM     20  C   UNL     1      -3.696   5.761  -1.342  0.00  0.00    +0.001 C 
ATOM     21  C   UNL     1      -2.897   5.569  -0.036  0.00  0.00    +0.008 C 
BRANCH  17  22
ATOM     22  C   UNL     1      -3.281   3.536   1.392  0.00  0.00    +0.103 C 
BRANCH  22  23
ATOM     23  C   UNL     1      -3.055   2.050   1.498  0.00  0.00    +0.214 C 
ATOM     24  O   UNL     1      -2.534   1.449   0.583  0.00  0.00    -0.276 OA
ATOM     25  N   UNL     1      -3.433   1.388   2.610  0.00  0.00    -0.313 N 
ATOM     26  H   UNL     1      -3.907   1.933   3.440  0.00  0.00    +0.149 HD
BRANCH  25  27
ATOM     27  C   UNL     1      -3.214  -0.057   2.713  0.00  0.00    +0.135 C 
BRANCH  27  28
ATOM     28  C   UNL     1      -3.730  -0.556   4.064  0.00  0.00    +0.135 C 
ATOM     29  C   UNL     1      -3.504  -2.075   4.182  0.00  0.00    +0.035 C 
ATOM     30  C   UNL     1      -2.619  -2.231   5.442  0.00  0.00    +0.031 C 
ATOM     31  C   UNL     1      -2.885  -0.901   6.192  0.00  0.00    +0.160 C 
ATOM     32  O   UNL     1      -2.994   0.070   5.129  0.00  0.00    -0.375 OA
ENDBRANCH  27  28
ENDBRANCH  25  27
ENDBRANCH  22  23
ENDBRANCH  17  22
ENDBRANCH   1  17
TORSDOF 6
