REMARK  Name = ZINC39610987
REMARK  11 active torsions:
REMARK  status: ('A' for Active; 'I' for Inactive)
REMARK    1  A    between atoms: C_1  and  C_2
REMARK    2  A    between atoms: C_2  and  N_3
REMARK    3  A    between atoms: N_3  and  C_4
REMARK    4  A    between atoms: N_3  and  S_6
REMARK    5  A    between atoms: C_4  and  C_5
REMARK    6  A    between atoms: S_6  and  C_9
REMARK    7  A    between atoms: C_12  and  N_15
REMARK    8  A    between atoms: C_16  and  C_18
REMARK    9  A    between atoms: C_18  and  O_19
REMARK   10  A    between atoms: O_19  and  C_20
REMARK   11  A    between atoms: C_20  and  C_22
REMARK                            x       y       z     vdW  Elec       q    Type
REMARK                         _______ _______ _______ _____ _____    ______ ____
ROOT
ATOM      1  N   UNL     1       5.293   4.097   2.401  0.00  0.00    -0.283 N 
ATOM      2  C   UNL     1       5.551   4.410   3.687  0.00  0.00    +0.255 C 
ATOM      3  O   UNL     1       5.229   3.647   4.573  0.00  0.00    -0.272 OA
ATOM      4  H   UNL     1       5.617   4.668   1.688  0.00  0.00    +0.155 HD
ENDROOT
BRANCH   1   8
ATOM      5  C   UNL     1       3.098   0.674   1.491  0.00  0.00    +0.106 A 
ATOM      6  C   UNL     1       2.825   1.382   2.647  0.00  0.00    +0.030 A 
ATOM      7  C   UNL     1       3.551   2.517   2.952  0.00  0.00    +0.025 A 
ATOM      8  C   UNL     1       4.556   2.947   2.096  0.00  0.00    +0.034 A 
ATOM      9  C   UNL     1       4.829   2.234   0.936  0.00  0.00    +0.025 A 
ATOM     10  C   UNL     1       4.103   1.097   0.639  0.00  0.00    +0.030 A 
BRANCH   5  11
ATOM     11  S   UNL     1       2.170  -0.773   1.106  0.00  0.00    +0.061 S 
ATOM     12  O   UNL     1       2.258  -0.950  -0.301  0.00  0.00    -0.153 OA
ATOM     13  O   UNL     1       0.926  -0.650   1.782  0.00  0.00    -0.153 OA
BRANCH  11  14
ATOM     14  N   UNL     1       2.958  -2.057   1.794  0.00  0.00    -0.177 NA
BRANCH  14  16
ATOM     15  C   UNL     1       3.602  -1.818   4.142  0.00  0.00    +0.022 C 
ATOM     16  C   UNL     1       2.628  -2.472   3.160  0.00  0.00    +0.106 C 
ENDBRANCH  14  16
BRANCH  14  17
ATOM     17  C   UNL     1       3.984  -2.778   1.038  0.00  0.00    +0.106 C 
ATOM     18  C   UNL     1       3.356  -3.996   0.358  0.00  0.00    +0.022 C 
ENDBRANCH  14  17
ENDBRANCH  11  14
ENDBRANCH   5  11
ENDBRANCH   1   8
BRANCH   2  19
ATOM     19  C   UNL     1       6.240   5.707   4.022  0.00  0.00    +0.328 C 
BRANCH  19  20
ATOM     20  O   UNL     1       6.401   5.809   5.438  0.00  0.00    -0.452 OA
BRANCH  20  21
ATOM     21  C   UNL     1       7.005   6.919   5.908  0.00  0.00    +0.337 C 
ATOM     22  O   UNL     1       7.384   7.777   5.136  0.00  0.00    -0.245 OA
BRANCH  21  23
ATOM     23  C   UNL     1       7.205   7.093   7.360  0.00  0.00    +0.054 C 
ATOM     24  C   UNL     1       6.899   6.088   8.254  0.00  0.00    +0.007 A 
ATOM     25  C   UNL     1       6.362   4.807   7.794  0.00  0.00    +0.010 A 
ATOM     26  C   UNL     1       6.078   3.850   8.712  0.00  0.00    +0.001 A 
ATOM     27  C   UNL     1       6.285   4.064  10.080  0.00  0.00    +0.002 A 
ATOM     28  C   UNL     1       6.778   5.226  10.573  0.00  0.00    +0.024 A 
ATOM     29  C   UNL     1       7.109   6.289   9.704  0.00  0.00    +0.041 A 
ATOM     30  N   UNL     1       7.590   7.422  10.193  0.00  0.00    -0.285 N 
ATOM     31  C   UNL     1       7.920   8.461   9.435  0.00  0.00    +0.222 C 
ATOM     32  O   UNL     1       8.356   9.473   9.948  0.00  0.00    -0.275 OA
ATOM     33  C   UNL     1       7.761   8.382   7.934  0.00  0.00    +0.139 C 
ATOM     34  H   UNL     1       7.706   7.497  11.153  0.00  0.00    +0.155 HD
ENDBRANCH  21  23
ENDBRANCH  20  21
ENDBRANCH  19  20
ENDBRANCH   2  19
TORSDOF 9
