REMARK  Name = ZINC36576414
REMARK  12 active torsions:
REMARK  status: ('A' for Active; 'I' for Inactive)
REMARK    1  A    between atoms: C_1  and  C_2
REMARK    2  A    between atoms: C_2  and  C_3
REMARK    3  A    between atoms: C_3  and  N_4
REMARK    4  A    between atoms: N_4  and  C_5
REMARK    5  A    between atoms: C_5  and  C_7
REMARK    6  A    between atoms: C_5  and  C_16
REMARK    7  A    between atoms: C_8  and  O_15
REMARK    8  A    between atoms: C_10  and  O_14
REMARK    9  A    between atoms: C_12  and  O_13
REMARK   10  A    between atoms: N_18  and  C_19
REMARK   11  A    between atoms: C_25  and  C_27
REMARK   12  A    between atoms: C_27  and  C_29
REMARK                            x       y       z     vdW  Elec       q    Type
REMARK                         _______ _______ _______ _____ _____    ______ ____
ROOT
ATOM      1  C   UNL     1       1.344  -7.015   2.218  0.00  0.00    +0.199 C 
ENDROOT
BRANCH   1   2
ATOM      2  C   UNL     1       2.192  -6.389   3.295  0.00  0.00    +0.065 A 
ATOM      3  C   UNL     1       2.156  -5.017   3.496  0.00  0.00    +0.129 A 
ATOM      4  C   UNL     1       2.936  -4.441   4.487  0.00  0.00    +0.091 A 
ATOM      5  C   UNL     1       3.752  -5.237   5.278  0.00  0.00    +0.124 A 
ATOM      6  C   UNL     1       3.787  -6.608   5.077  0.00  0.00    +0.091 A 
ATOM      7  C   UNL     1       3.004  -7.185   4.089  0.00  0.00    +0.129 A 
BRANCH   7   8
ATOM      8  O   UNL     1       3.035  -8.530   3.896  0.00  0.00    -0.506 OA
ATOM      9  H   UNL     1       3.705  -8.820   3.262  0.00  0.00    +0.292 HD
ENDBRANCH   7   8
BRANCH   5  10
ATOM     10  O   UNL     1       4.517  -4.672   6.249  0.00  0.00    -0.507 OA
ATOM     11  H   UNL     1       4.079  -4.610   7.109  0.00  0.00    +0.292 HD
ENDBRANCH   5  10
BRANCH   3  12
ATOM     12  O   UNL     1       1.357  -4.237   2.721  0.00  0.00    -0.506 OA
ATOM     13  H   UNL     1       0.491  -4.054   3.110  0.00  0.00    +0.292 HD
ENDBRANCH   3  12
ENDBRANCH   1   2
BRANCH   1  14
ATOM     14  C   UNL     1       2.207  -7.889   1.345  0.00  0.00    +0.239 C 
ATOM     15  O   UNL     1       3.280  -7.484   0.952  0.00  0.00    -0.273 OA
ATOM     16  N   UNL     1       1.785  -9.122   1.000  0.00  0.00    -0.311 N 
ATOM     17  H   UNL     1       0.926  -9.446   1.313  0.00  0.00    +0.149 HD
BRANCH  16  18
ATOM     18  C   UNL     1       2.624  -9.972   0.151  0.00  0.00    +0.073 C 
ATOM     19  C   UNL     1       2.370  -9.633  -1.319  0.00  0.00    +0.022 C 
ATOM     20  C   UNL     1       3.245 -10.521  -2.206  0.00  0.00    +0.002 C 
ATOM     21  C   UNL     1       2.901 -11.991  -1.954  0.00  0.00    +0.000 C 
ATOM     22  C   UNL     1       3.155 -12.329  -0.484  0.00  0.00    +0.002 C 
ATOM     23  C   UNL     1       2.280 -11.441   0.403  0.00  0.00    +0.022 C 
ENDBRANCH  16  18
ENDBRANCH   1  14
BRANCH   1  24
ATOM     24  N   UNL     1       0.734  -5.961   1.403  0.00  0.00    -0.282 N 
ATOM     25  C   UNL     1      -0.599  -5.769   1.438  0.00  0.00    +0.243 C 
ATOM     26  O   UNL     1      -1.092  -4.816   0.866  0.00  0.00    -0.270 OA
BRANCH  25  27
ATOM     27  C   UNL     1      -1.459  -6.713   2.168  0.00  0.00    +0.004 C 
ATOM     28  C   UNL     1      -2.575  -7.169   1.605  0.00  0.00    +0.017 C 
ATOM     29  C   UNL     1      -1.076  -7.165   3.554  0.00  0.00    +0.048 C 
ENDBRANCH  25  27
BRANCH  24  30
ATOM     30  C   UNL     1       1.573  -5.117   0.549  0.00  0.00    +0.109 C 
BRANCH  30  32
ATOM     31  C   UNL     1       2.191  -4.586  -1.813  0.00  0.00    +0.005 C 
ATOM     32  C   UNL     1       1.398  -5.535  -0.912  0.00  0.00    +0.016 C 
ENDBRANCH  30  32
ENDBRANCH  24  30
ENDBRANCH   1  24
TORSDOF 10
