REMARK  Name = ZINC63020902
REMARK  7 active torsions:
REMARK  status: ('A' for Active; 'I' for Inactive)
REMARK    1  A    between atoms: C_1  and  C_2
REMARK    2  A    between atoms: C_2  and  C_3
REMARK    3  A    between atoms: C_2  and  C_4
REMARK    4  A    between atoms: C_2  and  N_6
REMARK    5  A    between atoms: C_4  and  N_5
REMARK    6  A    between atoms: N_6  and  C_7
REMARK    7  A    between atoms: C_16  and  N_17
REMARK                            x       y       z     vdW  Elec       q    Type
REMARK                         _______ _______ _______ _____ _____    ______ ____
ROOT
ATOM      1  C   UNL     1       1.248  -2.457  -4.003  0.00  0.00    +0.069 A 
ATOM      2  C   UNL     1       0.496  -2.011  -5.115  0.00  0.00    +0.024 A 
ATOM      3  C   UNL     1      -0.810  -1.525  -4.965  0.00  0.00    +0.027 A 
ATOM      4  C   UNL     1      -1.504  -1.104  -6.061  0.00  0.00    +0.019 A 
ATOM      5  C   UNL     1      -0.929  -1.152  -7.330  0.00  0.00    +0.017 A 
ATOM      6  C   UNL     1       0.337  -1.618  -7.510  0.00  0.00    +0.029 A 
ATOM      7  C   UNL     1       1.082  -2.060  -6.402  0.00  0.00    +0.073 A 
ATOM      8  N   UNL     1       2.329  -2.522  -6.552  0.00  0.00    -0.253 NA
ATOM      9  C   UNL     1       3.037  -2.938  -5.528  0.00  0.00    +0.146 A 
ATOM     10  C   UNL     1       2.535  -2.917  -4.233  0.00  0.00    +0.165 A 
ATOM     11 BR   UNL     1      -3.266  -0.449  -5.857  0.00  0.00    -0.050 Br
ENDROOT
BRANCH  10  12
ATOM     12  N   UNL     1       3.369  -3.390  -3.105  0.00  0.00    +0.060 N 
ATOM     13  O   UNL     1       4.444  -3.900  -3.320  0.00  0.00    -0.126 OA
ATOM     14  O   UNL     1       2.975  -3.266  -1.969  0.00  0.00    -0.126 OA
ENDBRANCH  10  12
BRANCH   1  15
ATOM     15  N   UNL     1       0.717  -2.429  -2.722  0.00  0.00    -0.338 N 
ATOM     16  H   UNL     1       0.812  -3.200  -2.141  0.00  0.00    +0.147 HD
BRANCH  15  18
ATOM     17  C   UNL     1      -1.469  -1.560  -2.054  0.00  0.00    +0.029 C 
ATOM     18  C   UNL     1       0.013  -1.235  -2.247  0.00  0.00    +0.011 C 
ATOM     19  C   UNL     1       0.159  -0.113  -3.277  0.00  0.00    +0.029 C 
BRANCH  18  20
ATOM     20  C   UNL     1       0.615  -0.785  -0.914  0.00  0.00    -0.061 C 
BRANCH  20  21
ATOM     21  N   UNL     1       2.038  -0.473  -1.100  0.00  0.00    +0.379 N 
ATOM     22  H   UNL     1       2.135   0.267  -1.779  0.00  0.00    -0.090 HD
ATOM     23  H   UNL     1       2.435  -0.176  -0.221  0.00  0.00    -0.090 HD
ATOM     24  H   UNL     1       2.523  -1.295  -1.427  0.00  0.00    -0.090 HD
ENDBRANCH  20  21
ENDBRANCH  18  20
ENDBRANCH  15  18
ENDBRANCH   1  15
TORSDOF 5
