REMARK  Name = ZINC47510363
REMARK  3 active torsions:
REMARK  status: ('A' for Active; 'I' for Inactive)
REMARK    1  A    between atoms: C_4  and  C_7
REMARK    2  A    between atoms: C_9  and  C_12
REMARK    3  A    between atoms: C_12  and  N_13
REMARK                            x       y       z     vdW  Elec       q    Type
REMARK                         _______ _______ _______ _____ _____    ______ ____
ROOT
ATOM      1  N   UNL     1       5.306  -4.405   1.316  0.00  0.00    +0.385 N 
ATOM      2  C   UNL     1       4.007  -4.191   1.965  0.00  0.00    -0.059 C 
ATOM      3  C   UNL     1       4.072  -4.689   3.413  0.00  0.00    +0.088 C 
ATOM      4  N   UNL     1       4.523  -6.089   3.404  0.00  0.00    -0.317 N 
ATOM      5  C   UNL     1       5.734  -6.423   2.637  0.00  0.00    +0.088 C 
ATOM      6  C   UNL     1       5.590  -5.843   1.226  0.00  0.00    -0.059 C 
ATOM      7  C   UNL     1       3.828  -7.066   4.098  0.00  0.00    +0.150 A 
ATOM      8  C   UNL     1       4.141  -7.357   5.428  0.00  0.00    +0.125 A 
ATOM      9  C   UNL     1       3.408  -8.356   6.089  0.00  0.00    +0.183 A 
ATOM     10  N   UNL     1       3.902  -8.440   7.339  0.00  0.00    -0.216 NA
ATOM     11  C   UNL     1       4.869  -7.579   7.489  0.00  0.00    +0.199 A 
ATOM     12  N   UNL     1       5.058  -6.886   6.344  0.00  0.00    -0.340 N 
ATOM     13  H   UNL     1       5.716  -6.189   6.194  0.00  0.00    +0.167 HD
ATOM     14  N   UNL     1       2.438  -8.988   5.420  0.00  0.00    -0.214 NA
ATOM     15  C   UNL     1       2.178  -8.680   4.169  0.00  0.00    +0.225 A 
ATOM     16  N   UNL     1       2.843  -7.744   3.515  0.00  0.00    -0.219 NA
ATOM     17  H   UNL     1       6.029  -3.954   1.857  0.00  0.00    -0.081 HD
ENDROOT
BRANCH   1  18
ATOM     18  C   UNL     1       5.277  -3.829  -0.035  0.00  0.00    -0.022 C 
BRANCH  18  21
ATOM     19  C   UNL     1       3.734  -0.502   0.258  0.00  0.00    +0.108 A 
ATOM     20  N   UNL     1       3.910  -1.814   0.172  0.00  0.00    -0.246 NA
ATOM     21  C   UNL     1       5.109  -2.334   0.060  0.00  0.00    +0.033 A 
ATOM     22  C   UNL     1       6.200  -1.523   0.031  0.00  0.00    +0.068 A 
ATOM     23  S   UNL     1       5.421   0.082   0.167  0.00  0.00    -0.075 S 
BRANCH  19  27
ATOM     24  C   UNL     1       0.130   1.715   0.628  0.00  0.00    +0.000 A 
ATOM     25  C   UNL     1       1.343   2.377   0.577  0.00  0.00    +0.001 A 
ATOM     26  C   UNL     1       2.518   1.663   0.456  0.00  0.00    +0.010 A 
ATOM     27  C   UNL     1       2.479   0.269   0.387  0.00  0.00    +0.007 A 
ATOM     28  C   UNL     1       1.252  -0.392   0.440  0.00  0.00    +0.010 A 
ATOM     29  C   UNL     1       0.085   0.334   0.560  0.00  0.00    +0.001 A 
ENDBRANCH  19  27
ENDBRANCH  18  21
ENDBRANCH   1  18
TORSDOF 3
