REMARK  Name = ZINC19763826
REMARK  3 active torsions:
REMARK  status: ('A' for Active; 'I' for Inactive)
REMARK    1  A    between atoms: C_7  and  C_15
REMARK    2  A    between atoms: C_8  and  C_12
REMARK    3  A    between atoms: C_15  and  N_16
REMARK                            x       y       z     vdW  Elec       q    Type
REMARK                         _______ _______ _______ _____ _____    ______ ____
ROOT
ATOM      1  C   UNL     1      -0.016   1.301   0.009  0.00  0.00    +0.200 A 
ATOM      2  N   UNL     1       1.125   2.034   0.002  0.00  0.00    -0.313 N 
ATOM      3  H   UNL     1       1.067   3.002   0.008  0.00  0.00    +0.170 HD
ATOM      4  C   UNL     1       2.337   1.445  -0.012  0.00  0.00    +0.260 A 
ATOM      5  O   UNL     1       3.355   2.112  -0.017  0.00  0.00    -0.267 OA
ATOM      6  C   UNL     1       2.397  -0.035  -0.021  0.00  0.00    +0.074 A 
ATOM      7  C   UNL     1       3.515  -0.869  -0.035  0.00  0.00    -0.028 A 
ATOM      8  C   UNL     1       3.344  -2.235  -0.040  0.00  0.00    +0.104 A 
ATOM      9  S   UNL     1       1.567  -2.408  -0.025  0.00  0.00    -0.062 S 
ATOM     10  C   UNL     1       1.141  -0.685  -0.013  0.00  0.00    +0.116 A 
ATOM     11  N   UNL     1       0.002  -0.004   0.002  0.00  0.00    -0.230 NA
ENDROOT
BRANCH   8  12
ATOM     12  C   UNL     1       4.332  -3.252  -0.055  0.00  0.00    +0.393 C 
ATOM     13  O   UNL     1       5.520  -2.952  -0.065  0.00  0.00    -0.240 OA
ATOM     14  O   UNL     1       3.998  -4.431  -0.058  0.00  0.00    -0.240 OA
ENDBRANCH   8  12
BRANCH   7  15
ATOM     15  C   UNL     1       4.902  -0.279  -0.045  0.00  0.00    -0.041 C 
BRANCH  15  16
ATOM     16  N   UNL     1       5.365  -0.094   1.337  0.00  0.00    +0.382 N 
ATOM     17  C   UNL     1       5.496  -1.403   1.987  0.00  0.00    -0.078 C 
ATOM     18  C   UNL     1       5.901  -1.212   3.450  0.00  0.00    -0.019 C 
ATOM     19  C   UNL     1       7.241  -0.474   3.512  0.00  0.00    -0.004 C 
ATOM     20  C   UNL     1       7.113   0.858   2.766  0.00  0.00    -0.019 C 
ATOM     21  C   UNL     1       6.664   0.590   1.328  0.00  0.00    -0.078 C 
ATOM     22  H   UNL     1       4.695   0.465   1.843  0.00  0.00    -0.081 HD
ENDBRANCH  15  16
ENDBRANCH   7  15
TORSDOF 3
