REMARK  Name = ZINC12703888
REMARK  13 active torsions:
REMARK  status: ('A' for Active; 'I' for Inactive)
REMARK    1  A    between atoms: C_1  and  C_2
REMARK    2  A    between atoms: C_2  and  N_66
REMARK    3  A    between atoms: C_3  and  C_4
REMARK    4  A    between atoms: C_3  and  N_66
REMARK    5  A    between atoms: C_5  and  C_6
REMARK    6  A    between atoms: C_5  and  N_66
REMARK    7  A    between atoms: C_6  and  C_7
REMARK    8  A    between atoms: C_7  and  N_8
REMARK    9  A    between atoms: N_8  and  C_9
REMARK   10  A    between atoms: C_9  and  C_10
REMARK   11  A    between atoms: C_15  and  C_23
REMARK   12  A    between atoms: C_16  and  C_22
REMARK   13  A    between atoms: N_26  and  C_27
REMARK                            x       y       z     vdW  Elec       q    Type
REMARK                         _______ _______ _______ _____ _____    ______ ____
ROOT
ATOM      1  N   UNL     1       0.021   1.510   0.110  0.00  0.00    -0.281 N 
ATOM      2  C   UNL     1       0.053   0.162   0.095  0.00  0.00    +0.307 C 
ATOM      3  O   UNL     1       1.120  -0.420   0.095  0.00  0.00    -0.252 OA
ATOM      4  N   UNL     1      -1.097  -0.539   0.079  0.00  0.00    -0.268 N 
ATOM      5  H   UNL     1      -1.948  -0.078   0.145  0.00  0.00    +0.156 HD
ENDROOT
BRANCH   4   6
ATOM      6  C   UNL     1      -1.065  -1.935  -0.031  0.00  0.00    +0.053 A 
ATOM      7  C   UNL     1      -0.037  -2.656   0.562  0.00  0.00    +0.025 A 
ATOM      8  C   UNL     1      -0.010  -4.032   0.455  0.00  0.00    +0.002 A 
ATOM      9  C   UNL     1      -1.000  -4.693  -0.250  0.00  0.00    +0.002 A 
ATOM     10  C   UNL     1      -2.022  -3.978  -0.846  0.00  0.00    +0.022 A 
ATOM     11  C   UNL     1      -2.058  -2.600  -0.739  0.00  0.00    +0.062 A 
ATOM     12 CL   UNL     1      -3.341  -1.703  -1.489  0.00  0.00    -0.082 Cl
ENDBRANCH   4   6
BRANCH   1  13
ATOM     13  C   UNL     1      -1.265   2.211   0.103  0.00  0.00    +0.108 C 
BRANCH  13  14
ATOM     14  C   UNL     1      -1.730   2.439   1.543  0.00  0.00    +0.000 C 
BRANCH  14  15
ATOM     15  C   UNL     1      -3.072   3.172   1.536  0.00  0.00    -0.077 C 
BRANCH  15  16
ATOM     16  N   UNL     1      -3.517   3.366   2.932  0.00  0.00    +0.379 N 
ATOM     17  H   UNL     1      -3.486   2.463   3.421  0.00  0.00    -0.082 HD
BRANCH  16  19
ATOM     18  C   UNL     1      -2.693   5.696   2.966  0.00  0.00    -0.017 C 
ATOM     19  C   UNL     1      -2.619   4.316   3.622  0.00  0.00    -0.082 C 
ENDBRANCH  16  19
BRANCH  16  20
ATOM     20  C   UNL     1      -4.904   3.876   2.955  0.00  0.00    -0.082 C 
ATOM     21  C   UNL     1      -5.456   3.737   4.375  0.00  0.00    -0.017 C 
ENDBRANCH  16  20
ENDBRANCH  15  16
ENDBRANCH  14  15
ENDBRANCH  13  14
ENDBRANCH   1  13
BRANCH   1  22
ATOM     22  C   UNL     1       1.271   2.272   0.126  0.00  0.00    +0.150 C 
BRANCH  22  23
ATOM     23  C   UNL     1       1.709   2.550  -1.288  0.00  0.00    +0.035 A 
ATOM     24  C   UNL     1       1.373   3.722  -1.882  0.00  0.00    +0.020 A 
ATOM     25  C   UNL     1       1.818   3.962  -3.256  0.00  0.00    -0.001 A 
ATOM     26  C   UNL     1       1.507   5.154  -3.919  0.00  0.00    +0.010 A 
ATOM     27  C   UNL     1       1.933   5.346  -5.203  0.00  0.00    +0.004 A 
ATOM     28  C   UNL     1       2.672   4.369  -5.856  0.00  0.00    -0.046 A 
ATOM     29  C   UNL     1       2.990   3.187  -5.222  0.00  0.00    -0.024 A 
ATOM     30  C   UNL     1       2.567   2.969  -3.914  0.00  0.00    +0.052 A 
ATOM     31  N   UNL     1       2.872   1.797  -3.256  0.00  0.00    -0.322 N 
ATOM     32  H   UNL     1       3.389   1.114  -3.712  0.00  0.00    +0.169 HD
ATOM     33  C   UNL     1       2.463   1.587  -1.993  0.00  0.00    +0.254 A 
ATOM     34  O   UNL     1       2.751   0.538  -1.442  0.00  0.00    -0.268 OA
ATOM     35  C   UNL     1       3.794   2.135  -5.942  0.00  0.00    +0.046 C 
ATOM     36  C   UNL     1       3.131   4.603  -7.272  0.00  0.00    +0.044 C 
ENDBRANCH  22  23
ENDBRANCH   1  22
TORSDOF 9
