REMARK  Name = ZINC39237988
REMARK  5 active torsions:
REMARK  status: ('A' for Active; 'I' for Inactive)
REMARK    1  A    between atoms: C_1  and  C_2
REMARK    2  A    between atoms: C_3  and  C_25
REMARK    3  A    between atoms: C_4  and  C_20
REMARK    4  A    between atoms: C_10  and  C_11
REMARK    5  A    between atoms: N_27  and  C_28
REMARK                            x       y       z     vdW  Elec       q    Type
REMARK                         _______ _______ _______ _____ _____    ______ ____
ROOT
ATOM      1  C   UNL     1       0.703   0.932  -1.517  0.00  0.00    +0.066 C 
ATOM      2  C   UNL     1       0.324  -0.453  -1.061  0.00  0.00    +0.052 C 
ATOM      3  C   UNL     1      -0.894  -0.664  -0.482  0.00  0.00    +0.063 C 
ATOM      4  C   UNL     1      -1.237  -2.068  -0.039  0.00  0.00    +0.166 C 
ATOM      5  N   UNL     1      -0.211  -3.124  -0.270  0.00  0.00    -0.274 N 
ATOM      6  C   UNL     1      -0.330  -4.419   0.052  0.00  0.00    +0.268 A 
ATOM      7  O   UNL     1      -1.337  -4.844   0.583  0.00  0.00    -0.266 OA
ATOM      8  C   UNL     1       0.804  -5.313  -0.260  0.00  0.00    +0.078 A 
ATOM      9  C   UNL     1       0.935  -6.628  -0.045  0.00  0.00    +0.024 C 
ATOM     10  S   UNL     1       1.952  -4.164  -1.004  0.00  0.00    -0.046 S 
ATOM     11  C   UNL     1       0.952  -2.695  -0.870  0.00  0.00    +0.178 A 
ATOM     12  N   UNL     1       1.175  -1.458  -1.232  0.00  0.00    -0.228 NA
ENDROOT
BRANCH   9  13
ATOM     13  C   UNL     1      -0.183  -7.399   0.607  0.00  0.00    +0.152 C 
ATOM     14  C   UNL     1      -0.569  -8.585  -0.249  0.00  0.00    +0.005 C 
ATOM     15  C   UNL     1      -0.344  -9.665   0.498  0.00  0.00    +0.017 C 
ATOM     16  C   UNL     1       0.172  -9.255   1.805  0.00  0.00    +0.105 C 
ATOM     17  N   UNL     1       0.269  -7.967   1.884  0.00  0.00    -0.280 NA
ENDBRANCH   9  13
BRANCH   4  18
ATOM     18  C   UNL     1      -2.497  -2.484  -0.752  0.00  0.00    +0.017 A 
ATOM     19  C   UNL     1      -3.753  -2.616  -0.259  0.00  0.00    +0.013 A 
ATOM     20  C   UNL     1      -4.768  -3.015  -1.108  0.00  0.00    +0.008 A 
ATOM     21  C   UNL     1      -4.478  -3.263  -2.409  0.00  0.00    +0.045 A 
ATOM     22  S   UNL     1      -2.726  -2.925  -2.467  0.00  0.00    -0.099 S 
ENDBRANCH   4  18
BRANCH   3  23
ATOM     23  C   UNL     1      -1.804   0.394  -0.302  0.00  0.00    +0.248 C 
ATOM     24  O   UNL     1      -1.530   1.509  -0.711  0.00  0.00    -0.270 OA
ATOM     25  N   UNL     1      -2.978   0.174   0.321  0.00  0.00    -0.282 N 
ATOM     26  H   UNL     1      -3.176  -0.701   0.689  0.00  0.00    +0.155 HD
BRANCH  25  27
ATOM     27  C   UNL     1      -3.912   1.208   0.437  0.00  0.00    +0.034 A 
ATOM     28  C   UNL     1      -3.482   2.522   0.577  0.00  0.00    +0.023 A 
ATOM     29  C   UNL     1      -4.407   3.541   0.691  0.00  0.00    +0.002 A 
ATOM     30  C   UNL     1      -5.760   3.255   0.668  0.00  0.00    +0.000 A 
ATOM     31  C   UNL     1      -6.191   1.948   0.530  0.00  0.00    +0.002 A 
ATOM     32  C   UNL     1      -5.272   0.925   0.408  0.00  0.00    +0.023 A 
ENDBRANCH  25  27
ENDBRANCH   3  23
TORSDOF 4
