REMARK  Name = ZINC12495428
REMARK  3 active torsions:
REMARK  status: ('A' for Active; 'I' for Inactive)
REMARK    1  A    between atoms: N_10  and  C_11
REMARK    2  A    between atoms: C_11  and  N_13
REMARK    3  A    between atoms: C_14  and  C_16
REMARK                            x       y       z     vdW  Elec       q    Type
REMARK                         _______ _______ _______ _____ _____    ______ ____
ROOT
ATOM      1  C   UNL     1      -0.823  -0.696  -0.809  0.00  0.00    +0.144 C 
ATOM      2  S   UNL     1      -0.696  -2.401  -0.906  0.00  0.00    -0.018 S 
ENDROOT
BRANCH   1  12
ATOM      3  C   UNL     1       2.171  -2.002   2.947  0.00  0.00    +0.000 A 
ATOM      4  C   UNL     1       1.131  -2.642   2.297  0.00  0.00    +0.002 A 
ATOM      5  C   UNL     1       0.414  -1.975   1.324  0.00  0.00    +0.024 A 
ATOM      6  C   UNL     1       0.737  -0.662   0.998  0.00  0.00    +0.039 A 
ATOM      7  C   UNL     1       1.777  -0.021   1.652  0.00  0.00    -0.026 A 
ATOM      8  C   UNL     1       2.492  -0.698   2.627  0.00  0.00    +0.005 A 
ATOM      9  C   UNL     1       2.151   1.401   1.330  0.00  0.00    +0.038 C 
ATOM     10  C   UNL     1       1.630   1.792  -0.053  0.00  0.00    +0.024 C 
ATOM     11  C   UNL     1       0.136   1.452  -0.134  0.00  0.00    +0.113 C 
ATOM     12  N   UNL     1      -0.001  -0.004   0.005  0.00  0.00    -0.282 N 
ENDBRANCH   1  12
BRANCH   1  13
ATOM     13  N   UNL     1      -1.744  -0.045  -1.547  0.00  0.00    -0.263 N 
ATOM     14  C   UNL     1      -2.634  -0.742  -2.280  0.00  0.00    +0.251 C 
ATOM     15  O   UNL     1      -2.607  -1.958  -2.276  0.00  0.00    -0.270 OA
ATOM     16  H   UNL     1      -1.766   0.924  -1.550  0.00  0.00    +0.157 HD
BRANCH  14  17
ATOM     17  C   UNL     1      -3.643  -0.030  -3.089  0.00  0.00    +0.055 A 
ATOM     18  C   UNL     1      -3.678   1.367  -3.096  0.00  0.00    +0.016 A 
ATOM     19  C   UNL     1      -4.623   2.026  -3.852  0.00  0.00    +0.021 A 
ATOM     20  C   UNL     1      -5.537   1.308  -4.606  0.00  0.00    +0.042 A 
ATOM     21  C   UNL     1      -5.509  -0.076  -4.604  0.00  0.00    +0.040 A 
ATOM     22  C   UNL     1      -4.565  -0.750  -3.855  0.00  0.00    +0.054 A 
ATOM     23 CL   UNL     1      -4.526  -2.485  -3.859  0.00  0.00    -0.083 Cl
ATOM     24 CL   UNL     1      -6.723   2.147  -5.556  0.00  0.00    -0.083 Cl
ENDBRANCH  14  17
ENDBRANCH   1  13
TORSDOF 3
