REMARK  Name = ZINC09418921
REMARK  7 active torsions:
REMARK  status: ('A' for Active; 'I' for Inactive)
REMARK    1  A    between atoms: C_1  and  S_2
REMARK    2  A    between atoms: S_2  and  N_5
REMARK    3  A    between atoms: N_5  and  C_6
REMARK    4  A    between atoms: C_11  and  C_12
REMARK    5  A    between atoms: C_15  and  C_18
REMARK    6  A    between atoms: C_23  and  O_24
REMARK    7  A    between atoms: C_25  and  C_27
REMARK                            x       y       z     vdW  Elec       q    Type
REMARK                         _______ _______ _______ _____ _____    ______ ____
ROOT
ATOM      1  C   UNL     1      -4.468  -0.276  -0.051  0.00  0.00    +0.071 C 
ATOM      2  N   UNL     1      -4.398   0.987  -0.298  0.00  0.00    -0.181 NA
ATOM      3  N   UNL     1      -5.276   1.422  -1.289  0.00  0.00    -0.181 N 
ATOM      4  C   UNL     1      -6.050   0.270  -1.778  0.00  0.00    +0.141 C 
ATOM      5  C   UNL     1      -5.508  -0.909  -0.947  0.00  0.00    +0.087 C 
ATOM      6  C   UNL     1      -5.396   2.691  -1.728  0.00  0.00    +0.266 C 
ATOM      7  O   UNL     1      -6.178   2.953  -2.621  0.00  0.00    -0.268 OA
ENDROOT
BRANCH   1  13
ATOM      8  C   UNL     1      -2.813  -0.281   1.816  0.00  0.00    +0.057 A 
ATOM      9  C   UNL     1      -2.057  -0.967   2.755  0.00  0.00    +0.025 A 
ATOM     10  C   UNL     1      -2.128  -2.345   2.829  0.00  0.00    +0.002 A 
ATOM     11  C   UNL     1      -2.952  -3.051   1.968  0.00  0.00    +0.001 A 
ATOM     12  C   UNL     1      -3.711  -2.386   1.029  0.00  0.00    +0.011 A 
ATOM     13  C   UNL     1      -3.654  -0.993   0.946  0.00  0.00    +0.020 A 
BRANCH   8  14
ATOM     14  N   UNL     1      -2.743   1.108   1.740  0.00  0.00    -0.220 N 
ATOM     15  H   UNL     1      -2.355   1.532   0.958  0.00  0.00    +0.173 HD
BRANCH  14  17
ATOM     16  C   UNL     1      -2.313   1.574   4.418  0.00  0.00    +0.218 C 
ATOM     17  S   UNL     1      -3.322   2.036   2.983  0.00  0.00    +0.040 S 
ATOM     18  O   UNL     1      -4.662   1.600   3.167  0.00  0.00    -0.155 OA
ATOM     19  O   UNL     1      -3.042   3.374   2.599  0.00  0.00    -0.155 OA
ENDBRANCH  14  17
ENDBRANCH   8  14
ENDBRANCH   1  13
BRANCH   4  20
ATOM     20  C   UNL     1      -5.794   0.044  -3.246  0.00  0.00    +0.017 A 
ATOM     21  C   UNL     1      -4.629   0.510  -3.824  0.00  0.00    +0.009 A 
ATOM     22  C   UNL     1      -4.391   0.299  -5.170  0.00  0.00    +0.001 A 
ATOM     23  C   UNL     1      -5.323  -0.370  -5.942  0.00  0.00    +0.004 A 
ATOM     24  C   UNL     1      -6.491  -0.834  -5.370  0.00  0.00    +0.046 A 
ATOM     25  C   UNL     1      -6.730  -0.627  -4.019  0.00  0.00    +0.122 A 
BRANCH  25  26
ATOM     26  O   UNL     1      -7.879  -1.082  -3.453  0.00  0.00    -0.506 OA
ATOM     27  H   UNL     1      -8.607  -0.447  -3.476  0.00  0.00    +0.292 HD
ENDBRANCH  25  26
ENDBRANCH   4  20
BRANCH   6  28
ATOM     28  C   UNL     1      -4.577   3.762  -1.123  0.00  0.00    +0.039 A 
ATOM     29  C   UNL     1      -3.570   3.445  -0.211  0.00  0.00    +0.013 A 
ATOM     30  C   UNL     1      -2.806   4.450   0.346  0.00  0.00    +0.001 A 
ATOM     31  C   UNL     1      -3.044   5.771   0.010  0.00  0.00    +0.000 A 
ATOM     32  C   UNL     1      -4.045   6.093  -0.890  0.00  0.00    +0.001 A 
ATOM     33  C   UNL     1      -4.812   5.097  -1.458  0.00  0.00    +0.013 A 
ENDBRANCH   6  28
TORSDOF 6
