REMARK  Name = ZINC63643245
REMARK  7 active torsions:
REMARK  status: ('A' for Active; 'I' for Inactive)
REMARK    1  A    between atoms: C_2  and  C_3
REMARK    2  A    between atoms: C_3  and  N_4
REMARK    3  A    between atoms: N_7  and  C_8
REMARK    4  A    between atoms: C_11  and  N_14
REMARK    5  A    between atoms: C_15  and  C_17
REMARK    6  A    between atoms: C_17  and  N_18
REMARK    7  A    between atoms: N_18  and  C_19
REMARK                            x       y       z     vdW  Elec       q    Type
REMARK                         _______ _______ _______ _____ _____    ______ ____
ROOT
ATOM      1  C   UNL     1      -3.577  -4.099  -2.554  0.00  0.00    +0.035 A 
ATOM      2  C   UNL     1      -4.667  -3.938  -1.709  0.00  0.00    +0.025 A 
ATOM      3  C   UNL     1      -5.820  -4.667  -1.923  0.00  0.00    +0.025 A 
ATOM      4  C   UNL     1      -5.889  -5.561  -2.983  0.00  0.00    +0.034 A 
ATOM      5  C   UNL     1      -4.799  -5.722  -3.828  0.00  0.00    +0.025 A 
ATOM      6  C   UNL     1      -3.648  -4.989  -3.618  0.00  0.00    +0.025 A 
ENDROOT
BRANCH   1  10
ATOM      7  N   UNL     1      -0.604  -2.140  -3.181  0.00  0.00    -0.296 N 
ATOM      8  C   UNL     1      -1.677  -2.930  -3.385  0.00  0.00    +0.304 C 
ATOM      9  O   UNL     1      -1.986  -3.255  -4.516  0.00  0.00    -0.253 OA
ATOM     10  N   UNL     1      -2.407  -3.359  -2.337  0.00  0.00    -0.269 N 
ATOM     11  H   UNL     1      -0.357  -1.881  -2.279  0.00  0.00    +0.151 HD
ATOM     12  H   UNL     1      -2.123  -3.156  -1.432  0.00  0.00    +0.156 HD
BRANCH   7  13
ATOM     13  C   UNL     1       0.190  -1.674  -4.321  0.00  0.00    +0.132 C 
BRANCH  13  15
ATOM     14  C   UNL     1       2.558  -1.104  -4.153  0.00  0.00    +0.005 C 
ATOM     15  C   UNL     1       1.323  -0.814  -3.824  0.00  0.00    -0.016 C 
ENDBRANCH  13  15
ENDBRANCH   7  13
ENDBRANCH   1  10
BRANCH   4  16
ATOM     16  N   UNL     1      -7.059  -6.302  -3.200  0.00  0.00    -0.284 N 
ATOM     17  C   UNL     1      -8.262  -5.751  -2.943  0.00  0.00    +0.234 C 
ATOM     18  O   UNL     1      -8.330  -4.647  -2.447  0.00  0.00    -0.274 OA
ATOM     19  H   UNL     1      -7.003  -7.210  -3.534  0.00  0.00    +0.155 HD
BRANCH  17  20
ATOM     20  C   UNL     1      -9.523  -6.508  -3.274  0.00  0.00    +0.198 C 
BRANCH  20  21
ATOM     21  N   UNL     1     -10.688  -5.701  -2.903  0.00  0.00    -0.334 N 
ATOM     22  H   UNL     1     -10.565  -4.823  -2.509  0.00  0.00    +0.147 HD
BRANCH  21  23
ATOM     23  C   UNL     1     -11.977  -6.197  -3.116  0.00  0.00    +0.046 A 
ATOM     24  C   UNL     1     -12.155  -7.456  -3.674  0.00  0.00    +0.024 A 
ATOM     25  C   UNL     1     -13.431  -7.943  -3.882  0.00  0.00    +0.002 A 
ATOM     26  C   UNL     1     -14.530  -7.178  -3.537  0.00  0.00    +0.002 A 
ATOM     27  C   UNL     1     -14.357  -5.924  -2.981  0.00  0.00    +0.022 A 
ATOM     28  C   UNL     1     -13.084  -5.433  -2.764  0.00  0.00    +0.062 A 
ATOM     29 CL   UNL     1     -12.867  -3.861  -2.060  0.00  0.00    -0.082 Cl
ENDBRANCH  21  23
ENDBRANCH  20  21
ENDBRANCH  17  20
ENDBRANCH   4  16
TORSDOF 7
