REMARK  Name = ZINC21332062
REMARK  7 active torsions:
REMARK  status: ('A' for Active; 'I' for Inactive)
REMARK    1  A    between atoms: C_1  and  C_2
REMARK    2  A    between atoms: C_8  and  N_10
REMARK    3  A    between atoms: C_14  and  C_16
REMARK    4  A    between atoms: C_16  and  O_17
REMARK    5  A    between atoms: O_17  and  C_18
REMARK    6  A    between atoms: C_18  and  C_20
REMARK    7  A    between atoms: C_22  and  N_28
REMARK                            x       y       z     vdW  Elec       q    Type
REMARK                         _______ _______ _______ _____ _____    ______ ____
ROOT
ATOM      1  C   UNL     1      -6.209   1.118  -3.456  0.00  0.00    +0.328 C 
ENDROOT
BRANCH   1   6
ATOM      2  N   UNL     1      -2.142  -0.048  -1.174  0.00  0.00    -0.296 N 
ATOM      3  C   UNL     1      -3.485   0.062  -1.159  0.00  0.00    +0.306 C 
ATOM      4  O   UNL     1      -4.108  -0.241  -0.160  0.00  0.00    -0.252 OA
ATOM      5  N   UNL     1      -4.137   0.509  -2.251  0.00  0.00    -0.237 N 
ATOM      6  C   UNL     1      -5.480   0.619  -2.236  0.00  0.00    +0.258 C 
ATOM      7  O   UNL     1      -6.102   0.317  -1.240  0.00  0.00    -0.272 OA
ATOM      8  H   UNL     1      -1.578   0.226  -2.078  0.00  0.00    +0.151 HD
ATOM      9  H   UNL     1      -3.573   0.783  -3.154  0.00  0.00    +0.159 HD
BRANCH   2  16
ATOM     10  C   UNL     1      -0.019   1.526   0.010  0.00  0.00    +0.009 C 
ATOM     11  C   UNL     1       0.002  -0.004   0.002  0.00  0.00    +0.006 C 
ATOM     12  C   UNL     1       0.742  -0.511   1.242  0.00  0.00    +0.005 C 
ATOM     13  C   UNL     1       0.763  -2.041   1.233  0.00  0.00    +0.000 C 
ATOM     14  C   UNL     1      -0.673  -2.570   1.244  0.00  0.00    +0.002 C 
ATOM     15  C   UNL     1      -1.413  -2.063   0.004  0.00  0.00    +0.022 C 
ATOM     16  C   UNL     1      -1.433  -0.534   0.013  0.00  0.00    +0.077 C 
ENDBRANCH   2  16
ENDBRANCH   1   6
BRANCH   1  17
ATOM     17  O   UNL     1      -7.636   1.146  -3.190  0.00  0.00    -0.451 OA
BRANCH  17  18
ATOM     18  C   UNL     1      -8.436   1.571  -4.187  0.00  0.00    +0.360 C 
ATOM     19  O   UNL     1      -7.954   1.910  -5.250  0.00  0.00    -0.243 OA
BRANCH  18  20
ATOM     20  C   UNL     1      -9.900   1.627  -3.988  0.00  0.00    +0.169 A 
ATOM     21  C   UNL     1     -10.721   2.067  -5.023  0.00  0.00    +0.095 A 
ATOM     22  C   UNL     1     -12.101   2.113  -4.819  0.00  0.00    +0.067 A 
ATOM     23  C   UNL     1     -12.600   1.713  -3.581  0.00  0.00    +0.100 A 
ATOM     24  C   UNL     1     -11.718   1.287  -2.600  0.00  0.00    +0.150 A 
ATOM     25  N   UNL     1     -10.421   1.250  -2.825  0.00  0.00    -0.226 NA
ATOM     26 CL   UNL     1     -12.334   0.786  -1.056  0.00  0.00    -0.060 Cl
ATOM     27 CL   UNL     1     -14.308   1.748  -3.271  0.00  0.00    -0.078 Cl
ATOM     28 CL   UNL     1     -10.038   2.553  -6.543  0.00  0.00    -0.079 Cl
BRANCH  22  29
ATOM     29  N   UNL     1     -12.958   2.547  -5.828  0.00  0.00    -0.356 N 
ATOM     30  H   UNL     1     -14.043   2.578  -5.653  0.00  0.00    +0.142 HD
ATOM     31  H   UNL     1     -12.549   2.859  -6.801  0.00  0.00    +0.142 HD
ENDBRANCH  22  29
ENDBRANCH  18  20
ENDBRANCH  17  18
ENDBRANCH   1  17
TORSDOF 6
