REMARK  Name = ZINC01068178
REMARK  4 active torsions:
REMARK  status: ('A' for Active; 'I' for Inactive)
REMARK    1  A    between atoms: C_6  and  C_7
REMARK    2  A    between atoms: C_14  and  N_29
REMARK    3  A    between atoms: C_15  and  C_27
REMARK    4  A    between atoms: C_16  and  C_18
REMARK                            x       y       z     vdW  Elec       q    Type
REMARK                         _______ _______ _______ _____ _____    ______ ____
ROOT
ATOM      1  C   UNL     1      -1.557  -1.030   0.156  0.00  0.00    +0.100 A 
ATOM      2  C   UNL     1      -1.668  -2.119  -0.713  0.00  0.00    +0.054 A 
ATOM      3  C   UNL     1      -2.924  -2.637  -0.583  0.00  0.00    +0.223 A 
ATOM      4  N   UNL     1      -3.579  -1.900   0.338  0.00  0.00    -0.246 N 
ATOM      5  H   UNL     1      -4.491  -2.038   0.635  0.00  0.00    +0.192 HD
ATOM      6  N   UNL     1      -2.705  -0.900   0.793  0.00  0.00    -0.171 NA
ATOM      7  O   UNL     1      -3.352  -3.708  -1.298  0.00  0.00    -0.423 OA
ATOM      8  C   UNL     1      -2.603  -4.095  -2.350  0.00  0.00    +0.200 C 
ATOM      9  C   UNL     1      -1.344  -3.662  -2.578  0.00  0.00    +0.098 C 
ATOM     10  C   UNL     1      -0.644  -2.692  -1.659  0.00  0.00    +0.102 C 
ENDROOT
BRANCH  10  11
ATOM     11  C   UNL     1       0.424  -3.413  -0.876  0.00  0.00    -0.031 A 
ATOM     12  C   UNL     1       0.074  -4.428  -0.006  0.00  0.00    +0.008 A 
ATOM     13  C   UNL     1       1.050  -5.092   0.714  0.00  0.00    +0.050 A 
ATOM     14  C   UNL     1       2.381  -4.741   0.564  0.00  0.00    +0.166 A 
ATOM     15  C   UNL     1       2.734  -3.718  -0.313  0.00  0.00    +0.167 A 
ATOM     16  C   UNL     1       1.751  -3.060  -1.035  0.00  0.00    +0.054 A 
ATOM     17  O   UNL     1       4.090  -3.564  -0.281  0.00  0.00    -0.453 OA
ATOM     18  C   UNL     1       4.524  -4.223   0.923  0.00  0.00    +0.466 C 
ATOM     19  O   UNL     1       3.517  -5.228   1.145  0.00  0.00    -0.453 OA
ENDBRANCH  10  11
BRANCH   1  25
ATOM     20  C   UNL     1       0.381   0.235  -0.773  0.00  0.00    +0.013 A 
ATOM     21  C   UNL     1       1.495   1.031  -0.601  0.00  0.00    +0.039 A 
ATOM     22  C   UNL     1       1.880   1.423   0.671  0.00  0.00    +0.123 A 
ATOM     23  C   UNL     1       1.149   1.018   1.775  0.00  0.00    +0.039 A 
ATOM     24  C   UNL     1       0.033   0.223   1.613  0.00  0.00    +0.013 A 
ATOM     25  C   UNL     1      -0.357  -0.174   0.336  0.00  0.00    +0.003 A 
ATOM     26  F   UNL     1       2.973   2.201   0.834  0.00  0.00    -0.205 F 
ENDBRANCH   1  25
BRANCH   8  27
ATOM     27  N   UNL     1      -3.153  -4.982  -3.243  0.00  0.00    -0.328 N 
ATOM     28  H   UNL     1      -4.055  -5.311  -3.106  0.00  0.00    +0.145 HD
ATOM     29  H   UNL     1      -2.639  -5.279  -4.010  0.00  0.00    +0.145 HD
ENDBRANCH   8  27
BRANCH   9  30
ATOM     30  C   UNL     1      -0.647  -4.141  -3.734  0.00  0.00    +0.101 C 
ATOM     31  N   UNL     1      -0.095  -4.522  -4.651  0.00  0.00    -0.191 NA
ENDBRANCH   9  30
TORSDOF 4
