REMARK  Name = ZINC38050981
REMARK  5 active torsions:
REMARK  status: ('A' for Active; 'I' for Inactive)
REMARK    1  A    between atoms: C_3  and  N_13
REMARK    2  A    between atoms: C_4  and  C_10
REMARK    3  A    between atoms: C_6  and  N_7
REMARK    4  A    between atoms: N_13  and  C_14
REMARK    5  A    between atoms: C_20  and  N_22
REMARK                            x       y       z     vdW  Elec       q    Type
REMARK                         _______ _______ _______ _____ _____    ______ ____
ROOT
ATOM      1  C   UNL     1      -0.058   1.302   0.016  0.00  0.00    +0.034 A 
ATOM      2  C   UNL     1       1.074   2.092  -0.010  0.00  0.00    +0.026 A 
ATOM      3  C   UNL     1       2.332   1.504  -0.032  0.00  0.00    +0.040 A 
ATOM      4  C   UNL     1       2.446   0.105  -0.027  0.00  0.00    +0.059 A 
ATOM      5  C   UNL     1       1.291  -0.680  -0.000  0.00  0.00    +0.047 A 
ATOM      6  C   UNL     1       0.051  -0.079   0.021  0.00  0.00    +0.127 A 
ENDROOT
BRANCH   4   7
ATOM      7  C   UNL     1       3.775  -0.531  -0.050  0.00  0.00    +0.243 C 
ATOM      8  O   UNL     1       4.778   0.151   0.034  0.00  0.00    -0.270 OA
ATOM      9  N   UNL     1       3.880  -1.870  -0.165  0.00  0.00    -0.325 N 
ATOM     10  H   UNL     1       3.080  -2.415  -0.232  0.00  0.00    +0.145 HD
ATOM     11  H   UNL     1       4.754  -2.289  -0.180  0.00  0.00    +0.145 HD
ENDBRANCH   4   7
BRANCH   6  12
ATOM     12  N   UNL     1      -1.171  -0.914   0.049  0.00  0.00    +0.056 N 
ATOM     13  O   UNL     1      -2.261  -0.390   0.068  0.00  0.00    -0.126 OA
ATOM     14  O   UNL     1      -1.080  -2.119   0.053  0.00  0.00    -0.126 OA
ENDBRANCH   6  12
BRANCH   3  15
ATOM     15  N   UNL     1       3.472   2.297  -0.059  0.00  0.00    -0.342 N 
ATOM     16  H   UNL     1       4.349   1.887   0.004  0.00  0.00    +0.146 HD
BRANCH  15  17
ATOM     17  C   UNL     1       3.350   3.752  -0.182  0.00  0.00    +0.056 C 
ATOM     18  C   UNL     1       3.231   4.130  -1.660  0.00  0.00    +0.020 C 
ATOM     19  C   UNL     1       4.478   3.657  -2.410  0.00  0.00    +0.002 C 
ATOM     20  C   UNL     1       5.717   4.325  -1.811  0.00  0.00    -0.001 C 
ATOM     21  C   UNL     1       5.837   3.947  -0.334  0.00  0.00    -0.014 C 
ATOM     22  C   UNL     1       4.590   4.420   0.416  0.00  0.00    -0.055 C 
BRANCH  22  23
ATOM     23  N   UNL     1       4.704   4.057   1.835  0.00  0.00    +0.381 N 
ATOM     24  H   UNL     1       4.788   3.055   1.920  0.00  0.00    -0.090 HD
ATOM     25  H   UNL     1       5.521   4.498   2.230  0.00  0.00    -0.090 HD
ATOM     26  H   UNL     1       3.882   4.369   2.330  0.00  0.00    -0.090 HD
ENDBRANCH  22  23
ENDBRANCH  15  17
ENDBRANCH   3  15
TORSDOF 5
