REMARK  Name = ZINC08660939
REMARK  6 active torsions:
REMARK  status: ('A' for Active; 'I' for Inactive)
REMARK    1  A    between atoms: C_3  and  C_16
REMARK    2  A    between atoms: C_6  and  C_7
REMARK    3  A    between atoms: C_8  and  C_9
REMARK    4  A    between atoms: C_9  and  O_15
REMARK    5  A    between atoms: C_21  and  C_24
REMARK    6  A    between atoms: C_21  and  N_27
REMARK                            x       y       z     vdW  Elec       q    Type
REMARK                         _______ _______ _______ _____ _____    ______ ____
ROOT
ATOM      1  C   UNL     1       3.142   0.527  -0.331  0.00  0.00    +0.247 C 
ATOM      2  O   UNL     1       2.643   1.636  -0.324  0.00  0.00    -0.270 OA
ATOM      3  N   UNL     1       4.468   0.385  -0.140  0.00  0.00    -0.298 N 
ATOM      4  C   UNL     1       5.105  -0.934  -0.266  0.00  0.00    +0.107 C 
ATOM      5  C   UNL     1       6.267  -0.827  -1.259  0.00  0.00    +0.016 C 
ATOM      6  C   UNL     1       7.215   0.289  -0.812  0.00  0.00    +0.015 C 
ATOM      7  C   UNL     1       6.465   1.623  -0.800  0.00  0.00    +0.016 C 
ATOM      8  C   UNL     1       5.306   1.545   0.191  0.00  0.00    +0.107 C 
ENDROOT
BRANCH   6   9
ATOM      9  N   UNL     1       8.347   0.372  -1.743  0.00  0.00    +0.389 N 
ATOM     10  C   UNL     1       9.072  -0.905  -1.744  0.00  0.00    -0.077 C 
ATOM     11  C   UNL     1      10.204  -0.852  -2.773  0.00  0.00    -0.019 C 
ATOM     12  C   UNL     1      11.166   0.283  -2.407  0.00  0.00    -0.004 C 
ATOM     13  C   UNL     1      10.384   1.598  -2.336  0.00  0.00    -0.019 C 
ATOM     14  C   UNL     1       9.245   1.454  -1.324  0.00  0.00    -0.077 C 
ATOM     15  H   UNL     1       8.004   0.562  -2.673  0.00  0.00    -0.080 HD
ENDBRANCH   6   9
BRANCH   1  18
ATOM     16  C   UNL     1       0.392  -1.692  -1.592  0.00  0.00    +0.017 A 
ATOM     17  C   UNL     1       1.181  -0.583  -1.389  0.00  0.00    +0.014 A 
ATOM     18  C   UNL     1       2.295  -0.663  -0.549  0.00  0.00    +0.037 A 
ATOM     19  C   UNL     1       2.608  -1.869   0.084  0.00  0.00    +0.014 A 
ATOM     20  C   UNL     1       1.819  -2.978  -0.120  0.00  0.00    +0.017 A 
ATOM     21  C   UNL     1       0.705  -2.898  -0.960  0.00  0.00    +0.025 A 
BRANCH  21  22
ATOM     22  C   UNL     1      -0.116  -4.052  -1.171  0.00  0.00    -0.063 C 
ATOM     23  C   UNL     1      -0.789  -4.998  -1.345  0.00  0.00    -0.062 C 
BRANCH  23  24
ATOM     24  C   UNL     1      -1.633  -6.184  -1.562  0.00  0.00    +0.127 C 
ATOM     25  C   UNL     1      -1.641  -6.539  -3.050  0.00  0.00    +0.048 C 
ATOM     26  C   UNL     1      -0.212  -6.838  -3.510  0.00  0.00    +0.004 C 
ATOM     27  C   UNL     1       0.346  -8.015  -2.708  0.00  0.00    +0.000 C 
ATOM     28  C   UNL     1       0.353  -7.660  -1.220  0.00  0.00    +0.004 C 
ATOM     29  C   UNL     1      -1.075  -7.361  -0.760  0.00  0.00    +0.048 C 
BRANCH  24  30
ATOM     30  O   UNL     1      -2.967  -5.905  -1.132  0.00  0.00    -0.377 OA
ATOM     31  H   UNL     1      -3.385  -5.168  -1.599  0.00  0.00    +0.211 HD
ENDBRANCH  24  30
ENDBRANCH  23  24
ENDBRANCH  21  22
ENDBRANCH   1  18
BRANCH   6  32
ATOM     32  C   UNL     1       7.725  -0.012   0.574  0.00  0.00    +0.200 C 
ATOM     33  O   UNL     1       7.607  -1.127   1.035  0.00  0.00    -0.278 OA
ATOM     34  N   UNL     1       8.313   0.959   1.301  0.00  0.00    -0.330 N 
ATOM     35  H   UNL     1       8.343   1.868   0.962  0.00  0.00    +0.145 HD
ATOM     36  H   UNL     1       8.706   0.749   2.163  0.00  0.00    +0.145 HD
ENDBRANCH   6  32
TORSDOF 6
