REMARK  Name = ZINC35851607
REMARK  3 active torsions:
REMARK  status: ('A' for Active; 'I' for Inactive)
REMARK    1  A    between atoms: C_1  and  C_2
REMARK    2  A    between atoms: C_2  and  C_3
REMARK    3  A    between atoms: N_25  and  C_28
REMARK                            x       y       z     vdW  Elec       q    Type
REMARK                         _______ _______ _______ _____ _____    ______ ____
ROOT
ATOM      1  C   UNL     1      -1.671   0.202   0.225  0.00  0.00    -0.026 A 
ATOM      2  C   UNL     1      -2.239  -0.299   1.378  0.00  0.00    +0.005 A 
ATOM      3  C   UNL     1      -3.413  -1.027   1.319  0.00  0.00    +0.001 A 
ATOM      4  C   UNL     1      -4.021  -1.254   0.097  0.00  0.00    +0.004 A 
ATOM      5  C   UNL     1      -3.458  -0.756  -1.056  0.00  0.00    -0.027 A 
ATOM      6  C   UNL     1      -2.280  -0.017  -1.008  0.00  0.00    +0.039 A 
ATOM      7  N   UNL     1      -1.909   0.385  -2.294  0.00  0.00    -0.286 N 
ATOM      8  C   UNL     1      -2.779  -0.040  -3.229  0.00  0.00    +0.212 C 
ATOM      9  O   UNL     1      -2.711   0.157  -4.424  0.00  0.00    -0.277 OA
ATOM     10  C   UNL     1      -3.846  -0.819  -2.507  0.00  0.00    +0.053 C 
ATOM     11  C   UNL     1      -5.226  -0.196  -2.747  0.00  0.00    +0.089 C 
ATOM     12  C   UNL     1      -6.197  -1.406  -2.825  0.00  0.00    +0.074 C 
ATOM     13  C   UNL     1      -5.313  -2.648  -2.607  0.00  0.00    -0.054 C 
ATOM     14  N   UNL     1      -3.929  -2.210  -2.984  0.00  0.00    +0.395 N 
ATOM     15  C   UNL     1      -3.909  -2.220  -4.466  0.00  0.00    -0.076 C 
ATOM     16  C   UNL     1      -4.750  -3.446  -4.873  0.00  0.00    -0.020 C 
ATOM     17  C   UNL     1      -5.691  -3.728  -3.637  0.00  0.00    -0.016 C 
ATOM     18  C   UNL     1      -6.689  -1.367  -4.254  0.00  0.00    +0.228 C 
ATOM     19  O   UNL     1      -7.473  -2.149  -4.746  0.00  0.00    -0.275 OA
ATOM     20  N   UNL     1      -6.123  -0.335  -4.891  0.00  0.00    -0.210 N 
ATOM     21  C   UNL     1      -5.281   0.404  -4.134  0.00  0.00    +0.229 C 
ATOM     22  O   UNL     1      -4.667   1.384  -4.498  0.00  0.00    -0.275 OA
ATOM     23  H   UNL     1      -1.117   0.909  -2.489  0.00  0.00    +0.155 HD
ATOM     24  H   UNL     1      -3.217  -2.799  -2.578  0.00  0.00    -0.079 HD
ENDROOT
BRANCH  20  25
ATOM     25  C   UNL     1      -6.387  -0.037  -6.235  0.00  0.00    +0.045 A 
ATOM     26  C   UNL     1      -7.648   0.401  -6.617  0.00  0.00    +0.024 A 
ATOM     27  C   UNL     1      -7.905   0.694  -7.941  0.00  0.00    +0.003 A 
ATOM     28  C   UNL     1      -6.908   0.552  -8.889  0.00  0.00    +0.020 A 
ATOM     29  C   UNL     1      -5.650   0.116  -8.512  0.00  0.00    +0.043 A 
ATOM     30  C   UNL     1      -5.386  -0.174  -7.187  0.00  0.00    +0.044 A 
ATOM     31 CL   UNL     1      -4.401  -0.062  -9.705  0.00  0.00    -0.083 Cl
ENDBRANCH  20  25
BRANCH   1  33
ATOM     32  C   UNL     1      -0.720   2.488   0.361  0.00  0.00    +0.009 C 
ATOM     33  C   UNL     1      -0.392   0.995   0.300  0.00  0.00    +0.033 C 
ENDBRANCH   1  33
TORSDOF 2
