REMARK  Name = ZINC16995094
REMARK  3 active torsions:
REMARK  status: ('A' for Active; 'I' for Inactive)
REMARK    1  A    between atoms: C_4  and  C_7
REMARK    2  A    between atoms: C_7  and  N_8
REMARK    3  A    between atoms: C_14  and  C_18
REMARK                            x       y       z     vdW  Elec       q    Type
REMARK                         _______ _______ _______ _____ _____    ______ ____
ROOT
ATOM      1  N   UNL     1       4.152  -0.952   1.338  0.00  0.00    -0.216 N 
ATOM      2  C   UNL     1       4.921  -0.034   1.961  0.00  0.00    +0.261 C 
ATOM      3  O   UNL     1       5.253   0.993   1.399  0.00  0.00    -0.269 OA
ATOM      4  C   UNL     1       5.344  -0.316   3.343  0.00  0.00    +0.119 C 
ATOM      5  C   UNL     1       6.132   0.572   4.053  0.00  0.00    +0.038 C 
ATOM      6  C   UNL     1       6.631   0.383   5.474  0.00  0.00    +0.077 C 
ATOM      7  C   UNL     1       7.101   1.810   5.849  0.00  0.00    +0.108 C 
ATOM      8  N   UNL     1       7.375   2.400   4.518  0.00  0.00    -0.235 NA
ATOM      9  N   UNL     1       6.597   1.752   3.604  0.00  0.00    -0.283 N 
ATOM     10  C   UNL     1       4.888  -1.589   3.936  0.00  0.00    +0.278 C 
ATOM     11  N   UNL     1       4.125  -2.404   3.189  0.00  0.00    -0.123 NA
ATOM     12  C   UNL     1       3.775  -2.097   1.965  0.00  0.00    +0.336 C 
ATOM     13  O   UNL     1       3.002  -2.968   1.287  0.00  0.00    -0.250 OA
ATOM     14  O   UNL     1       5.197  -1.894   5.075  0.00  0.00    -0.268 OA
ATOM     15  H   UNL     1       8.351   2.316   4.279  0.00  0.00    +0.145 HD
ATOM     16  H   UNL     1       6.398   2.107   2.723  0.00  0.00    +0.166 HD
ENDROOT
BRANCH   7  17
ATOM     17  C   UNL     1       8.354   1.762   6.685  0.00  0.00    -0.029 A 
ATOM     18  C   UNL     1       9.583   1.579   6.080  0.00  0.00    +0.005 A 
ATOM     19  C   UNL     1      10.732   1.535   6.847  0.00  0.00    +0.000 A 
ATOM     20  C   UNL     1      10.652   1.674   8.220  0.00  0.00    +0.000 A 
ATOM     21  C   UNL     1       9.423   1.859   8.825  0.00  0.00    +0.000 A 
ATOM     22  C   UNL     1       8.274   1.907   8.058  0.00  0.00    +0.005 A 
ENDBRANCH   7  17
BRANCH   1  23
ATOM     23  C   UNL     1       3.711  -0.707  -0.038  0.00  0.00    +0.153 C 
BRANCH  23  27
ATOM     24  C   UNL     1      -0.017   1.378   0.010  0.00  0.00    +0.000 A 
ATOM     25  C   UNL     1       1.171   2.086   0.002  0.00  0.00    +0.000 A 
ATOM     26  C   UNL     1       2.377   1.411  -0.013  0.00  0.00    +0.005 A 
ATOM     27  C   UNL     1       2.396   0.029  -0.020  0.00  0.00    -0.030 A 
ATOM     28  C   UNL     1       1.208  -0.679  -0.012  0.00  0.00    +0.005 A 
ATOM     29  C   UNL     1       0.002  -0.004   0.002  0.00  0.00    +0.000 A 
ENDBRANCH  23  27
ENDBRANCH   1  23
TORSDOF 3
