REMARK  Name = ZINC34791315
REMARK  8 active torsions:
REMARK  status: ('A' for Active; 'I' for Inactive)
REMARK    1  A    between atoms: C_1  and  C_2
REMARK    2  A    between atoms: C_5  and  C_8
REMARK    3  A    between atoms: C_8  and  N_9
REMARK    4  A    between atoms: C_10  and  N_26
REMARK    5  A    between atoms: C_11  and  C_24
REMARK    6  A    between atoms: C_18  and  C_21
REMARK    7  A    between atoms: C_21  and  C_22
REMARK    8  A    between atoms: C_21  and  C_23
REMARK                            x       y       z     vdW  Elec       q    Type
REMARK                         _______ _______ _______ _____ _____    ______ ____
ROOT
ATOM      1  N   UNL     1       1.447  -4.746  -0.032  0.00  0.00    -0.291 N 
ATOM      2  C   UNL     1       2.078  -4.950  -1.218  0.00  0.00    +0.117 A 
ATOM      3  C   UNL     1       3.400  -5.400  -1.235  0.00  0.00    +0.093 A 
ATOM      4  C   UNL     1       4.069  -5.638  -0.014  0.00  0.00    -0.014 A 
ATOM      5  C   UNL     1       3.414  -5.420   1.156  0.00  0.00    +0.047 A 
ATOM      6  C   UNL     1       2.082  -4.965   1.132  0.00  0.00    +0.259 A 
ATOM      7  O   UNL     1       1.494  -4.772   2.183  0.00  0.00    -0.267 OA
ATOM      8  C   UNL     1       4.081  -5.639   2.489  0.00  0.00    +0.201 C 
ATOM      9  O   UNL     1       5.260  -6.428   2.329  0.00  0.00    -0.371 OA
ATOM     10  C   UNL     1       6.144  -5.920   1.322  0.00  0.00    +0.126 C 
ATOM     11  C   UNL     1       5.491  -6.134  -0.045  0.00  0.00    +0.069 C 
ENDROOT
BRANCH  10  12
ATOM     12  C   UNL     1       7.476  -6.671   1.381  0.00  0.00    +0.012 C 
ATOM     13  C   UNL     1       8.111  -6.475   2.759  0.00  0.00    +0.010 C 
ATOM     14  C   UNL     1       7.232  -8.162   1.138  0.00  0.00    +0.010 C 
ENDBRANCH  10  12
BRANCH   2  15
ATOM     15  N   UNL     1       1.419  -4.714  -2.394  0.00  0.00    -0.343 N 
ATOM     16  H   UNL     1       0.501  -4.402  -2.382  0.00  0.00    +0.144 HD
ATOM     17  H   UNL     1       1.871  -4.860  -3.240  0.00  0.00    +0.144 HD
ENDBRANCH   2  15
BRANCH   3  18
ATOM     18  C   UNL     1       4.072  -5.619  -2.481  0.00  0.00    +0.103 C 
ATOM     19  N   UNL     1       4.605  -5.793  -3.469  0.00  0.00    -0.191 NA
ENDBRANCH   3  18
BRANCH   1  20
ATOM     20  C   UNL     1       0.059  -4.275  -0.021  0.00  0.00    +0.161 C 
BRANCH  20  25
ATOM     21  C   UNL     1      -0.018   1.503   0.010  0.00  0.00    +0.044 C 
ATOM     22  C   UNL     1       0.002  -0.004   0.002  0.00  0.00    -0.050 A 
ATOM     23  C   UNL     1       0.006  -0.689  -1.199  0.00  0.00    +0.004 A 
ATOM     24  C   UNL     1       0.025  -2.071  -1.206  0.00  0.00    +0.005 A 
ATOM     25  C   UNL     1       0.040  -2.768  -0.013  0.00  0.00    -0.028 A 
ATOM     26  C   UNL     1       0.037  -2.084   1.188  0.00  0.00    +0.005 A 
ATOM     27  C   UNL     1       0.023  -0.702   1.195  0.00  0.00    +0.004 A 
ENDBRANCH  20  25
ENDBRANCH   1  20
TORSDOF 5
