REMARK  Name = ZINC66305793
REMARK  7 active torsions:
REMARK  status: ('A' for Active; 'I' for Inactive)
REMARK    1  A    between atoms: C_3  and  N_14
REMARK    2  A    between atoms: C_6  and  C_7
REMARK    3  A    between atoms: C_8  and  C_9
REMARK    4  A    between atoms: C_8  and  C_11
REMARK    5  A    between atoms: C_15  and  C_17
REMARK    6  A    between atoms: C_17  and  C_18
REMARK    7  A    between atoms: C_21  and  C_23
REMARK                            x       y       z     vdW  Elec       q    Type
REMARK                         _______ _______ _______ _____ _____    ______ ____
ROOT
ATOM      1  N   UNL     1       4.299   0.543  -0.053  0.00  0.00    -0.285 N 
ATOM      2  C   UNL     1       5.222  -0.427  -0.208  0.00  0.00    +0.223 C 
ATOM      3  O   UNL     1       4.872  -1.575  -0.384  0.00  0.00    -0.275 OA
ATOM      4  H   UNL     1       4.574   1.471  -0.004  0.00  0.00    +0.155 HD
ENDROOT
BRANCH   1   7
ATOM      5  C   UNL     1       1.242  -1.299   0.757  0.00  0.00    +0.010 A 
ATOM      6  C   UNL     1       2.564  -0.969   0.667  0.00  0.00    +0.024 A 
ATOM      7  C   UNL     1       2.948   0.211   0.035  0.00  0.00    +0.033 A 
ATOM      8  C   UNL     1       1.988   1.061  -0.508  0.00  0.00    +0.024 A 
ATOM      9  C   UNL     1       0.663   0.741  -0.424  0.00  0.00    +0.010 A 
ATOM     10  C   UNL     1       0.270  -0.447   0.211  0.00  0.00    -0.024 A 
BRANCH  10  11
ATOM     11  C   UNL     1      -1.149  -0.795   0.304  0.00  0.00    +0.032 C 
ATOM     12  C   UNL     1      -1.671  -1.244   1.498  0.00  0.00    +0.114 C 
BRANCH  12  13
ATOM     13  C   UNL     1      -0.879  -1.138   2.733  0.00  0.00    +0.252 C 
ATOM     14  O   UNL     1       0.184  -0.548   2.725  0.00  0.00    -0.270 OA
ATOM     15  N   UNL     1      -1.332  -1.696   3.874  0.00  0.00    -0.325 N 
ATOM     16  H   UNL     1      -2.180  -2.166   3.880  0.00  0.00    +0.145 HD
ATOM     17  H   UNL     1      -0.810  -1.626   4.688  0.00  0.00    +0.145 HD
ENDBRANCH  12  13
BRANCH  12  18
ATOM     18  C   UNL     1      -2.985  -1.812   1.536  0.00  0.00    +0.104 C 
ATOM     19  N   UNL     1      -4.027  -2.264   1.566  0.00  0.00    -0.191 NA
ENDBRANCH  12  18
ENDBRANCH  10  11
ENDBRANCH   1   7
BRANCH   2  20
ATOM     20  C   UNL     1       6.689  -0.085  -0.163  0.00  0.00    +0.152 C 
BRANCH  20  21
ATOM     21  C   UNL     1       7.503  -1.337  -0.361  0.00  0.00    +0.058 A 
ATOM     22  C   UNL     1       8.439  -1.393  -1.348  0.00  0.00    +0.071 A 
ATOM     23  S   UNL     1       9.063  -3.053  -1.116  0.00  0.00    -0.074 S 
ATOM     24  C   UNL     1       8.014  -3.489   0.265  0.00  0.00    +0.128 A 
ATOM     25  N   UNL     1       7.316  -2.373   0.420  0.00  0.00    -0.242 NA
BRANCH  24  26
ATOM     26  C   UNL     1       7.948  -4.752   1.030  0.00  0.00    +0.114 A 
ATOM     27  C   UNL     1       8.793  -5.815   0.704  0.00  0.00    +0.141 A 
ATOM     28  N   UNL     1       8.729  -6.939   1.391  0.00  0.00    -0.260 NA
ATOM     29  C   UNL     1       7.867  -7.060   2.387  0.00  0.00    +0.130 A 
ATOM     30  C   UNL     1       7.027  -6.010   2.714  0.00  0.00    +0.131 A 
ATOM     31  N   UNL     1       7.086  -4.878   2.037  0.00  0.00    -0.250 NA
ENDBRANCH  24  26
ENDBRANCH  20  21
ENDBRANCH   2  20
TORSDOF 7
