REMARK  Name = ZINC12857260
REMARK  9 active torsions:
REMARK  status: ('A' for Active; 'I' for Inactive)
REMARK    1  A    between atoms: C_1  and  C_2
REMARK    2  A    between atoms: C_5  and  C_8
REMARK    3  A    between atoms: N_13  and  C_14
REMARK    4  A    between atoms: C_14  and  C_15
REMARK    5  A    between atoms: N_17  and  C_18
REMARK    6  A    between atoms: C_18  and  C_19
REMARK    7  A    between atoms: C_19  and  C_21
REMARK    8  A    between atoms: C_19  and  O_30
REMARK    9  A    between atoms: C_24  and  N_27
REMARK                            x       y       z     vdW  Elec       q    Type
REMARK                         _______ _______ _______ _____ _____    ______ ____
ROOT
ATOM      1  C   UNL     1      -4.458   3.719  -0.252  0.00  0.00    +0.233 C 
ATOM      2  O   UNL     1      -4.558   3.245  -1.364  0.00  0.00    -0.274 OA
ATOM      3  N   UNL     1      -4.762   5.015  -0.042  0.00  0.00    -0.311 N 
ATOM      4  H   UNL     1      -4.671   5.444   0.967  0.00  0.00    +0.149 HD
ENDROOT
BRANCH   1   5
ATOM      5  C   UNL     1      -3.996   2.858   0.895  0.00  0.00    +0.221 C 
BRANCH   5  11
ATOM      6  C   UNL     1      -2.515   1.023  -0.035  0.00  0.00    +0.165 A 
ATOM      7  N   UNL     1      -2.664  -0.223  -0.390  0.00  0.00    -0.128 NA
ATOM      8  N   UNL     1      -4.000  -0.581  -0.167  0.00  0.00    -0.121 NA
ATOM      9  C   UNL     1      -4.635   0.503   0.324  0.00  0.00    +0.203 A 
ATOM     10  S   UNL     1      -6.288   0.597   0.758  0.00  0.00    -0.009 SA
ATOM     11  N   UNL     1      -3.732   1.500   0.411  0.00  0.00    -0.293 N 
BRANCH   6  16
ATOM     12  C   UNL     1       2.382   4.033  -0.319  0.00  0.00    +0.044 C 
ATOM     13  C   UNL     1       1.100   3.245  -0.241  0.00  0.00    -0.050 A 
ATOM     14  C   UNL     1       1.142   1.862  -0.217  0.00  0.00    +0.004 A 
ATOM     15  C   UNL     1      -0.028   1.135  -0.146  0.00  0.00    +0.012 A 
ATOM     16  C   UNL     1      -1.256   1.797  -0.105  0.00  0.00    +0.019 A 
ATOM     17  C   UNL     1      -1.291   3.191  -0.124  0.00  0.00    +0.012 A 
ATOM     18  C   UNL     1      -0.114   3.907  -0.195  0.00  0.00    +0.004 A 
ENDBRANCH   6  16
ENDBRANCH   5  11
ENDBRANCH   1   5
BRANCH   3  19
ATOM     19  C   UNL     1      -5.212   5.852  -1.157  0.00  0.00    +0.140 C 
BRANCH  19  20
ATOM     20  C   UNL     1      -5.487   7.270  -0.651  0.00  0.00    +0.162 C 
BRANCH  20  21
ATOM     21  C   UNL     1      -5.950   8.131  -1.798  0.00  0.00    -0.018 A 
ATOM     22  C   UNL     1      -7.283   8.138  -2.163  0.00  0.00    +0.008 A 
ATOM     23  C   UNL     1      -7.709   8.932  -3.211  0.00  0.00    +0.033 A 
ATOM     24  C   UNL     1      -6.799   9.710  -3.902  0.00  0.00    +0.126 A 
ATOM     25  C   UNL     1      -5.465   9.699  -3.541  0.00  0.00    +0.033 A 
ATOM     26  C   UNL     1      -5.040   8.909  -2.489  0.00  0.00    +0.008 A 
BRANCH  24  27
ATOM     27  N   UNL     1      -7.253  10.556  -5.029  0.00  0.00    +0.056 N 
ATOM     28  O   UNL     1      -6.452  11.241  -5.638  0.00  0.00    -0.126 OA
ATOM     29  O   UNL     1      -8.429  10.566  -5.348  0.00  0.00    -0.126 OA
ENDBRANCH  24  27
ENDBRANCH  20  21
BRANCH  20  30
ATOM     30  O   UNL     1      -6.503   7.228   0.353  0.00  0.00    -0.386 OA
ATOM     31  H   UNL     1      -6.837   8.158   0.837  0.00  0.00    +0.210 HD
ENDBRANCH  20  30
ENDBRANCH  19  20
ENDBRANCH   3  19
TORSDOF 8
