REMARK  Name = ZINC09381123
REMARK  9 active torsions:
REMARK  status: ('A' for Active; 'I' for Inactive)
REMARK    1  A    between atoms: C_1  and  C_2
REMARK    2  A    between atoms: C_2  and  O_3
REMARK    3  A    between atoms: O_3  and  C_4
REMARK    4  A    between atoms: C_4  and  C_6
REMARK    5  A    between atoms: N_9  and  C_12
REMARK    6  A    between atoms: C_12  and  C_14
REMARK    7  A    between atoms: C_12  and  C_21
REMARK    8  A    between atoms: C_22  and  O_30
REMARK    9  A    between atoms: C_27  and  C_29
REMARK                            x       y       z     vdW  Elec       q    Type
REMARK                         _______ _______ _______ _____ _____    ______ ____
ROOT
ATOM      1  C   UNL     1       2.004  -4.662   6.066  0.00  0.00    +0.005 C 
ENDROOT
BRANCH   1   2
ATOM      2  C   UNL     1       1.928  -6.162   5.945  0.00  0.00    +0.045 A 
ATOM      3  C   UNL     1       2.909  -7.068   6.036  0.00  0.00    +0.225 A 
ATOM      4  N   UNL     1       2.640  -8.408   5.896  0.00  0.00    -0.173 N 
ATOM      5  C   UNL     1       1.346  -8.763   5.665  0.00  0.00    +0.199 A 
ATOM      6  S   UNL     1       0.503  -7.199   5.652  0.00  0.00    -0.050 S 
ATOM      7  N   UNL     1       1.261 -10.061   5.557  0.00  0.00    -0.205 NA
ATOM      8  C   UNL     1       2.470 -10.596   5.711  0.00  0.00    +0.150 A 
ATOM      9  N   UNL     1       3.339  -9.643   5.918  0.00  0.00    -0.147 NA
ATOM     10  C   UNL     1       2.787 -12.068   5.655  0.00  0.00    +0.090 C 
BRANCH   3  11
ATOM     11  O   UNL     1       4.185  -6.658   6.268  0.00  0.00    -0.492 OA
ATOM     12  H   UNL     1       4.827  -7.379   6.319  0.00  0.00    +0.294 HD
ENDBRANCH   3  11
ENDBRANCH   1   2
BRANCH   1  16
ATOM     13  C   UNL     1       1.516  -2.381   2.500  0.00  0.00    +0.094 C 
ATOM     14  C   UNL     1       0.808  -1.934   3.783  0.00  0.00    -0.004 C 
ATOM     15  C   UNL     1       1.491  -2.583   4.988  0.00  0.00    -0.077 C 
ATOM     16  N   UNL     1       1.417  -4.044   4.870  0.00  0.00    +0.387 N 
ATOM     17  C   UNL     1       2.155  -4.486   3.680  0.00  0.00    -0.077 C 
ATOM     18  C   UNL     1       1.497  -3.910   2.424  0.00  0.00    -0.004 C 
ATOM     19  H   UNL     1       0.451  -4.325   4.788  0.00  0.00    -0.080 HD
BRANCH  13  20
ATOM     20  C   UNL     1       0.801  -1.808   1.304  0.00  0.00    +0.310 C 
ATOM     21  O   UNL     1       0.324  -2.546   0.475  0.00  0.00    -0.251 OA
BRANCH  20  22
ATOM     22  O   UNL     1       0.693  -0.477   1.160  0.00  0.00    -0.465 OA
BRANCH  22  24
ATOM     23  C   UNL     1      -0.019   1.526   0.010  0.00  0.00    +0.048 C 
ATOM     24  C   UNL     1       0.002  -0.004   0.002  0.00  0.00    +0.229 C 
ENDBRANCH  22  24
ENDBRANCH  20  22
ENDBRANCH  13  20
ENDBRANCH   1  16
BRANCH   1  25
ATOM     25  C   UNL     1       1.242  -4.217   7.287  0.00  0.00    -0.056 A 
ATOM     26  C   UNL     1      -0.136  -4.114   7.242  0.00  0.00    +0.003 A 
ATOM     27  C   UNL     1      -0.836  -3.706   8.362  0.00  0.00    +0.015 A 
ATOM     28  C   UNL     1      -0.158  -3.401   9.528  0.00  0.00    +0.018 A 
ATOM     29  C   UNL     1       1.221  -3.503   9.572  0.00  0.00    +0.015 A 
ATOM     30  C   UNL     1       1.920  -3.916   8.454  0.00  0.00    +0.003 A 
ATOM     31 BR   UNL     1      -1.114  -2.842  11.060  0.00  0.00    -0.050 Br
ENDBRANCH   1  25
TORSDOF 7
