REMARK  Name = ZINC41256277
REMARK  7 active torsions:
REMARK  status: ('A' for Active; 'I' for Inactive)
REMARK    1  A    between atoms: C_1  and  C_2
REMARK    2  A    between atoms: C_2  and  C_3
REMARK    3  A    between atoms: C_2  and  C_4
REMARK    4  A    between atoms: C_4  and  C_6
REMARK    5  A    between atoms: C_4  and  N_17
REMARK    6  A    between atoms: C_18  and  O_20
REMARK    7  A    between atoms: O_20  and  C_21
REMARK                            x       y       z     vdW  Elec       q    Type
REMARK                         _______ _______ _______ _____ _____    ______ ____
ROOT
ATOM      1  C   UNL     1      -2.301  -0.049  -0.969  0.00  0.00    +0.240 C 
ATOM      2  O   UNL     1      -1.830   0.583  -1.891  0.00  0.00    -0.273 OA
ATOM      3  N   UNL     1      -3.624  -0.300  -0.929  0.00  0.00    -0.269 N 
ATOM      4  C   UNL     1      -4.573   0.026  -1.998  0.00  0.00    +0.118 C 
ATOM      5  C   UNL     1      -5.940  -0.452  -1.483  0.00  0.00    +0.056 C 
ATOM      6  C   UNL     1      -5.651  -1.031  -0.116  0.00  0.00    -0.024 A 
ATOM      7  C   UNL     1      -4.293  -0.914   0.134  0.00  0.00    +0.040 A 
ATOM      8  C   UNL     1      -3.783  -1.389   1.344  0.00  0.00    +0.024 A 
ATOM      9  C   UNL     1      -4.622  -1.969   2.272  0.00  0.00    +0.002 A 
ATOM     10  C   UNL     1      -5.975  -2.085   2.011  0.00  0.00    +0.000 A 
ATOM     11  C   UNL     1      -6.488  -1.609   0.819  0.00  0.00    +0.005 A 
ENDROOT
BRANCH   1  12
ATOM     12  C   UNL     1      -1.405  -0.553   0.134  0.00  0.00    +0.165 C 
BRANCH  12  13
ATOM     13  N   UNL     1      -1.413  -2.018   0.137  0.00  0.00    -0.270 N 
ATOM     14  C   UNL     1      -1.134  -2.691   1.271  0.00  0.00    +0.401 C 
ATOM     15  O   UNL     1      -0.877  -2.083   2.291  0.00  0.00    -0.226 OA
ATOM     16  H   UNL     1      -1.618  -2.504  -0.677  0.00  0.00    +0.153 HD
BRANCH  14  17
ATOM     17  O   UNL     1      -1.141  -4.038   1.273  0.00  0.00    -0.454 OA
ATOM     18  C   UNL     1      -0.836  -4.686   2.510  0.00  0.00    +0.282 C 
ENDBRANCH  14  17
ENDBRANCH  12  13
BRANCH  12  20
ATOM     19  C   UNL     1       0.052   1.473   0.032  0.00  0.00    +0.009 C 
ATOM     20  C   UNL     1       0.021  -0.051  -0.097  0.00  0.00    +0.012 C 
ATOM     21  C   UNL     1       0.955  -0.670   0.944  0.00  0.00    +0.009 C 
ENDBRANCH  12  20
ENDBRANCH   1  12
TORSDOF 4
