REMARK  Name = ZINC06670456
REMARK  13 active torsions:
REMARK  status: ('A' for Active; 'I' for Inactive)
REMARK    1  A    between atoms: C_1  and  C_2
REMARK    2  A    between atoms: C_2  and  O_3
REMARK    3  A    between atoms: O_3  and  C_4
REMARK    4  A    between atoms: C_4  and  C_6
REMARK    5  A    between atoms: C_10  and  N_11
REMARK    6  A    between atoms: C_12  and  C_14
REMARK    7  A    between atoms: N_16  and  C_17
REMARK    8  A    between atoms: C_17  and  C_18
REMARK    9  A    between atoms: C_18  and  N_54
REMARK   10  A    between atoms: C_19  and  N_54
REMARK   11  A    between atoms: C_20  and  N_54
REMARK   12  A    between atoms: C_23  and  C_25
REMARK   13  A    between atoms: C_23  and  C_26
REMARK                            x       y       z     vdW  Elec       q    Type
REMARK                         _______ _______ _______ _____ _____    ______ ____
ROOT
ATOM      1  C   UNL     1      -2.470  -2.957   0.056  0.00  0.00    +0.091 A 
ATOM      2  C   UNL     1      -1.390  -2.034  -0.233  0.00  0.00    -0.016 A 
ATOM      3  C   UNL     1      -0.278  -2.593  -0.764  0.00  0.00    +0.021 A 
ATOM      4  S   UNL     1      -0.651  -4.317  -0.882  0.00  0.00    -0.075 S 
ATOM      5  C   UNL     1      -2.259  -4.300  -0.236  0.00  0.00    +0.087 A 
ATOM      6  C   UNL     1       0.973  -1.869  -1.153  0.00  0.00    +0.203 C 
ATOM      7  O   UNL     1       0.678  -0.463  -1.172  0.00  0.00    -0.368 OA
ATOM      8  C   UNL     1       0.002  -0.004   0.002  0.00  0.00    +0.068 C 
ATOM      9  C   UNL     1      -1.436  -0.531   0.020  0.00  0.00    +0.071 C 
ATOM     10  C   UNL     1      -0.019   1.526   0.010  0.00  0.00    +0.041 C 
ATOM     11  C   UNL     1       0.743  -0.508   1.242  0.00  0.00    +0.041 C 
ENDROOT
BRANCH   5  12
ATOM     12  N   UNL     1      -3.124  -5.365  -0.055  0.00  0.00    -0.272 N 
ATOM     13  C   UNL     1      -2.741  -6.610  -0.401  0.00  0.00    +0.304 C 
ATOM     14  O   UNL     1      -1.638  -6.797  -0.871  0.00  0.00    -0.265 OA
ATOM     15  H   UNL     1      -4.006  -5.215   0.321  0.00  0.00    +0.156 HD
BRANCH  13  16
ATOM     16  C   UNL     1      -3.674  -7.759  -0.205  0.00  0.00    +0.299 C 
ATOM     17  O   UNL     1      -4.777  -7.572   0.265  0.00  0.00    -0.265 OA
ATOM     18  N   UNL     1      -3.292  -9.004  -0.551  0.00  0.00    -0.309 N 
ATOM     19  H   UNL     1      -2.410  -9.154  -0.927  0.00  0.00    +0.149 HD
BRANCH  18  20
ATOM     20  C   UNL     1      -4.207 -10.132  -0.359  0.00  0.00    +0.086 C 
BRANCH  20  21
ATOM     21  C   UNL     1      -3.532 -11.422  -0.829  0.00  0.00    -0.061 C 
BRANCH  21  24
ATOM     22  C   UNL     1      -5.623 -12.433  -1.512  0.00  0.00    -0.097 C 
ATOM     23  C   UNL     1      -3.761 -13.833  -0.851  0.00  0.00    -0.097 C 
ATOM     24  N   UNL     1      -4.459 -12.552  -0.609  0.00  0.00    +0.377 N 
ATOM     25  H   UNL     1      -4.788 -12.530   0.363  0.00  0.00    -0.083 HD
ENDBRANCH  21  24
ENDBRANCH  20  21
ENDBRANCH  18  20
ENDBRANCH  13  16
ENDBRANCH   5  12
BRANCH   1  26
ATOM     26  C   UNL     1      -3.734  -2.493   0.632  0.00  0.00    +0.342 C 
ATOM     27  O   UNL     1      -4.646  -2.150  -0.097  0.00  0.00    -0.245 OA
BRANCH  26  28
ATOM     28  O   UNL     1      -3.888  -2.445   1.972  0.00  0.00    -0.461 OA
BRANCH  28  30
ATOM     29  C   UNL     1      -5.153  -1.990   4.002  0.00  0.00    +0.048 C 
ATOM     30  C   UNL     1      -5.167  -1.974   2.472  0.00  0.00    +0.229 C 
ENDBRANCH  28  30
ENDBRANCH  26  28
ENDBRANCH   1  26
TORSDOF 8
