REMARK  Name = ZINC56598702
REMARK  9 active torsions:
REMARK  status: ('A' for Active; 'I' for Inactive)
REMARK    1  A    between atoms: C_1  and  C_2
REMARK    2  A    between atoms: C_5  and  C_32
REMARK    3  A    between atoms: N_8  and  C_10
REMARK    4  A    between atoms: C_10  and  C_11
REMARK    5  A    between atoms: C_11  and  C_13
REMARK    6  A    between atoms: C_11  and  N_14
REMARK    7  A    between atoms: N_17  and  C_18
REMARK    8  A    between atoms: C_21  and  N_24
REMARK    9  A    between atoms: C_25  and  C_27
REMARK                            x       y       z     vdW  Elec       q    Type
REMARK                         _______ _______ _______ _____ _____    ______ ____
ROOT
ATOM      1  N   UNL     1       3.516  -2.535   0.929  0.00  0.00    -0.298 N 
ATOM      2  C   UNL     1       4.538  -1.880   0.344  0.00  0.00    +0.304 C 
ATOM      3  O   UNL     1       5.024  -0.904   0.884  0.00  0.00    -0.253 OA
ATOM      4  N   UNL     1       5.023  -2.307  -0.838  0.00  0.00    -0.269 N 
ATOM      5  H   UNL     1       3.129  -3.313   0.499  0.00  0.00    +0.150 HD
ATOM      6  H   UNL     1       4.682  -3.123  -1.236  0.00  0.00    +0.156 HD
ENDROOT
BRANCH   4   7
ATOM      7  C   UNL     1       6.021  -1.572  -1.493  0.00  0.00    +0.035 A 
ATOM      8  C   UNL     1       6.030  -1.497  -2.880  0.00  0.00    +0.025 A 
ATOM      9  C   UNL     1       7.013  -0.773  -3.525  0.00  0.00    +0.025 A 
ATOM     10  C   UNL     1       7.991  -0.120  -2.787  0.00  0.00    +0.034 A 
ATOM     11  C   UNL     1       7.981  -0.195  -1.401  0.00  0.00    +0.025 A 
ATOM     12  C   UNL     1       6.996  -0.914  -0.755  0.00  0.00    +0.025 A 
BRANCH  10  13
ATOM     13  N   UNL     1       8.988   0.614  -3.442  0.00  0.00    -0.279 N 
ATOM     14  C   UNL     1       8.697   1.286  -4.573  0.00  0.00    +0.284 C 
ATOM     15  O   UNL     1       7.591   1.188  -5.072  0.00  0.00    -0.266 OA
ATOM     16  H   UNL     1       9.888   0.639  -3.081  0.00  0.00    +0.155 HD
BRANCH  14  17
ATOM     17  C   UNL     1       9.712   2.136  -5.203  0.00  0.00    +0.189 A 
ATOM     18  C   UNL     1       9.549   2.872  -6.342  0.00  0.00    +0.054 A 
ATOM     19  C   UNL     1      10.768   3.527  -6.577  0.00  0.00    +0.042 A 
ATOM     20  C   UNL     1      11.611   3.167  -5.585  0.00  0.00    +0.196 A 
ATOM     21  O   UNL     1      10.970   2.333  -4.756  0.00  0.00    -0.458 OA
ENDBRANCH  14  17
ENDBRANCH  10  13
ENDBRANCH   4   7
BRANCH   1  22
ATOM     22  C   UNL     1       2.988  -2.070   2.215  0.00  0.00    +0.055 C 
ATOM     23  C   UNL     1       3.824  -2.661   3.352  0.00  0.00    +0.026 C 
BRANCH  22  24
ATOM     24  C   UNL     1       1.534  -2.522   2.363  0.00  0.00    -0.057 C 
BRANCH  24  30
ATOM     25  C   UNL     1      -0.063   1.436  -0.035  0.00  0.00    +0.005 C 
ATOM     26  C   UNL     1      -0.022  -0.094  -0.038  0.00  0.00    -0.031 C 
ATOM     27  C   UNL     1      -1.452  -0.643  -0.028  0.00  0.00    +0.003 C 
ATOM     28  C   UNL     1      -1.399  -2.172   0.048  0.00  0.00    -0.031 C 
ATOM     29  C   UNL     1      -0.609  -2.589   1.290  0.00  0.00    -0.076 C 
ATOM     30  N   UNL     1       0.756  -2.055   1.207  0.00  0.00    +0.381 N 
ATOM     31  C   UNL     1       0.719  -0.588   1.206  0.00  0.00    -0.076 C 
ATOM     32  C   UNL     1      -2.822  -2.728   0.137  0.00  0.00    +0.005 C 
ATOM     33  H   UNL     1       1.192  -2.379   0.357  0.00  0.00    -0.082 HD
ENDBRANCH  24  30
ENDBRANCH  22  24
ENDBRANCH   1  22
TORSDOF 6
