REMARK  Name = ZINC39655056
REMARK  7 active torsions:
REMARK  status: ('A' for Active; 'I' for Inactive)
REMARK    1  A    between atoms: C_4  and  C_7
REMARK    2  A    between atoms: C_7  and  O_8
REMARK    3  A    between atoms: O_8  and  C_9
REMARK    4  A    between atoms: C_14  and  C_17
REMARK    5  A    between atoms: C_21  and  C_30
REMARK    6  A    between atoms: N_32  and  C_33
REMARK    7  A    between atoms: C_33  and  C_34
REMARK                            x       y       z     vdW  Elec       q    Type
REMARK                         _______ _______ _______ _____ _____    ______ ____
ROOT
ATOM      1  C   UNL     1       8.142  -0.501   6.077  0.00  0.00    +0.219 C 
ATOM      2  O   UNL     1       7.896   0.647   6.382  0.00  0.00    -0.275 OA
ATOM      3  N   UNL     1       9.247  -1.104   6.558  0.00  0.00    -0.300 N 
ATOM      4  C   UNL     1       9.773  -2.445   6.211  0.00  0.00    +0.121 C 
ATOM      5  C   UNL     1      11.306  -2.260   6.153  0.00  0.00    +0.100 C 
ATOM      6  C   UNL     1      11.587  -1.033   7.036  0.00  0.00    -0.004 C 
ATOM      7  C   UNL     1      10.214  -0.573   7.548  0.00  0.00    +0.115 C 
ATOM      8  C   UNL     1      12.234   0.076   6.211  0.00  0.00    -0.010 C 
ATOM      9  C   UNL     1      12.555   1.263   7.123  0.00  0.00    -0.082 C 
ATOM     10  N   UNL     1      13.462   0.829   8.193  0.00  0.00    +0.379 N 
ATOM     11  C   UNL     1      12.797  -0.171   9.038  0.00  0.00    -0.082 C 
ATOM     12  C   UNL     1      12.486  -1.418   8.207  0.00  0.00    -0.010 C 
ATOM     13  H   UNL     1      14.292   0.425   7.786  0.00  0.00    -0.086 HD
ATOM     14  H   UNL     1      13.721   1.625   8.757  0.00  0.00    -0.086 HD
ENDROOT
BRANCH   1  20
ATOM     15  C   UNL     1       3.330  -1.873   3.966  0.00  0.00    +0.403 C 
ATOM     16  O   UNL     1       2.829  -1.101   3.173  0.00  0.00    -0.226 OA
ATOM     17  N   UNL     1       4.669  -1.915   4.111  0.00  0.00    -0.267 N 
ATOM     18  C   UNL     1       5.290  -2.847   5.062  0.00  0.00    +0.112 C 
ATOM     19  C   UNL     1       6.212  -2.057   5.996  0.00  0.00    +0.032 C 
ATOM     20  C   UNL     1       7.211  -1.253   5.161  0.00  0.00    +0.078 C 
ATOM     21  C   UNL     1       6.455  -0.260   4.275  0.00  0.00    +0.032 C 
ATOM     22  C   UNL     1       5.536  -1.034   3.317  0.00  0.00    +0.112 C 
BRANCH  15  23
ATOM     23  O   UNL     1       2.547  -2.686   4.700  0.00  0.00    -0.445 OA
BRANCH  23  24
ATOM     24  C   UNL     1       1.137  -2.588   4.495  0.00  0.00    +0.269 C 
BRANCH  24  28
ATOM     25  C   UNL     1      -0.872  -5.360   7.050  0.00  0.00    +0.000 A 
ATOM     26  C   UNL     1      -0.613  -4.076   7.491  0.00  0.00    +0.000 A 
ATOM     27  C   UNL     1       0.037  -3.179   6.665  0.00  0.00    +0.007 A 
ATOM     28  C   UNL     1       0.428  -3.566   5.396  0.00  0.00    -0.010 A 
ATOM     29  C   UNL     1       0.170  -4.850   4.955  0.00  0.00    +0.007 A 
ATOM     30  C   UNL     1      -0.482  -5.747   5.781  0.00  0.00    +0.000 A 
ENDBRANCH  24  28
ENDBRANCH  23  24
ENDBRANCH  15  23
ENDBRANCH   1  20
BRANCH   5  31
ATOM     31  C   UNL     1      11.750  -2.002   4.736  0.00  0.00    +0.219 C 
ATOM     32  O   UNL     1      11.025  -1.398   3.974  0.00  0.00    -0.275 OA
ATOM     33  N   UNL     1      12.953  -2.442   4.316  0.00  0.00    -0.308 N 
ATOM     34  H   UNL     1      13.532  -2.925   4.925  0.00  0.00    +0.149 HD
BRANCH  33  35
ATOM     35  C   UNL     1      13.384  -2.191   2.938  0.00  0.00    +0.178 C 
BRANCH  35  36
ATOM     36  C   UNL     1      14.754  -2.781   2.726  0.00  0.00    +0.122 A 
ATOM     37  C   UNL     1      15.015  -4.029   2.296  0.00  0.00    +0.046 A 
ATOM     38  C   UNL     1      16.422  -4.157   2.241  0.00  0.00    +0.041 A 
ATOM     39  C   UNL     1      16.937  -2.981   2.641  0.00  0.00    +0.195 A 
ATOM     40  O   UNL     1      15.922  -2.149   2.928  0.00  0.00    -0.466 OA
ENDBRANCH  35  36
ENDBRANCH  33  35
ENDBRANCH   5  31
TORSDOF 7
