REMARK  Name = ZINC40066855
REMARK  14 active torsions:
REMARK  status: ('A' for Active; 'I' for Inactive)
REMARK    1  A    between atoms: C_1  and  C_2
REMARK    2  A    between atoms: C_3  and  C_32
REMARK    3  A    between atoms: C_4  and  C_31
REMARK    4  A    between atoms: C_7  and  C_8
REMARK    5  A    between atoms: C_8  and  C_10
REMARK    6  A    between atoms: C_10  and  O_11
REMARK    7  A    between atoms: O_11  and  C_12
REMARK    8  A    between atoms: C_12  and  C_14
REMARK    9  A    between atoms: N_19  and  C_21
REMARK   10  A    between atoms: C_24  and  O_29
REMARK   11  A    between atoms: C_25  and  O_27
REMARK   12  A    between atoms: O_27  and  C_28
REMARK   13  A    between atoms: O_29  and  C_30
REMARK   14  A    between atoms: C_32  and  C_34
REMARK                            x       y       z     vdW  Elec       q    Type
REMARK                         _______ _______ _______ _____ _____    ______ ____
ROOT
ATOM      1  C   UNL     1       0.059  -1.579   5.906  0.00  0.00    +0.313 C 
ATOM      2  O   UNL     1       0.057  -2.781   5.790  0.00  0.00    -0.250 OA
ENDROOT
BRANCH   1   3
ATOM      3  C   UNL     1       0.078  -0.955   7.278  0.00  0.00    +0.124 C 
ATOM      4  C   UNL     1       1.385  -0.159   7.505  0.00  0.00    +0.112 C 
ATOM      5  C   UNL     1       1.721  -0.407   8.959  0.00  0.00    +0.221 C 
ATOM      6  O   UNL     1       2.505   0.249   9.612  0.00  0.00    -0.275 OA
ATOM      7  N   UNL     1       1.025  -1.460   9.422  0.00  0.00    -0.270 N 
ATOM      8  C   UNL     1       0.172  -2.037   8.376  0.00  0.00    +0.128 C 
BRANCH   7   9
ATOM      9  C   UNL     1       1.103  -1.943  10.735  0.00  0.00    +0.040 A 
ATOM     10  C   UNL     1       1.843  -1.253  11.686  0.00  0.00    +0.027 A 
ATOM     11  C   UNL     1       1.921  -1.729  12.981  0.00  0.00    +0.051 A 
ATOM     12  C   UNL     1       1.262  -2.896  13.333  0.00  0.00    +0.162 A 
ATOM     13  C   UNL     1       0.520  -3.589  12.382  0.00  0.00    +0.163 A 
ATOM     14  C   UNL     1       0.437  -3.109  11.085  0.00  0.00    +0.073 A 
BRANCH  13  15
ATOM     15  O   UNL     1      -0.128  -4.734  12.726  0.00  0.00    -0.491 OA
ATOM     16  C   UNL     1      -0.871  -5.394  11.699  0.00  0.00    +0.277 C 
ENDBRANCH  13  15
BRANCH  12  17
ATOM     17  O   UNL     1       1.340  -3.363  14.608  0.00  0.00    -0.491 OA
ATOM     18  C   UNL     1       2.119  -2.601  15.532  0.00  0.00    +0.277 C 
ENDBRANCH  12  17
ENDBRANCH   7   9
ENDBRANCH   1   3
BRANCH   1  19
ATOM     19  O   UNL     1       0.043  -0.798   4.814  0.00  0.00    -0.456 OA
BRANCH  19  20
ATOM     20  C   UNL     1       0.024  -1.457   3.546  0.00  0.00    +0.313 C 
BRANCH  20  21
ATOM     21  C   UNL     1       0.008  -0.428   2.446  0.00  0.00    +0.217 C 
ATOM     22  O   UNL     1       0.012   0.755   2.720  0.00  0.00    -0.287 OA
BRANCH  21  29
ATOM     23  C   UNL     1      -0.028   1.498   0.007  0.00  0.00    +0.047 C 
ATOM     24  C   UNL     1      -0.027  -0.009  -0.007  0.00  0.00    -0.012 A 
ATOM     25  C   UNL     1      -0.037  -0.841  -1.149  0.00  0.00    +0.041 A 
ATOM     26  C   UNL     1      -0.032  -2.153  -0.699  0.00  0.00    +0.024 A 
ATOM     27  N   UNL     1      -0.021  -2.146   0.641  0.00  0.00    -0.355 N 
ATOM     28  H   UNL     1      -0.015  -2.934   1.207  0.00  0.00    +0.166 HD
ATOM     29  C   UNL     1      -0.011  -0.840   1.091  0.00  0.00    +0.090 A 
ATOM     30  C   UNL     1      -0.039  -3.382  -1.570  0.00  0.00    +0.064 C 
BRANCH  25  31
ATOM     31  C   UNL     1      -0.050  -0.401  -2.548  0.00  0.00    +0.162 C 
ATOM     32  O   UNL     1      -1.102  -0.306  -3.144  0.00  0.00    -0.292 OA
ATOM     33  C   UNL     1       1.244  -0.065  -3.245  0.00  0.00    +0.091 C 
ENDBRANCH  25  31
ENDBRANCH  21  29
ENDBRANCH  20  21
ENDBRANCH  19  20
ENDBRANCH   1  19
TORSDOF 9
