REMARK  Name = ZINC40011625
REMARK  11 active torsions:
REMARK  status: ('A' for Active; 'I' for Inactive)
REMARK    1  A    between atoms: C_1  and  C_2
REMARK    2  A    between atoms: C_7  and  C_29
REMARK    3  A    between atoms: N_12  and  C_13
REMARK    4  A    between atoms: C_13  and  C_14
REMARK    5  A    between atoms: C_14  and  N_15
REMARK    6  A    between atoms: N_15  and  C_16
REMARK    7  A    between atoms: C_16  and  N_18
REMARK    8  A    between atoms: N_18  and  C_19
REMARK    9  A    between atoms: C_24  and  C_25
REMARK   10  A    between atoms: C_25  and  O_27
REMARK   11  A    between atoms: O_27  and  C_28
REMARK                            x       y       z     vdW  Elec       q    Type
REMARK                         _______ _______ _______ _____ _____    ______ ____
ROOT
ATOM      1  C   UNL     1      -0.389  -4.822   6.029  0.00  0.00    +0.122 C 
ENDROOT
BRANCH   1   2
ATOM      2  N   UNL     1      -0.128  -4.098   7.276  0.00  0.00    -0.325 N 
ATOM      3  H   UNL     1       0.042  -3.143   7.255  0.00  0.00    +0.148 HD
BRANCH   2   4
ATOM      4  C   UNL     1      -0.124  -4.758   8.451  0.00  0.00    +0.135 C 
ATOM      5  S   UNL     1      -0.423  -6.443   8.487  0.00  0.00    -0.019 S 
BRANCH   4   6
ATOM      6  N   UNL     1       0.116  -4.091   9.597  0.00  0.00    -0.296 N 
ATOM      7  H   UNL     1       0.354  -3.151   9.571  0.00  0.00    +0.154 HD
BRANCH   6   8
ATOM      8  C   UNL     1       0.023  -4.752  10.819  0.00  0.00    +0.047 A 
ATOM      9  C   UNL     1       0.631  -5.988  10.992  0.00  0.00    +0.024 A 
ATOM     10  C   UNL     1       0.538  -6.641  12.204  0.00  0.00    +0.002 A 
ATOM     11  C   UNL     1      -0.162  -6.072  13.256  0.00  0.00    +0.001 A 
ATOM     12  C   UNL     1      -0.772  -4.846  13.103  0.00  0.00    +0.017 A 
ATOM     13  C   UNL     1      -0.682  -4.170  11.884  0.00  0.00    +0.080 A 
BRANCH  13  14
ATOM     14  C   UNL     1      -1.328  -2.856  11.715  0.00  0.00    +0.341 C 
ATOM     15  O   UNL     1      -1.333  -2.317  10.626  0.00  0.00    -0.245 OA
BRANCH  14  16
ATOM     16  O   UNL     1      -1.913  -2.252  12.768  0.00  0.00    -0.464 OA
ATOM     17  C   UNL     1      -2.520  -0.980  12.532  0.00  0.00    +0.280 C 
ENDBRANCH  14  16
ENDBRANCH  13  14
ENDBRANCH   6   8
ENDBRANCH   4   6
ENDBRANCH   2   4
ENDBRANCH   1   2
BRANCH   1  18
ATOM     18  C   UNL     1      -0.336  -3.847   4.852  0.00  0.00    +0.121 C 
BRANCH  18  30
ATOM     19  C   UNL     1       0.159   1.663   0.105  0.00  0.00    +0.044 C 
ATOM     20  C   UNL     1      -0.111   0.180   0.086  0.00  0.00    -0.048 A 
ATOM     21  C   UNL     1      -0.352  -0.457  -1.129  0.00  0.00    +0.004 A 
ATOM     22  C   UNL     1      -0.598  -1.795  -1.179  0.00  0.00    +0.010 A 
ATOM     23  C   UNL     1      -0.609  -2.545   0.009  0.00  0.00    +0.002 A 
ATOM     24  C   UNL     1      -0.859  -3.928  -0.006  0.00  0.00    +0.032 A 
ATOM     25  C   UNL     1      -0.855  -4.608   1.204  0.00  0.00    +0.092 A 
ATOM     26  C   UNL     1      -0.601  -3.894   2.400  0.00  0.00    +0.137 A 
ATOM     27  N   UNL     1      -0.370  -2.599   2.387  0.00  0.00    -0.231 NA
ATOM     28  C   UNL     1      -0.363  -1.898   1.247  0.00  0.00    +0.073 A 
ATOM     29  C   UNL     1      -0.108  -0.516   1.256  0.00  0.00    +0.031 A 
ATOM     30  N   UNL     1      -0.597  -4.571   3.606  0.00  0.00    -0.327 N 
ATOM     31  H   UNL     1      -0.766  -5.526   3.626  0.00  0.00    +0.148 HD
BRANCH  25  32
ATOM     32  C   UNL     1      -1.105  -6.017   1.243  0.00  0.00    +0.103 C 
ATOM     33  N   UNL     1      -1.303  -7.135   1.274  0.00  0.00    -0.191 NA
ENDBRANCH  25  32
ENDBRANCH  18  30
ENDBRANCH   1  18
TORSDOF 9
