REMARK  Name = ZINC39667675
REMARK  6 active torsions:
REMARK  status: ('A' for Active; 'I' for Inactive)
REMARK    1  A    between atoms: C_1  and  C_2
REMARK    2  A    between atoms: C_6  and  C_9
REMARK    3  A    between atoms: C_7  and  C_8
REMARK    4  A    between atoms: C_9  and  N_10
REMARK    5  A    between atoms: C_11  and  C_13
REMARK    6  A    between atoms: C_24  and  C_26
REMARK                            x       y       z     vdW  Elec       q    Type
REMARK                         _______ _______ _______ _____ _____    ______ ____
ROOT
ATOM      1  C   UNL     1      -2.921  -3.593   4.760  0.00  0.00    +0.100 C 
ATOM      2  C   UNL     1      -3.893  -4.262   3.762  0.00  0.00    +0.121 C 
ATOM      3  N   UNL     1      -3.926  -5.686   4.170  0.00  0.00    -0.295 N 
ATOM      4  C   UNL     1      -3.914  -5.645   5.652  0.00  0.00    +0.115 C 
ATOM      5  C   UNL     1      -2.940  -4.502   6.000  0.00  0.00    -0.004 C 
ATOM      6  C   UNL     1      -1.546  -5.060   6.268  0.00  0.00    -0.010 C 
ATOM      7  C   UNL     1      -1.579  -5.915   7.538  0.00  0.00    -0.082 C 
ATOM      8  N   UNL     1      -2.025  -5.095   8.670  0.00  0.00    +0.379 N 
ATOM      9  C   UNL     1      -3.402  -4.638   8.446  0.00  0.00    -0.082 C 
ATOM     10  C   UNL     1      -3.446  -3.729   7.214  0.00  0.00    -0.010 C 
ATOM     11  C   UNL     1      -3.960  -6.773   3.374  0.00  0.00    +0.265 C 
ATOM     12  O   UNL     1      -3.864  -6.647   2.169  0.00  0.00    -0.268 OA
ATOM     13  H   UNL     1      -1.988  -5.643   9.516  0.00  0.00    -0.086 HD
ATOM     14  H   UNL     1      -1.418  -4.295   8.764  0.00  0.00    -0.086 HD
ENDROOT
BRANCH  11  15
ATOM     15  C   UNL     1      -4.114  -8.123   3.968  0.00  0.00    +0.126 A 
ATOM     16  C   UNL     1      -4.029  -9.250   3.138  0.00  0.00    +0.033 A 
ATOM     17  C   UNL     1      -4.169 -10.499   3.672  0.00  0.00    +0.012 A 
ATOM     18  C   UNL     1      -4.396 -10.609   5.057  0.00  0.00    +0.000 A 
ATOM     19  C   UNL     1      -4.548 -11.861   5.674  0.00  0.00    +0.010 A 
ATOM     20  C   UNL     1      -4.766 -11.929   7.016  0.00  0.00    +0.001 A 
ATOM     21  C   UNL     1      -4.840 -10.771   7.789  0.00  0.00    +0.002 A 
ATOM     22  C   UNL     1      -4.697  -9.541   7.227  0.00  0.00    +0.028 A 
ATOM     23  C   UNL     1      -4.471  -9.428   5.841  0.00  0.00    +0.072 A 
ATOM     24  N   UNL     1      -4.322  -8.236   5.265  0.00  0.00    -0.242 NA
ENDBRANCH  11  15
BRANCH   1  26
ATOM     25  N   UNL     1      -0.704  -2.523   4.520  0.00  0.00    -0.311 N 
ATOM     26  C   UNL     1      -1.532  -3.529   4.178  0.00  0.00    +0.218 C 
ATOM     27  O   UNL     1      -1.161  -4.383   3.401  0.00  0.00    -0.275 OA
ATOM     28  H   UNL     1      -1.001  -1.840   5.142  0.00  0.00    +0.149 HD
BRANCH  25  29
ATOM     29  C   UNL     1       0.646  -2.461   3.954  0.00  0.00    +0.139 C 
BRANCH  29  35
ATOM     30  C   UNL     1       3.202  -0.216   7.625  0.00  0.00    +0.044 C 
ATOM     31  C   UNL     1       2.584  -0.176   6.251  0.00  0.00    -0.047 A 
ATOM     32  C   UNL     1       2.675   0.973   5.486  0.00  0.00    +0.003 A 
ATOM     33  C   UNL     1       2.108   1.010   4.226  0.00  0.00    +0.001 A 
ATOM     34  C   UNL     1       1.452  -0.102   3.730  0.00  0.00    +0.005 A 
ATOM     35  C   UNL     1       1.362  -1.250   4.495  0.00  0.00    -0.027 A 
ATOM     36  C   UNL     1       1.933  -1.288   5.753  0.00  0.00    -0.043 A 
ATOM     37  C   UNL     1       1.840  -2.542   6.585  0.00  0.00    +0.044 C 
ENDBRANCH  29  35
ENDBRANCH  25  29
ENDBRANCH   1  26
TORSDOF 4
