REMARK  Name = ZINC14476157
REMARK  8 active torsions:
REMARK  status: ('A' for Active; 'I' for Inactive)
REMARK    1  A    between atoms: C_1  and  C_2
REMARK    2  A    between atoms: C_2  and  C_3
REMARK    3  A    between atoms: C_3  and  C_5
REMARK    4  A    between atoms: C_3  and  N_6
REMARK    5  A    between atoms: C_7  and  C_9
REMARK    6  A    between atoms: C_16  and  C_25
REMARK    7  A    between atoms: C_27  and  N_32
REMARK    8  A    between atoms: C_30  and  O_31
REMARK                            x       y       z     vdW  Elec       q    Type
REMARK                         _______ _______ _______ _____ _____    ______ ____
ROOT
ATOM      1  C   UNL     1       4.240   0.461  -2.305  0.00  0.00    +0.058 A 
ATOM      2  C   UNL     1       4.829   0.796  -1.084  0.00  0.00    +0.015 A 
ATOM      3  C   UNL     1       6.151   1.179  -1.040  0.00  0.00    +0.001 A 
ATOM      4  C   UNL     1       6.898   1.242  -2.206  0.00  0.00    +0.006 A 
ATOM      5  C   UNL     1       6.334   0.920  -3.420  0.00  0.00    -0.019 A 
ATOM      6  C   UNL     1       4.997   0.508  -3.486  0.00  0.00    +0.044 A 
ATOM      7  N   UNL     1       4.408   0.130  -4.689  0.00  0.00    -0.336 N 
ATOM      8  C   UNL     1       5.161   0.174  -5.961  0.00  0.00    +0.108 C 
ATOM      9  C   UNL     1       6.593  -0.179  -5.603  0.00  0.00    +0.029 C 
ATOM     10  C   UNL     1       7.087   0.994  -4.691  0.00  0.00    +0.049 C 
ATOM     11  C   UNL     1       8.564   0.856  -4.740  0.00  0.00    -0.023 C 
ATOM     12  C   UNL     1       8.900   0.303  -5.900  0.00  0.00    -0.030 C 
ATOM     13  C   UNL     1       7.644  -0.057  -6.715  0.00  0.00    +0.033 C 
ATOM     14  H   UNL     1       3.485  -0.169  -4.693  0.00  0.00    +0.147 HD
ENDROOT
BRANCH   8  15
ATOM     15  C   UNL     1       5.096   1.557  -6.556  0.00  0.00    +0.017 A 
ATOM     16  C   UNL     1       4.886   2.652  -5.740  0.00  0.00    +0.041 A 
ATOM     17  C   UNL     1       4.827   3.921  -6.285  0.00  0.00    +0.127 A 
ATOM     18  C   UNL     1       4.978   4.098  -7.648  0.00  0.00    +0.036 A 
ATOM     19  C   UNL     1       5.188   3.007  -8.469  0.00  0.00    +0.048 A 
ATOM     20  C   UNL     1       5.254   1.733  -7.923  0.00  0.00    +0.122 A 
BRANCH  17  21
ATOM     21  N   UNL     1       4.602   5.092  -5.408  0.00  0.00    +0.056 N 
ATOM     22  O   UNL     1       4.470   4.938  -4.216  0.00  0.00    -0.126 OA
ATOM     23  O   UNL     1       4.550   6.202  -5.884  0.00  0.00    -0.126 OA
ENDBRANCH  17  21
BRANCH  20  24
ATOM     24  O   UNL     1       5.465   0.658  -8.727  0.00  0.00    -0.506 OA
ATOM     25  H   UNL     1       4.655   0.259  -9.072  0.00  0.00    +0.292 HD
ENDBRANCH  20  24
ENDBRANCH   8  15
BRANCH   1  27
ATOM     26  N   UNL     1       2.134  -0.122  -1.208  0.00  0.00    -0.309 N 
ATOM     27  C   UNL     1       2.824   0.051  -2.353  0.00  0.00    +0.246 C 
ATOM     28  O   UNL     1       2.279  -0.129  -3.425  0.00  0.00    -0.270 OA
ATOM     29  H   UNL     1       2.568   0.022  -0.353  0.00  0.00    +0.149 HD
BRANCH  26  30
ATOM     30  C   UNL     1       0.727  -0.528  -1.256  0.00  0.00    +0.070 C 
ATOM     31  C   UNL     1       0.640  -2.052  -1.367  0.00  0.00    +0.028 C 
BRANCH  30  33
ATOM     32  C   UNL     1      -0.002   1.460   0.070  0.00  0.00    +0.005 C 
ATOM     33  C   UNL     1       0.020  -0.069   0.021  0.00  0.00    +0.018 C 
ENDBRANCH  30  33
ENDBRANCH  26  30
ENDBRANCH   1  27
TORSDOF 6
