REMARK  Name = ZINC45723583
REMARK  5 active torsions:
REMARK  status: ('A' for Active; 'I' for Inactive)
REMARK    1  A    between atoms: C_4  and  N_11
REMARK    2  A    between atoms: C_5  and  C_7
REMARK    3  A    between atoms: C_7  and  C_8
REMARK    4  A    between atoms: C_17  and  C_20
REMARK    5  A    between atoms: C_23  and  O_26
REMARK                            x       y       z     vdW  Elec       q    Type
REMARK                         _______ _______ _______ _____ _____    ______ ____
ROOT
ATOM      1  N   UNL     1       3.622  -0.651  -0.038  0.00  0.00    -0.269 N 
ATOM      2  C   UNL     1       4.776   0.037  -0.146  0.00  0.00    +0.307 C 
ATOM      3  O   UNL     1       4.762   1.253  -0.138  0.00  0.00    -0.252 OA
ATOM      4  N   UNL     1       5.945  -0.623  -0.263  0.00  0.00    -0.281 N 
ATOM      5  C   UNL     1       7.232   0.094  -0.268  0.00  0.00    +0.114 C 
ATOM      6  C   UNL     1       8.038  -0.374   0.946  0.00  0.00    +0.054 C 
ATOM      7  C   UNL     1       7.986  -1.868   1.064  0.00  0.00    -0.041 C 
ATOM      8  C   UNL     1       7.084  -2.626   0.487  0.00  0.00    -0.004 C 
ATOM      9  C   UNL     1       5.988  -2.087  -0.383  0.00  0.00    +0.137 C 
ATOM     10  H   UNL     1       3.640  -1.615   0.066  0.00  0.00    +0.156 HD
ENDROOT
BRANCH   1  14
ATOM     11  C   UNL     1      -0.023   1.365  -0.148  0.00  0.00    +0.000 A 
ATOM     12  C   UNL     1       1.102   2.000   0.346  0.00  0.00    +0.002 A 
ATOM     13  C   UNL     1       2.312   1.334   0.384  0.00  0.00    +0.023 A 
ATOM     14  C   UNL     1       2.397   0.026  -0.074  0.00  0.00    +0.038 A 
ATOM     15  C   UNL     1       1.266  -0.608  -0.570  0.00  0.00    -0.017 A 
ATOM     16  C   UNL     1       0.059   0.063  -0.606  0.00  0.00    +0.006 A 
BRANCH  15  17
ATOM     17  C   UNL     1       1.355  -2.027  -1.069  0.00  0.00    +0.132 C 
BRANCH  17  18
ATOM     18  C   UNL     1       1.203  -2.978   0.090  0.00  0.00    +0.215 C 
ATOM     19  O   UNL     1       1.039  -2.546   1.211  0.00  0.00    -0.276 OA
ATOM     20  N   UNL     1       1.250  -4.309  -0.119  0.00  0.00    -0.329 N 
ATOM     21  H   UNL     1       1.381  -4.654  -1.016  0.00  0.00    +0.145 HD
ATOM     22  H   UNL     1       1.152  -4.921   0.627  0.00  0.00    +0.145 HD
ENDBRANCH  17  18
ENDBRANCH  15  17
ENDBRANCH   1  14
BRANCH   7  23
ATOM     23  C   UNL     1       9.021  -2.532   1.884  0.00  0.00    -0.022 A 
ATOM     24  C   UNL     1       9.075  -2.304   3.260  0.00  0.00    +0.012 A 
ATOM     25  C   UNL     1      10.042  -2.924   4.022  0.00  0.00    +0.046 A 
ATOM     26  C   UNL     1      10.961  -3.775   3.423  0.00  0.00    +0.117 A 
ATOM     27  C   UNL     1      10.911  -4.004   2.054  0.00  0.00    +0.046 A 
ATOM     28  C   UNL     1       9.943  -3.392   1.286  0.00  0.00    +0.012 A 
BRANCH  26  29
ATOM     29  O   UNL     1      11.912  -4.385   4.177  0.00  0.00    -0.507 OA
ATOM     30  H   UNL     1      11.644  -5.244   4.530  0.00  0.00    +0.292 HD
ENDBRANCH  26  29
ENDBRANCH   7  23
TORSDOF 5
