REMARK  Name = ZINC49974370
REMARK  8 active torsions:
REMARK  status: ('A' for Active; 'I' for Inactive)
REMARK    1  A    between atoms: C_1  and  C_2
REMARK    2  A    between atoms: C_4  and  C_21
REMARK    3  A    between atoms: C_6  and  N_8
REMARK    4  A    between atoms: N_8  and  C_9
REMARK    5  A    between atoms: N_8  and  S_10
REMARK    6  A    between atoms: S_10  and  C_13
REMARK    7  A    between atoms: C_18  and  N_19
REMARK    8  A    between atoms: N_19  and  N_20
REMARK                            x       y       z     vdW  Elec       q    Type
REMARK                         _______ _______ _______ _____ _____    ______ ____
ROOT
ATOM      1  S   UNL     1      -0.443  -2.060   3.790  0.00  0.00    +0.076 S 
ATOM      2  O   UNL     1      -1.455  -1.092   3.555  0.00  0.00    -0.150 OA
ATOM      3  O   UNL     1      -0.646  -3.186   4.633  0.00  0.00    -0.150 OA
ENDROOT
BRANCH   1   4
ATOM      4  C   UNL     1       0.946  -1.190   4.438  0.00  0.00    +0.131 A 
ATOM      5  C   UNL     1       0.881   0.178   4.619  0.00  0.00    +0.031 A 
ATOM      6  C   UNL     1       1.970   0.862   5.127  0.00  0.00    +0.002 A 
ATOM      7  C   UNL     1       3.127   0.179   5.456  0.00  0.00    +0.002 A 
ATOM      8  C   UNL     1       3.199  -1.188   5.278  0.00  0.00    +0.026 A 
ATOM      9  C   UNL     1       2.104  -1.879   4.772  0.00  0.00    +0.068 A 
BRANCH   9  10
ATOM     10  N   UNL     1       2.171  -3.263   4.596  0.00  0.00    -0.281 N 
ATOM     11  H   UNL     1       1.385  -3.754   4.308  0.00  0.00    +0.166 HD
BRANCH  10  12
ATOM     12  N   UNL     1       3.343  -3.925   4.829  0.00  0.00    -0.256 NA
ATOM     13  H   UNL     1       3.677  -3.751   5.765  0.00  0.00    +0.140 HD
ATOM     14  H   UNL     1       3.238  -4.915   4.660  0.00  0.00    +0.140 HD
ENDBRANCH  10  12
ENDBRANCH   9  10
ENDBRANCH   1   4
BRANCH   1  15
ATOM     15  N   UNL     1      -0.001  -2.653   2.308  0.00  0.00    -0.206 N 
ATOM     16  C   UNL     1       0.474  -4.033   2.183  0.00  0.00    +0.157 C 
BRANCH  15  22
ATOM     17  C   UNL     1       1.318   1.455  -0.046  0.00  0.00    +0.044 C 
ATOM     18  C   UNL     1       0.548   0.161   0.009  0.00  0.00    -0.048 A 
ATOM     19  C   UNL     1      -0.240  -0.220  -1.062  0.00  0.00    +0.006 A 
ATOM     20  C   UNL     1      -0.948  -1.407  -1.016  0.00  0.00    -0.048 A 
ATOM     21  C   UNL     1      -0.871  -2.216   0.100  0.00  0.00    +0.028 A 
ATOM     22  C   UNL     1      -0.081  -1.837   1.177  0.00  0.00    +0.051 A 
ATOM     23  C   UNL     1       0.634  -0.647   1.126  0.00  0.00    +0.028 A 
ATOM     24  C   UNL     1      -1.806  -1.817  -2.186  0.00  0.00    +0.044 C 
ENDBRANCH  15  22
ENDBRANCH   1  15
TORSDOF 5
