REMARK  Name = ZINC45724604
REMARK  9 active torsions:
REMARK  status: ('A' for Active; 'I' for Inactive)
REMARK    1  A    between atoms: C_1  and  N_2
REMARK    2  A    between atoms: N_2  and  C_3
REMARK    3  A    between atoms: N_2  and  S_4
REMARK    4  A    between atoms: S_4  and  C_7
REMARK    5  A    between atoms: C_10  and  C_12
REMARK    6  A    between atoms: C_12  and  N_13
REMARK    7  A    between atoms: N_16  and  C_17
REMARK    8  A    between atoms: C_22  and  C_23
REMARK    9  A    between atoms: C_23  and  C_24
REMARK                            x       y       z     vdW  Elec       q    Type
REMARK                         _______ _______ _______ _____ _____    ______ ____
ROOT
ATOM      1  N   UNL     1       5.572  -1.300  -4.830  0.00  0.00    -0.295 N 
ATOM      2  C   UNL     1       6.684  -1.198  -5.584  0.00  0.00    +0.304 C 
ATOM      3  O   UNL     1       7.666  -0.631  -5.145  0.00  0.00    -0.252 OA
ATOM      4  N   UNL     1       6.708  -1.724  -6.824  0.00  0.00    -0.269 N 
ATOM      5  H   UNL     1       4.788  -1.752  -5.180  0.00  0.00    +0.151 HD
ATOM      6  H   UNL     1       5.956  -2.246  -7.144  0.00  0.00    +0.156 HD
ENDROOT
BRANCH   4   7
ATOM      7  C   UNL     1       7.819  -1.517  -7.651  0.00  0.00    +0.038 A 
ATOM      8  C   UNL     1       8.634  -0.410  -7.456  0.00  0.00    +0.023 A 
ATOM      9  C   UNL     1       9.729  -0.209  -8.273  0.00  0.00    +0.002 A 
ATOM     10  C   UNL     1      10.014  -1.109  -9.284  0.00  0.00    +0.000 A 
ATOM     11  C   UNL     1       9.204  -2.212  -9.481  0.00  0.00    +0.006 A 
ATOM     12  C   UNL     1       8.110  -2.421  -8.663  0.00  0.00    -0.017 A 
BRANCH  12  13
ATOM     13  C   UNL     1       7.231  -3.627  -8.874  0.00  0.00    +0.132 C 
BRANCH  13  14
ATOM     14  C   UNL     1       6.061  -3.249  -9.746  0.00  0.00    +0.215 C 
ATOM     15  O   UNL     1       5.952  -2.113 -10.156  0.00  0.00    -0.276 OA
ATOM     16  N   UNL     1       5.136  -4.174 -10.070  0.00  0.00    -0.329 N 
ATOM     17  H   UNL     1       5.223  -5.083  -9.743  0.00  0.00    +0.145 HD
ATOM     18  H   UNL     1       4.383  -3.931 -10.632  0.00  0.00    +0.145 HD
ENDBRANCH  13  14
ENDBRANCH  12  13
ENDBRANCH   4   7
BRANCH   1  19
ATOM     19  C   UNL     1       5.546  -0.727  -3.482  0.00  0.00    +0.148 C 
BRANCH  19  23
ATOM     20  C   UNL     1       1.664  -1.007  -1.931  0.00  0.00    +0.143 A 
ATOM     21  C   UNL     1       2.485  -2.044  -1.634  0.00  0.00    +0.037 A 
ATOM     22  C   UNL     1       3.783  -2.028  -2.109  0.00  0.00    +0.015 A 
ATOM     23  C   UNL     1       4.197  -0.976  -2.857  0.00  0.00    +0.009 A 
ATOM     24  S   UNL     1       2.728   0.037  -2.915  0.00  0.00    -0.072 S 
BRANCH  20  25
ATOM     25  S   UNL     1      -0.018  -0.757  -1.471  0.00  0.00    +0.067 S 
ATOM     26  O   UNL     1      -0.561  -2.042  -1.201  0.00  0.00    -0.152 OA
ATOM     27  O   UNL     1      -0.579   0.118  -2.440  0.00  0.00    -0.152 OA
BRANCH  25  29
ATOM     28  C   UNL     1      -0.024   1.532  -0.030  0.00  0.00    +0.131 C 
ATOM     29  N   UNL     1      -0.016   0.067  -0.034  0.00  0.00    -0.182 NA
ATOM     30  C   UNL     1      -0.006  -0.669   1.232  0.00  0.00    +0.131 C 
ENDBRANCH  25  29
ENDBRANCH  20  25
ENDBRANCH  19  23
ENDBRANCH   1  19
TORSDOF 7
