REMARK  Name = ZINC12763114
REMARK  11 active torsions:
REMARK  status: ('A' for Active; 'I' for Inactive)
REMARK    1  A    between atoms: C_1  and  C_2
REMARK    2  A    between atoms: C_2  and  C_3
REMARK    3  A    between atoms: C_2  and  C_4
REMARK    4  A    between atoms: C_2  and  N_6
REMARK    5  A    between atoms: C_4  and  O_5
REMARK    6  A    between atoms: C_7  and  C_9
REMARK    7  A    between atoms: C_9  and  C_10
REMARK    8  A    between atoms: C_17  and  C_18
REMARK    9  A    between atoms: C_17  and  N_61
REMARK   10  A    between atoms: C_18  and  C_19
REMARK   11  A    between atoms: C_18  and  C_25
REMARK                            x       y       z     vdW  Elec       q    Type
REMARK                         _______ _______ _______ _____ _____    ______ ____
ROOT
ATOM      1  C   UNL     1      -3.555   1.721  -0.786  0.00  0.00    +0.028 C 
ATOM      2  C   UNL     1      -4.882   1.101  -1.122  0.00  0.00    +0.200 C 
ATOM      3  O   UNL     1      -5.209   0.083  -0.550  0.00  0.00    -0.278 OA
ATOM      4  N   UNL     1      -5.719   1.623  -2.023  0.00  0.00    -0.318 N 
ATOM      5  C   UNL     1      -5.405   2.823  -2.794  0.00  0.00    +0.085 C 
ATOM      6  C   UNL     1      -4.272   3.598  -2.119  0.00  0.00    -0.059 C 
ATOM      7  H   UNL     1      -6.571   1.185  -2.173  0.00  0.00    +0.149 HD
ATOM      8  N   UNL     1      -3.166   2.656  -1.858  0.00  0.00    +0.389 N 
ATOM      9  H   UNL     1      -2.970   2.123  -2.714  0.00  0.00    -0.081 HD
ENDROOT
BRANCH   1  10
ATOM     10  C   UNL     1      -2.495   0.623  -0.674  0.00  0.00    +0.089 C 
BRANCH  10  12
ATOM     11  N   UNL     1      -1.366  -0.981  -2.180  0.00  0.00    -0.308 N 
ATOM     12  C   UNL     1      -2.323  -0.047  -2.012  0.00  0.00    +0.212 C 
ATOM     13  O   UNL     1      -3.045   0.254  -2.939  0.00  0.00    -0.276 OA
ATOM     14  H   UNL     1      -0.788  -1.222  -1.438  0.00  0.00    +0.149 HD
BRANCH  11  16
ATOM     15  C   UNL     1      -2.498  -2.358  -3.854  0.00  0.00    +0.033 C 
ATOM     16  C   UNL     1      -1.202  -1.637  -3.479  0.00  0.00    +0.052 C 
ATOM     17  C   UNL     1      -0.875  -0.587  -4.543  0.00  0.00    +0.033 C 
BRANCH  16  18
ATOM     18  C   UNL     1      -0.060  -2.652  -3.398  0.00  0.00    +0.181 C 
BRANCH  18  19
ATOM     19  O   UNL     1       0.100  -3.292  -4.665  0.00  0.00    -0.393 OA
ATOM     20  H   UNL     1       0.809  -3.950  -4.687  0.00  0.00    +0.209 HD
ENDBRANCH  18  19
ENDBRANCH  16  18
ENDBRANCH  11  16
ENDBRANCH  10  12
ENDBRANCH   1  10
BRANCH   8  21
ATOM     21  C   UNL     1      -1.947   3.399  -1.464  0.00  0.00    -0.065 C 
BRANCH  21  22
ATOM     22  C   UNL     1      -2.300   4.502  -0.465  0.00  0.00    +0.032 C 
BRANCH  22  23
ATOM     23  C   UNL     1      -2.739   3.880   0.836  0.00  0.00    -0.042 A 
ATOM     24  C   UNL     1      -3.982   4.181   1.361  0.00  0.00    +0.004 A 
ATOM     25  C   UNL     1      -4.387   3.606   2.551  0.00  0.00    +0.000 A 
ATOM     26  C   UNL     1      -3.545   2.739   3.222  0.00  0.00    +0.000 A 
ATOM     27  C   UNL     1      -2.300   2.442   2.699  0.00  0.00    +0.000 A 
ATOM     28  C   UNL     1      -1.897   3.013   1.506  0.00  0.00    +0.004 A 
ENDBRANCH  22  23
BRANCH  22  29
ATOM     29  C   UNL     1      -1.090   5.368  -0.224  0.00  0.00    -0.042 A 
ATOM     30  C   UNL     1       0.123   4.787   0.093  0.00  0.00    +0.004 A 
ATOM     31  C   UNL     1       1.234   5.581   0.309  0.00  0.00    +0.000 A 
ATOM     32  C   UNL     1       1.129   6.956   0.219  0.00  0.00    +0.000 A 
ATOM     33  C   UNL     1      -0.086   7.537  -0.093  0.00  0.00    +0.000 A 
ATOM     34  C   UNL     1      -1.196   6.743  -0.314  0.00  0.00    +0.004 A 
ENDBRANCH  22  29
ENDBRANCH  21  22
ENDBRANCH   8  21
TORSDOF 9
