REMARK  Name = ZINC65074721
REMARK  8 active torsions:
REMARK  status: ('A' for Active; 'I' for Inactive)
REMARK    1  A    between atoms: C_1  and  C_2
REMARK    2  A    between atoms: C_2  and  C_3
REMARK    3  A    between atoms: C_2  and  C_4
REMARK    4  A    between atoms: C_2  and  C_5
REMARK    5  A    between atoms: C_8  and  S_11
REMARK    6  A    between atoms: S_11  and  N_14
REMARK    7  A    between atoms: N_25  and  C_26
REMARK    8  A    between atoms: C_26  and  C_27
REMARK                            x       y       z     vdW  Elec       q    Type
REMARK                         _______ _______ _______ _____ _____    ______ ____
ROOT
ATOM      1  N   UNL     1       2.580  -0.816  -6.143  0.00  0.00    -0.176 NA
ATOM      2  C   UNL     1       1.415  -0.904  -7.034  0.00  0.00    +0.111 C 
ATOM      3  C   UNL     1       0.657   0.427  -6.988  0.00  0.00    +0.047 C 
ATOM      4  C   UNL     1       1.620   1.569  -7.325  0.00  0.00    +0.075 C 
ATOM      5  C   UNL     1       2.740   1.615  -6.283  0.00  0.00    +0.047 C 
ATOM      6  C   UNL     1       3.518   0.301  -6.317  0.00  0.00    +0.111 C 
ATOM      7  C   UNL     1       0.873   2.873  -7.318  0.00  0.00    +0.089 C 
ATOM      8  N   UNL     1       1.019   3.777  -8.211  0.00  0.00    -0.374 N 
ATOM      9  C   UNL     1       1.920   3.652  -9.352  0.00  0.00    +0.129 C 
ATOM     10  C   UNL     1       2.933   2.534  -9.100  0.00  0.00    +0.102 C 
ATOM     11  N   UNL     1       2.204   1.335  -8.654  0.00  0.00    -0.303 NA
ATOM     12  N   UNL     1      -0.012   3.106  -6.299  0.00  0.00    -0.329 N 
ATOM     13  H   UNL     1       2.807   0.526  -8.646  0.00  0.00    +0.123 HD
ATOM     14  H   UNL     1      -0.143   2.438  -5.607  0.00  0.00    +0.147 HD
ATOM     15  H   UNL     1       0.501   4.593  -8.124  0.00  0.00    +0.161 HD
ENDROOT
BRANCH   1  16
ATOM     16  S   UNL     1       2.826  -1.950  -4.962  0.00  0.00    +0.061 S 
ATOM     17  O   UNL     1       4.217  -1.937  -4.669  0.00  0.00    -0.153 OA
ATOM     18  O   UNL     1       2.148  -3.127  -5.380  0.00  0.00    -0.153 OA
BRANCH  16  22
ATOM     19  C   UNL     1       0.707  -0.490  -1.238  0.00  0.00    -0.042 A 
ATOM     20  C   UNL     1       0.036  -1.284  -2.148  0.00  0.00    +0.006 A 
ATOM     21  C   UNL     1       0.683  -1.730  -3.286  0.00  0.00    +0.029 A 
ATOM     22  C   UNL     1       2.001  -1.381  -3.513  0.00  0.00    +0.105 A 
ATOM     23  C   UNL     1       2.672  -0.586  -2.603  0.00  0.00    +0.029 A 
ATOM     24  C   UNL     1       2.024  -0.137  -1.467  0.00  0.00    +0.006 A 
BRANCH  19  26
ATOM     25  C   UNL     1      -0.019   1.526   0.010  0.00  0.00    +0.015 C 
ATOM     26  C   UNL     1       0.002  -0.004   0.002  0.00  0.00    -0.013 C 
ATOM     27  C   UNL     1       0.742  -0.511   1.242  0.00  0.00    +0.015 C 
ATOM     28  C   UNL     1      -1.433  -0.534   0.013  0.00  0.00    +0.015 C 
ENDBRANCH  19  26
ENDBRANCH  16  22
ENDBRANCH   1  16
BRANCH  12  29
ATOM     29  C   UNL     1      -0.761   4.364  -6.252  0.00  0.00    +0.138 C 
BRANCH  29  30
ATOM     30  C   UNL     1      -1.659   4.370  -5.042  0.00  0.00    -0.030 A 
ATOM     31  C   UNL     1      -2.944   3.870  -5.133  0.00  0.00    +0.006 A 
ATOM     32  C   UNL     1      -3.768   3.876  -4.023  0.00  0.00    +0.020 A 
ATOM     33  C   UNL     1      -3.306   4.382  -2.821  0.00  0.00    +0.041 A 
ATOM     34  C   UNL     1      -2.019   4.882  -2.731  0.00  0.00    +0.020 A 
ATOM     35  C   UNL     1      -1.194   4.871  -3.840  0.00  0.00    +0.006 A 
ATOM     36 CL   UNL     1      -4.340   4.389  -1.427  0.00  0.00    -0.084 Cl
ENDBRANCH  29  30
ENDBRANCH  12  29
TORSDOF 5
