REMARK  Name = ZINC12496125
REMARK  7 active torsions:
REMARK  status: ('A' for Active; 'I' for Inactive)
REMARK    1  A    between atoms: C_3  and  O_9
REMARK    2  A    between atoms: O_9  and  C_10
REMARK    3  A    between atoms: C_10  and  C_11
REMARK    4  A    between atoms: N_13  and  C_14
REMARK    5  A    between atoms: C_14  and  N_16
REMARK    6  A    between atoms: N_16  and  C_17
REMARK    7  A    between atoms: C_18  and  C_26
REMARK                            x       y       z     vdW  Elec       q    Type
REMARK                         _______ _______ _______ _____ _____    ______ ____
ROOT
ATOM      1  C   UNL     1       5.161  -2.690  -0.064  0.00  0.00    +0.141 C 
ATOM      2  S   UNL     1       6.504  -1.628  -0.071  0.00  0.00    -0.018 S 
ENDROOT
BRANCH   1   5
ATOM      3  C   UNL     1       3.712  -0.860  -0.040  0.00  0.00    +0.256 C 
ATOM      4  O   UNL     1       4.663  -0.107  -0.044  0.00  0.00    -0.272 OA
ATOM      5  N   UNL     1       3.909  -2.193  -0.049  0.00  0.00    -0.265 N 
ATOM      6  H   UNL     1       3.148  -2.796  -0.045  0.00  0.00    +0.157 HD
BRANCH   3   7
ATOM      7  C   UNL     1       2.312  -0.305  -0.023  0.00  0.00    +0.325 C 
BRANCH   7   8
ATOM      8  O   UNL     1       2.366   1.123  -0.015  0.00  0.00    -0.481 OA
BRANCH   8  11
ATOM      9  C   UNL     1      -1.218   1.751   0.017  0.00  0.00    +0.023 A 
ATOM     10  C   UNL     1      -0.013   1.076   0.008  0.00  0.00    +0.048 A 
ATOM     11  C   UNL     1       1.179   1.786   0.000  0.00  0.00    +0.140 A 
ATOM     12  C   UNL     1       1.157   3.174   0.008  0.00  0.00    +0.084 A 
ATOM     13  C   UNL     1      -0.051   3.845   0.023  0.00  0.00    +0.043 A 
ATOM     14  C   UNL     1      -1.238   3.134   0.030  0.00  0.00    +0.043 A 
ATOM     15 CL   UNL     1      -2.755   3.979   0.048  0.00  0.00    -0.083 Cl
ATOM     16 CL   UNL     1       2.646   4.066  -0.002  0.00  0.00    -0.080 Cl
ENDBRANCH   8  11
ENDBRANCH   7   8
ENDBRANCH   3   7
ENDBRANCH   1   5
BRANCH   1  17
ATOM     17  N   UNL     1       5.357  -4.024  -0.074  0.00  0.00    -0.291 N 
ATOM     18  H   UNL     1       4.597  -4.626  -0.070  0.00  0.00    +0.154 HD
BRANCH  17  19
ATOM     19  C   UNL     1       6.645  -4.534  -0.089  0.00  0.00    +0.084 A 
ATOM     20  C   UNL     1       7.046  -5.863  -0.095  0.00  0.00    +0.068 A 
ATOM     21  C   UNL     1       8.474  -6.134  -0.115  0.00  0.00    -0.023 A 
ATOM     22  C   UNL     1       9.267  -5.040  -0.116  0.00  0.00    -0.004 A 
ATOM     23  S   UNL     1       8.147  -3.669  -0.098  0.00  0.00    -0.077 S 
ATOM     24  C   UNL     1      10.764  -5.010  -0.129  0.00  0.00    +0.043 C 
ATOM     25  C   UNL     1      11.279  -6.410   0.236  0.00  0.00    +0.005 C 
ATOM     26  C   UNL     1      10.524  -7.447  -0.599  0.00  0.00    +0.005 C 
ATOM     27  C   UNL     1       9.071  -7.536  -0.129  0.00  0.00    +0.037 C 
BRANCH  20  28
ATOM     28  C   UNL     1       6.066  -6.953  -0.085  0.00  0.00    +0.244 C 
ATOM     29  O   UNL     1       5.648  -7.405  -1.135  0.00  0.00    -0.270 OA
ATOM     30  N   UNL     1       5.628  -7.455   1.086  0.00  0.00    -0.325 N 
ATOM     31  H   UNL     1       5.961  -7.095   1.923  0.00  0.00    +0.145 HD
ATOM     32  H   UNL     1       4.979  -8.176   1.093  0.00  0.00    +0.145 HD
ENDBRANCH  20  28
ENDBRANCH  17  19
ENDBRANCH   1  17
TORSDOF 7
