REMARK  Name = ZINC12690723
REMARK  12 active torsions:
REMARK  status: ('A' for Active; 'I' for Inactive)
REMARK    1  A    between atoms: C_1  and  C_2
REMARK    2  A    between atoms: C_3  and  C_17
REMARK    3  A    between atoms: C_4  and  C_16
REMARK    4  A    between atoms: N_5  and  C_7
REMARK    5  A    between atoms: C_7  and  C_8
REMARK    6  A    between atoms: C_17  and  N_51
REMARK    7  A    between atoms: C_18  and  C_19
REMARK    8  A    between atoms: C_18  and  N_51
REMARK    9  A    between atoms: C_19  and  C_20
REMARK   10  A    between atoms: C_20  and  C_21
REMARK   11  A    between atoms: C_22  and  C_28
REMARK   12  A    between atoms: C_23  and  N_27
REMARK                            x       y       z     vdW  Elec       q    Type
REMARK                         _______ _______ _______ _____ _____    ______ ____
ROOT
ATOM      1  C   UNL     1      -0.481   0.451   0.387  0.00  0.00    -0.043 C 
ENDROOT
BRANCH   1   4
ATOM      2  C   UNL     1      -3.104  -0.388   1.956  0.00  0.00    +0.068 C 
ATOM      3  C   UNL     1      -2.266   0.836   2.224  0.00  0.00    +0.062 A 
ATOM      4  C   UNL     1      -1.109   1.206   1.531  0.00  0.00    -0.021 A 
ATOM      5  C   UNL     1      -0.648   2.357   2.073  0.00  0.00    +0.038 A 
ATOM      6  N   UNL     1      -1.490   2.709   3.067  0.00  0.00    -0.264 N 
ATOM      7  N   UNL     1      -2.495   1.736   3.146  0.00  0.00    -0.176 NA
ATOM      8  C   UNL     1       0.581   3.114   1.640  0.00  0.00    +0.065 C 
BRANCH   6   9
ATOM      9  C   UNL     1      -1.369   3.894   3.919  0.00  0.00    +0.181 C 
BRANCH   9  10
ATOM     10  C   UNL     1      -2.248   4.993   3.378  0.00  0.00    +0.010 A 
ATOM     11  C   UNL     1      -1.716   5.953   2.537  0.00  0.00    +0.047 A 
ATOM     12  C   UNL     1      -2.524   6.958   2.035  0.00  0.00    +0.020 A 
ATOM     13  C   UNL     1      -3.860   7.009   2.385  0.00  0.00    +0.003 A 
ATOM     14  C   UNL     1      -4.391   6.053   3.230  0.00  0.00    +0.020 A 
ATOM     15  C   UNL     1      -3.585   5.044   3.727  0.00  0.00    +0.047 A 
ATOM     16 CL   UNL     1      -4.253   3.843   4.788  0.00  0.00    -0.083 Cl
ATOM     17 CL   UNL     1      -0.035   5.894   2.104  0.00  0.00    -0.083 Cl
ENDBRANCH   9  10
ENDBRANCH   6   9
ENDBRANCH   1   4
BRANCH   1  18
ATOM     18  N   UNL     1      -1.053   0.936  -0.883  0.00  0.00    +0.382 N 
ATOM     19  H   UNL     1      -0.860   1.940  -0.980  0.00  0.00    -0.085 HD
ATOM     20  H   UNL     1      -2.068   0.781  -0.878  0.00  0.00    -0.085 HD
BRANCH  18  21
ATOM     21  C   UNL     1      -0.457   0.214  -2.022  0.00  0.00    -0.082 C 
BRANCH  21  22
ATOM     22  C   UNL     1      -1.068   0.737  -3.324  0.00  0.00    -0.013 C 
BRANCH  22  23
ATOM     23  C   UNL     1      -0.454  -0.007  -4.511  0.00  0.00    +0.057 C 
BRANCH  23  24
ATOM     24  C   UNL     1      -1.056   0.508  -5.793  0.00  0.00    +0.082 A 
ATOM     25  C   UNL     1      -0.562   1.583  -6.567  0.00  0.00    +0.113 A 
ATOM     26  C   UNL     1      -1.412   1.721  -7.661  0.00  0.00    +0.129 A 
ATOM     27  N   UNL     1      -2.367   0.775  -7.544  0.00  0.00    -0.263 N 
ATOM     28  H   UNL     1      -3.124   0.627  -8.180  0.00  0.00    +0.190 HD
ATOM     29  N   UNL     1      -2.119   0.036  -6.382  0.00  0.00    -0.176 NA
BRANCH  26  30
ATOM     30  N   UNL     1      -1.300   2.653  -8.675  0.00  0.00    -0.342 N 
ATOM     31  H   UNL     1      -0.573   3.295  -8.666  0.00  0.00    +0.144 HD
ATOM     32  H   UNL     1      -1.949   2.666  -9.396  0.00  0.00    +0.144 HD
ENDBRANCH  26  30
BRANCH  25  33
ATOM     33  C   UNL     1       0.595   2.378  -6.282  0.00  0.00    +0.104 C 
ATOM     34  N   UNL     1       1.512   3.009  -6.055  0.00  0.00    -0.191 NA
ENDBRANCH  25  33
ENDBRANCH  23  24
ENDBRANCH  22  23
ENDBRANCH  21  22
ENDBRANCH  18  21
ENDBRANCH   1  18
TORSDOF 10
