REMARK  Name = ZINC16740202
REMARK  8 active torsions:
REMARK  status: ('A' for Active; 'I' for Inactive)
REMARK    1  A    between atoms: C_1  and  C_2
REMARK    2  A    between atoms: C_6  and  C_7
REMARK    3  A    between atoms: N_9  and  C_10
REMARK    4  A    between atoms: C_11  and  C_19
REMARK    5  A    between atoms: C_19  and  O_21
REMARK    6  A    between atoms: O_21  and  C_22
REMARK    7  A    between atoms: C_24  and  C_28
REMARK    8  A    between atoms: C_24  and  C_29
REMARK                            x       y       z     vdW  Elec       q    Type
REMARK                         _______ _______ _______ _____ _____    ______ ____
ROOT
ATOM      1  C   UNL     1      -0.018   1.463   0.010  0.00  0.00    +0.284 C 
ATOM      2  O   UNL     1       1.028   2.086   0.003  0.00  0.00    -0.266 OA
ATOM      3  N   UNL     1      -1.194   2.121   0.019  0.00  0.00    -0.273 N 
ATOM      4  H   UNL     1      -2.027   1.625   0.021  0.00  0.00    +0.156 HD
ENDROOT
BRANCH   1  10
ATOM      5  C   UNL     1       2.554  -0.309  -0.037  0.00  0.00    +0.048 C 
ATOM      6  C   UNL     1       1.123  -0.783  -0.018  0.00  0.00    +0.011 A 
ATOM      7  C   UNL     1       0.676  -2.113  -0.016  0.00  0.00    +0.062 A 
ATOM      8  C   UNL     1      -0.714  -2.078  -0.005  0.00  0.00    +0.117 A 
ATOM      9  O   UNL     1      -1.088  -0.806   0.008  0.00  0.00    -0.454 OA
ATOM     10  C   UNL     1       0.002  -0.004   0.002  0.00  0.00    +0.193 A 
ATOM     11  C   UNL     1      -1.562  -3.324  -0.011  0.00  0.00    +0.082 C 
ATOM     12  C   UNL     1      -0.732  -4.499  -0.534  0.00  0.00    -0.021 C 
ATOM     13  C   UNL     1       0.582  -4.623   0.244  0.00  0.00    +0.086 C 
ATOM     14  C   UNL     1       1.420  -3.382  -0.028  0.00  0.00    +0.167 C 
ATOM     15  O   UNL     1       2.613  -3.435  -0.238  0.00  0.00    -0.292 OA
ATOM     16  C   UNL     1      -0.420  -4.276  -2.015  0.00  0.00    +0.012 C 
ATOM     17  C   UNL     1      -1.534  -5.792  -0.377  0.00  0.00    +0.012 C 
ENDBRANCH   1  10
BRANCH   3  18
ATOM     18  C   UNL     1      -1.213   3.506   0.027  0.00  0.00    +0.087 A 
ATOM     19  C   UNL     1      -2.313   4.354   0.031  0.00  0.00    +0.091 A 
ATOM     20  C   UNL     1      -2.056   5.785   0.044  0.00  0.00    -0.021 A 
ATOM     21  C   UNL     1      -0.752   6.135   0.039  0.00  0.00    -0.004 A 
ATOM     22  S   UNL     1       0.130   4.601   0.026  0.00  0.00    -0.077 S 
ATOM     23  C   UNL     1      -0.191   7.524   0.043  0.00  0.00    +0.043 C 
ATOM     24  C   UNL     1      -1.316   8.502  -0.325  0.00  0.00    +0.005 C 
ATOM     25  C   UNL     1      -2.552   8.171   0.517  0.00  0.00    +0.005 C 
ATOM     26  C   UNL     1      -3.154   6.842   0.056  0.00  0.00    +0.037 C 
BRANCH  19  27
ATOM     27  C   UNL     1      -3.679   3.827   0.027  0.00  0.00    +0.342 C 
ATOM     28  O   UNL     1      -4.247   3.602   1.079  0.00  0.00    -0.245 OA
BRANCH  27  29
ATOM     29  O   UNL     1      -4.307   3.591  -1.143  0.00  0.00    -0.464 OA
ATOM     30  C   UNL     1      -5.660   3.068  -1.071  0.00  0.00    +0.280 C 
ENDBRANCH  27  29
ENDBRANCH  19  27
ENDBRANCH   3  18
TORSDOF 4
