REMARK  Name = ZINC28245245
REMARK  5 active torsions:
REMARK  status: ('A' for Active; 'I' for Inactive)
REMARK    1  A    between atoms: C_1  and  C_2
REMARK    2  A    between atoms: C_5  and  S_9
REMARK    3  A    between atoms: S_9  and  N_12
REMARK    4  A    between atoms: N_12  and  C_13
REMARK    5  A    between atoms: C_15  and  C_21
REMARK                            x       y       z     vdW  Elec       q    Type
REMARK                         _______ _______ _______ _____ _____    ______ ____
ROOT
ATOM      1  C   UNL     1       3.814   2.734  -1.605  0.00  0.00    +0.110 A 
ATOM      2  C   UNL     1       4.428   3.401  -0.557  0.00  0.00    +0.044 A 
ATOM      3  C   UNL     1       4.846   4.722  -0.726  0.00  0.00    +0.056 A 
ATOM      4  C   UNL     1       4.644   5.364  -1.950  0.00  0.00    +0.137 A 
ATOM      5  C   UNL     1       4.031   4.690  -2.990  0.00  0.00    +0.079 A 
ATOM      6  C   UNL     1       3.621   3.379  -2.823  0.00  0.00    +0.151 A 
ATOM      7  F   UNL     1       3.027   2.724  -3.845  0.00  0.00    -0.203 F 
ATOM      8  F   UNL     1       5.047   6.642  -2.118  0.00  0.00    -0.205 F 
ENDROOT
BRANCH   3   9
ATOM      9  C   UNL     1       5.503   5.439   0.388  0.00  0.00    +0.167 A 
ATOM     10  N   UNL     1       5.072   5.525   1.629  0.00  0.00    -0.129 NA
ATOM     11  N   UNL     1       5.898   6.220   2.330  0.00  0.00    -0.134 NA
ATOM     12  C   UNL     1       6.893   6.611   1.585  0.00  0.00    +0.134 A 
ATOM     13  N   UNL     1       6.675   6.136   0.329  0.00  0.00    -0.311 N 
ATOM     14  C   UNL     1       7.517   6.360  -0.846  0.00  0.00    +0.125 C 
ATOM     15  C   UNL     1       8.966   6.563  -0.397  0.00  0.00    +0.022 C 
ATOM     16  C   UNL     1       9.219   8.046  -0.127  0.00  0.00    +0.002 C 
ATOM     17  C   UNL     1       8.314   8.549   0.994  0.00  0.00    +0.008 C 
ATOM     18  C   UNL     1       8.085   7.428   2.012  0.00  0.00    +0.076 C 
ENDBRANCH   3   9
BRANCH   1  19
ATOM     19  N   UNL     1       3.393   1.410  -1.439  0.00  0.00    -0.095 NA
BRANCH  19  20
ATOM     20  S   UNL     1       2.909   0.875   0.051  0.00  0.00    +0.093 S 
ATOM     21  O   UNL     1       2.508  -0.478  -0.113  0.00  0.00    -0.148 OA
ATOM     22  O   UNL     1       2.040   1.868   0.577  0.00  0.00    -0.148 OA
BRANCH  20  27
ATOM     23  C   UNL     1       7.793   0.808   3.594  0.00  0.00    +0.044 C 
ATOM     24  C   UNL     1       6.574   0.824   2.709  0.00  0.00    -0.049 A 
ATOM     25  C   UNL     1       5.513   1.660   3.008  0.00  0.00    +0.005 A 
ATOM     26  C   UNL     1       4.392   1.671   2.200  0.00  0.00    +0.030 A 
ATOM     27  C   UNL     1       4.335   0.855   1.086  0.00  0.00    +0.129 A 
ATOM     28  C   UNL     1       5.398   0.023   0.783  0.00  0.00    +0.068 A 
ATOM     29  C   UNL     1       6.518   0.008   1.595  0.00  0.00    +0.025 A 
ATOM     30 CL   UNL     1       5.327  -1.003  -0.616  0.00  0.00    -0.082 Cl
ENDBRANCH  20  27
ENDBRANCH  19  20
ENDBRANCH   1  19
TORSDOF 4
