REMARK  Name = ZINC59669608
REMARK  3 active torsions:
REMARK  status: ('A' for Active; 'I' for Inactive)
REMARK    1  A    between atoms: C_1  and  C_2
REMARK    2  A    between atoms: C_4  and  C_19
REMARK    3  A    between atoms: C_6  and  C_14
REMARK                            x       y       z     vdW  Elec       q    Type
REMARK                         _______ _______ _______ _____ _____    ______ ____
ROOT
ATOM      1  C   UNL     1       0.893  -0.751   0.841  0.00  0.00    +0.028 C 
ATOM      2  C   UNL     1      -0.130  -1.771   1.345  0.00  0.00    +0.084 C 
ATOM      3  C   UNL     1      -0.119  -3.004   0.434  0.00  0.00    +0.124 C 
ATOM      4  C   UNL     1       1.292  -3.602   0.386  0.00  0.00    +0.161 C 
ATOM      5  N   UNL     1       1.789  -3.747   1.754  0.00  0.00    -0.224 N 
ATOM      6  C   UNL     1       1.282  -3.089   2.825  0.00  0.00    +0.214 A 
ATOM      7  N   UNL     1       1.956  -3.455   3.881  0.00  0.00    -0.202 NA
ATOM      8  C   UNL     1       2.896  -4.338   3.527  0.00  0.00    +0.247 A 
ATOM      9  N   UNL     1       2.828  -4.544   2.236  0.00  0.00    -0.156 NA
ATOM     10  N   UNL     1       0.223  -2.191   2.715  0.00  0.00    -0.310 N 
ATOM     11  H   UNL     1      -0.257  -1.862   3.491  0.00  0.00    +0.149 HD
ENDROOT
BRANCH   4  12
ATOM     12  C   UNL     1       1.247  -4.951  -0.283  0.00  0.00    +0.015 A 
ATOM     13  C   UNL     1       1.744  -5.322  -1.488  0.00  0.00    +0.013 A 
ATOM     14  C   UNL     1       1.585  -6.631  -1.905  0.00  0.00    +0.008 A 
ATOM     15  C   UNL     1       0.937  -7.504  -1.095  0.00  0.00    +0.045 A 
ATOM     16  S   UNL     1       0.533  -6.476   0.308  0.00  0.00    -0.099 S 
ENDBRANCH   4  12
BRANCH   3  17
ATOM     17  C   UNL     1      -1.080  -4.033   0.971  0.00  0.00    +0.218 C 
ATOM     18  O   UNL     1      -1.211  -4.173   2.169  0.00  0.00    -0.276 OA
ATOM     19  N   UNL     1      -1.794  -4.798   0.122  0.00  0.00    -0.329 N 
ATOM     20  H   UNL     1      -1.690  -4.686  -0.836  0.00  0.00    +0.145 HD
ATOM     21  H   UNL     1      -2.413  -5.460   0.468  0.00  0.00    +0.145 HD
ENDBRANCH   3  17
TORSDOF 2
