REMARK  Name = ZINC39530413
REMARK  6 active torsions:
REMARK  status: ('A' for Active; 'I' for Inactive)
REMARK    1  A    between atoms: C_4  and  O_7
REMARK    2  A    between atoms: O_7  and  S_8
REMARK    3  A    between atoms: S_8  and  C_11
REMARK    4  A    between atoms: C_13  and  C_25
REMARK    5  A    between atoms: C_16  and  N_17
REMARK    6  A    between atoms: C_30  and  O_31
REMARK                            x       y       z     vdW  Elec       q    Type
REMARK                         _______ _______ _______ _____ _____    ______ ____
ROOT
ATOM      1  C   UNL     1       3.192  -2.273   2.002  0.00  0.00    +0.150 A 
ATOM      2  C   UNL     1       2.054  -2.014   2.735  0.00  0.00    +0.041 A 
ATOM      3  C   UNL     1       1.304  -3.068   3.253  0.00  0.00    -0.012 A 
ATOM      4  C   UNL     1       1.707  -4.384   3.029  0.00  0.00    +0.010 A 
ATOM      5  C   UNL     1       2.846  -4.639   2.296  0.00  0.00    +0.026 A 
ATOM      6  C   UNL     1       3.590  -3.586   1.776  0.00  0.00    +0.058 A 
ENDROOT
BRANCH   6   7
ATOM      7  N   UNL     1       4.740  -3.847   1.029  0.00  0.00    -0.329 N 
ATOM      8  C   UNL     1       6.053  -3.967   1.680  0.00  0.00    +0.086 C 
ATOM      9  C   UNL     1       6.715  -5.264   1.202  0.00  0.00    -0.060 C 
ATOM     10  N   UNL     1       6.763  -5.276  -0.266  0.00  0.00    +0.400 N 
ATOM     11  C   UNL     1       5.400  -5.304  -0.810  0.00  0.00    +0.119 C 
ATOM     12  C   UNL     1       4.672  -4.015  -0.431  0.00  0.00    +0.120 C 
ATOM     13  O   UNL     1       5.458  -5.420  -2.233  0.00  0.00    -0.250 OA
ATOM     14  H   UNL     1       7.237  -4.447  -0.592  0.00  0.00    -0.082 HD
ATOM     15  H   UNL     1       7.266  -6.093  -0.578  0.00  0.00    -0.082 HD
ENDBRANCH   6   7
BRANCH   3  16
ATOM     16  C   UNL     1       0.079  -2.791   4.042  0.00  0.00    +0.024 A 
ATOM     17  C   UNL     1       0.114  -1.873   5.090  0.00  0.00    +0.012 A 
ATOM     18  C   UNL     1      -1.028  -1.619   5.821  0.00  0.00    +0.001 A 
ATOM     19  C   UNL     1      -2.210  -2.272   5.518  0.00  0.00    +0.004 A 
ATOM     20  C   UNL     1      -2.256  -3.185   4.481  0.00  0.00    +0.046 A 
ATOM     21  C   UNL     1      -1.118  -3.445   3.735  0.00  0.00    +0.125 A 
BRANCH  21  22
ATOM     22  O   UNL     1      -1.163  -4.338   2.711  0.00  0.00    -0.506 OA
ATOM     23  H   UNL     1      -0.964  -5.247   2.973  0.00  0.00    +0.292 HD
ENDBRANCH  21  22
ENDBRANCH   3  16
BRANCH   1  24
ATOM     24  S   UNL     1       4.140  -0.941   1.346  0.00  0.00    +0.153 S 
ATOM     25  O   UNL     1       5.458  -1.436   1.154  0.00  0.00    -0.131 OA
ATOM     26  O   UNL     1       3.863   0.192   2.158  0.00  0.00    -0.131 OA
BRANCH  24  27
ATOM     27  O   UNL     1       3.586  -0.632  -0.037  0.00  0.00    -0.342 OA
BRANCH  27  31
ATOM     28  C   UNL     1      -0.017   1.378   0.010  0.00  0.00    +0.000 A 
ATOM     29  C   UNL     1       1.170   2.088   0.002  0.00  0.00    +0.004 A 
ATOM     30  C   UNL     1       2.377   1.417  -0.013  0.00  0.00    +0.048 A 
ATOM     31  C   UNL     1       2.399   0.030  -0.021  0.00  0.00    +0.157 A 
ATOM     32  C   UNL     1       1.207  -0.680  -0.013  0.00  0.00    +0.048 A 
ATOM     33  C   UNL     1       0.002  -0.004   0.002  0.00  0.00    +0.004 A 
ENDBRANCH  27  31
ENDBRANCH  24  27
ENDBRANCH   1  24
TORSDOF 6
