REMARK  Name = ZINC11466863
REMARK  9 active torsions:
REMARK  status: ('A' for Active; 'I' for Inactive)
REMARK    1  A    between atoms: C_1  and  C_2
REMARK    2  A    between atoms: C_2  and  C_3
REMARK    3  A    between atoms: C_3  and  C_4
REMARK    4  A    between atoms: C_8  and  S_10
REMARK    5  A    between atoms: S_10  and  C_11
REMARK    6  A    between atoms: C_11  and  C_12
REMARK    7  A    between atoms: N_17  and  C_18
REMARK    8  A    between atoms: C_23  and  C_28
REMARK    9  A    between atoms: C_25  and  C_27
REMARK                            x       y       z     vdW  Elec       q    Type
REMARK                         _______ _______ _______ _____ _____    ______ ____
ROOT
ATOM      1  C   UNL     1      -3.127  -5.818  -3.528  0.00  0.00    +0.231 C 
ATOM      2  O   UNL     1      -2.815  -6.978  -3.365  0.00  0.00    -0.274 OA
ATOM      3  N   UNL     1      -4.268  -5.511  -4.177  0.00  0.00    -0.239 N 
ATOM      4  C   UNL     1      -5.062  -6.495  -4.644  0.00  0.00    +0.306 C 
ATOM      5  O   UNL     1      -4.749  -7.658  -4.481  0.00  0.00    -0.252 OA
ATOM      6  N   UNL     1      -6.203  -6.189  -5.293  0.00  0.00    -0.296 N 
ATOM      7  H   UNL     1      -4.518  -4.583  -4.307  0.00  0.00    +0.159 HD
ATOM      8  H   UNL     1      -6.453  -5.261  -5.423  0.00  0.00    +0.151 HD
ENDROOT
BRANCH   6   9
ATOM      9  C   UNL     1      -7.066  -7.258  -5.802  0.00  0.00    +0.078 C 
ATOM     10  C   UNL     1      -8.000  -7.733  -4.687  0.00  0.00    +0.022 C 
ATOM     11  C   UNL     1      -8.901  -8.850  -5.218  0.00  0.00    +0.002 C 
ATOM     12  C   UNL     1      -9.732  -8.321  -6.388  0.00  0.00    +0.003 C 
ATOM     13  C   UNL     1      -8.798  -7.846  -7.503  0.00  0.00    -0.009 C 
ATOM     14  C   UNL     1      -7.897  -6.729  -6.972  0.00  0.00    +0.009 C 
ATOM     15  C   UNL     1      -6.963  -6.254  -8.087  0.00  0.00    +0.009 C 
ATOM     16  C   UNL     1      -7.935  -9.016  -7.979  0.00  0.00    +0.008 C 
ENDBRANCH   6   9
BRANCH   1  17
ATOM     17  C   UNL     1      -2.239  -4.718  -3.005  0.00  0.00    +0.173 C 
BRANCH  17  18
ATOM     18  S   UNL     1      -0.793  -5.446  -2.187  0.00  0.00    -0.077 S 
BRANCH  18  23
ATOM     19  C   UNL     1       0.739  -2.004  -1.265  0.00  0.00    +0.152 A 
ATOM     20  N   UNL     1       1.673  -2.752  -0.741  0.00  0.00    -0.157 NA
ATOM     21  H   UNL     1       1.796  -4.880  -0.698  0.00  0.00    +0.191 HD
ATOM     22  N   UNL     1       1.306  -4.088  -0.969  0.00  0.00    -0.254 N 
ATOM     23  C   UNL     1       0.133  -4.051  -1.638  0.00  0.00    +0.185 A 
ATOM     24  N   UNL     1      -0.197  -2.787  -1.804  0.00  0.00    -0.206 NA
BRANCH  19  25
ATOM     25  C   UNL     1       0.718  -0.497  -1.257  0.00  0.00    +0.078 C 
BRANCH  25  27
ATOM     26  C   UNL     1      -0.019   1.526   0.010  0.00  0.00    +0.004 C 
ATOM     27  C   UNL     1       0.002  -0.004   0.002  0.00  0.00    +0.004 C 
ENDBRANCH  25  27
ENDBRANCH  19  25
ENDBRANCH  18  23
ENDBRANCH  17  18
ENDBRANCH   1  17
TORSDOF 6
