REMARK  Name = ZINC01842644
REMARK  6 active torsions:
REMARK  status: ('A' for Active; 'I' for Inactive)
REMARK    1  A    between atoms: C_1  and  N_2
REMARK    2  A    between atoms: N_4  and  C_20
REMARK    3  A    between atoms: C_5  and  C_8
REMARK    4  A    between atoms: C_5  and  O_19
REMARK    5  A    between atoms: C_12  and  S_14
REMARK    6  A    between atoms: S_14  and  N_17
REMARK                            x       y       z     vdW  Elec       q    Type
REMARK                         _______ _______ _______ _____ _____    ______ ____
ROOT
ATOM      1  C   UNL     1       3.220   0.483   1.196  0.00  0.00    +0.005 A 
ATOM      2  C   UNL     1       2.719  -0.148   2.319  0.00  0.00    +0.009 A 
ATOM      3  C   UNL     1       3.522  -0.323   3.430  0.00  0.00    +0.022 A 
ATOM      4  C   UNL     1       4.825   0.143   3.422  0.00  0.00    +0.067 A 
ATOM      5  C   UNL     1       5.324   0.780   2.300  0.00  0.00    +0.124 A 
ATOM      6  C   UNL     1       4.522   0.950   1.187  0.00  0.00    +0.038 A 
ATOM      7 CL   UNL     1       5.833  -0.070   4.819  0.00  0.00    -0.082 Cl
ENDROOT
BRANCH   1  12
ATOM      8  C   UNL     1      -2.384  -0.258   0.023  0.00  0.00    +0.141 C 
ATOM      9  N   UNL     1      -1.026  -0.807   0.007  0.00  0.00    -0.371 N 
ATOM     10  C   UNL     1       0.002  -0.004   0.002  0.00  0.00    +0.132 C 
ATOM     11  N   UNL     1       1.326  -0.354  -0.013  0.00  0.00    -0.282 N 
ATOM     12  C   UNL     1       2.346   0.669  -0.017  0.00  0.00    +0.170 C 
ATOM     13  C   UNL     1       1.781   2.102  -0.004  0.00  0.00    +0.137 C 
ATOM     14  S   UNL     1      -0.022   1.777   0.012  0.00  0.00    -0.088 S 
ATOM     15  C   UNL     1       1.708  -1.768  -0.024  0.00  0.00    +0.134 C 
ATOM     16  H   UNL     1      -0.873  -1.896  -0.001  0.00  0.00    +0.161 HD
BRANCH  12  17
ATOM     17  O   UNL     1       3.150   0.508  -1.188  0.00  0.00    -0.367 OA
ATOM     18  H   UNL     1       3.988   1.194  -1.378  0.00  0.00    +0.212 HD
ENDBRANCH  12  17
ENDBRANCH   1  12
BRANCH   5  19
ATOM     19  S   UNL     1       6.983   1.374   2.289  0.00  0.00    +0.057 S 
ATOM     20  O   UNL     1       7.800   0.308   2.753  0.00  0.00    -0.153 OA
ATOM     21  O   UNL     1       7.184   1.993   1.025  0.00  0.00    -0.153 OA
BRANCH  19  22
ATOM     22  N   UNL     1       7.081   2.575   3.425  0.00  0.00    -0.203 NA
ATOM     23  H   UNL     1       8.105   2.974   3.449  0.00  0.00    +0.144 HD
ATOM     24  H   UNL     1       6.823   2.167   4.413  0.00  0.00    +0.144 HD
ENDBRANCH  19  22
ENDBRANCH   5  19
TORSDOF 4
