REMARK  Name = ZINC35421387
REMARK  8 active torsions:
REMARK  status: ('A' for Active; 'I' for Inactive)
REMARK    1  A    between atoms: C_1  and  C_2
REMARK    2  A    between atoms: C_2  and  O_3
REMARK    3  A    between atoms: O_3  and  C_4
REMARK    4  A    between atoms: C_14  and  C_31
REMARK    5  A    between atoms: C_16  and  C_21
REMARK    6  A    between atoms: C_21  and  C_23
REMARK    7  A    between atoms: C_24  and  C_25
REMARK    8  A    between atoms: C_35  and  O_37
REMARK                            x       y       z     vdW  Elec       q    Type
REMARK                         _______ _______ _______ _____ _____    ______ ____
ROOT
ATOM      1  C   UNL     1       0.802  -1.825   1.306  0.00  0.00    +0.122 A 
ATOM      2  C   UNL     1       0.261  -2.683   0.353  0.00  0.00    +0.048 A 
ATOM      3  C   UNL     1       0.355  -4.034   0.474  0.00  0.00    +0.032 A 
ATOM      4  C   UNL     1       1.011  -4.620   1.582  0.00  0.00    +0.081 A 
ATOM      5  C   UNL     1       1.551  -3.725   2.534  0.00  0.00    +0.044 A 
ATOM      6  C   UNL     1       1.459  -2.361   2.404  0.00  0.00    +0.063 A 
ATOM      7  S   UNL     1       2.267  -4.829   3.728  0.00  0.00    -0.052 S 
ATOM      8  C   UNL     1       1.820  -6.357   2.917  0.00  0.00    +0.169 A 
ATOM      9  N   UNL     1       1.188  -5.933   1.847  0.00  0.00    -0.224 NA
ATOM     10  N   UNL     1       2.074  -7.658   3.315  0.00  0.00    -0.232 N 
ATOM     11  C   UNL     1       1.681  -8.875   2.595  0.00  0.00    +0.152 C 
ATOM     12  C   UNL     1       2.182 -10.034   3.424  0.00  0.00    +0.076 C 
ATOM     13  C   UNL     1       2.797  -9.503   4.507  0.00  0.00    +0.250 C 
ATOM     14  C   UNL     1       2.731  -8.031   4.429  0.00  0.00    +0.293 C 
ATOM     15  O   UNL     1       3.198  -7.268   5.251  0.00  0.00    -0.266 OA
ATOM     16  O   UNL     1       3.384 -10.210   5.501  0.00  0.00    -0.282 OA
ENDROOT
BRANCH  11  17
ATOM     17  C   UNL     1       0.181  -8.938   2.465  0.00  0.00    -0.019 A 
ATOM     18  C   UNL     1      -0.621  -8.548   3.521  0.00  0.00    +0.006 A 
ATOM     19  C   UNL     1      -1.998  -8.605   3.405  0.00  0.00    +0.004 A 
ATOM     20  C   UNL     1      -2.575  -9.053   2.232  0.00  0.00    +0.045 A 
ATOM     21  C   UNL     1      -1.772  -9.445   1.171  0.00  0.00    +0.117 A 
ATOM     22  C   UNL     1      -0.391  -9.382   1.288  0.00  0.00    +0.051 A 
BRANCH  21  23
ATOM     23  O   UNL     1      -2.337  -9.887   0.017  0.00  0.00    -0.507 OA
ATOM     24  H   UNL     1      -2.509  -9.188  -0.629  0.00  0.00    +0.292 HD
ENDBRANCH  21  23
ENDBRANCH  11  17
BRANCH  12  25
ATOM     25  C   UNL     1       2.030 -11.461   3.116  0.00  0.00    +0.188 C 
ATOM     26  O   UNL     1       2.484 -12.300   3.874  0.00  0.00    -0.287 OA
BRANCH  25  27
ATOM     27  C   UNL     1       1.335 -11.877   1.897  0.00  0.00    +0.052 C 
ATOM     28  C   UNL     1       1.195 -13.190   1.613  0.00  0.00    +0.011 C 
BRANCH  28  29
ATOM     29  C   UNL     1       0.496 -13.607   0.388  0.00  0.00    -0.025 A 
ATOM     30  C   UNL     1      -0.021 -12.647  -0.488  0.00  0.00    +0.008 A 
ATOM     31  C   UNL     1      -0.675 -13.047  -1.635  0.00  0.00    +0.001 A 
ATOM     32  C   UNL     1      -0.821 -14.393  -1.919  0.00  0.00    +0.000 A 
ATOM     33  C   UNL     1      -0.312 -15.350  -1.057  0.00  0.00    +0.001 A 
ATOM     34  C   UNL     1       0.349 -14.966   0.090  0.00  0.00    +0.008 A 
ENDBRANCH  28  29
ENDBRANCH  25  27
ENDBRANCH  12  25
BRANCH   1  35
ATOM     35  O   UNL     1       0.693  -0.477   1.160  0.00  0.00    -0.492 OA
BRANCH  35  37
ATOM     36  C   UNL     1      -0.019   1.526   0.010  0.00  0.00    +0.048 C 
ATOM     37  C   UNL     1       0.002  -0.004   0.002  0.00  0.00    +0.225 C 
ENDBRANCH  35  37
ENDBRANCH   1  35
TORSDOF 7
