REMARK  Name = ZINC45692501
REMARK  6 active torsions:
REMARK  status: ('A' for Active; 'I' for Inactive)
REMARK    1  A    between atoms: C_1  and  C_2
REMARK    2  A    between atoms: N_5  and  C_11
REMARK    3  A    between atoms: C_7  and  C_9
REMARK    4  A    between atoms: C_7  and  C_10
REMARK    5  A    between atoms: C_11  and  C_12
REMARK    6  A    between atoms: C_12  and  N_14
REMARK                            x       y       z     vdW  Elec       q    Type
REMARK                         _______ _______ _______ _____ _____    ______ ____
ROOT
ATOM      1  C   UNL     1      -0.038   1.504   0.581  0.00  0.00    +0.039 C 
ATOM      2  C   UNL     1      -0.015   0.004   0.280  0.00  0.00    +0.130 C 
ATOM      3  C   UNL     1      -1.444  -0.544   0.300  0.00  0.00    +0.116 C 
ATOM      4  N   UNL     1      -1.409  -1.998   0.087  0.00  0.00    -0.291 NA
ATOM      5  C   UNL     1      -0.603  -2.658   1.124  0.00  0.00    +0.119 C 
ATOM      6  C   UNL     1       0.818  -2.088   1.096  0.00  0.00    +0.077 C 
ATOM      7  O   UNL     1       0.763  -0.670   1.273  0.00  0.00    -0.368 OA
ATOM      8  C   UNL     1       1.641  -2.712   2.225  0.00  0.00    +0.042 C 
ATOM      9  C   UNL     1       1.471  -2.410  -0.250  0.00  0.00    +0.042 C 
ENDROOT
BRANCH   4  10
ATOM     10  C   UNL     1      -2.768  -2.557   0.042  0.00  0.00    +0.142 C 
BRANCH  10  11
ATOM     11  C   UNL     1      -3.393  -2.250  -1.294  0.00  0.00    +0.060 C 
ATOM     12  S   UNL     1      -2.529  -1.541  -2.437  0.00  0.00    -0.039 S 
BRANCH  11  13
ATOM     13  N   UNL     1      -4.681  -2.575  -1.526  0.00  0.00    -0.355 N 
ATOM     14  H   UNL     1      -5.205  -3.005  -0.832  0.00  0.00    +0.143 HD
ATOM     15  H   UNL     1      -5.083  -2.377  -2.386  0.00  0.00    +0.143 HD
ENDBRANCH  11  13
ENDBRANCH  10  11
ENDBRANCH   4  10
TORSDOF 3
