REMARK  Name = ZINC40917875
REMARK  7 active torsions:
REMARK  status: ('A' for Active; 'I' for Inactive)
REMARK    1  A    between atoms: C_1  and  C_2
REMARK    2  A    between atoms: N_6  and  C_9
REMARK    3  A    between atoms: C_12  and  N_16
REMARK    4  A    between atoms: C_17  and  C_19
REMARK    5  A    between atoms: C_22  and  C_35
REMARK    6  A    between atoms: C_22  and  O_36
REMARK    7  A    between atoms: N_27  and  C_28
REMARK                            x       y       z     vdW  Elec       q    Type
REMARK                         _______ _______ _______ _____ _____    ______ ____
ROOT
ATOM      1  N   UNL     1       0.118  -4.862   6.016  0.00  0.00    -0.282 N 
ATOM      2  C   UNL     1       0.106  -4.198   7.189  0.00  0.00    +0.238 C 
ATOM      3  O   UNL     1       0.004  -2.989   7.201  0.00  0.00    -0.273 OA
ATOM      4  H   UNL     1       0.115  -5.832   6.008  0.00  0.00    +0.155 HD
ENDROOT
BRANCH   2   5
ATOM      5  C   UNL     1       0.219  -4.957   8.486  0.00  0.00    +0.166 C 
ATOM      6  C   UNL     1       1.696  -5.312   8.760  0.00  0.00    +0.068 C 
ATOM      7  C   UNL     1       2.150  -4.185   9.725  0.00  0.00    +0.081 C 
ATOM      8  C   UNL     1       0.865  -3.954  10.559  0.00  0.00    +0.144 C 
ATOM      9  N   UNL     1      -0.246  -4.117   9.600  0.00  0.00    -0.271 N 
ATOM     10  C   UNL     1      -1.478  -3.585   9.721  0.00  0.00    +0.307 C 
ATOM     11  O   UNL     1      -2.315  -3.788   8.863  0.00  0.00    -0.252 OA
ATOM     12  N   UNL     1      -1.783  -2.829  10.794  0.00  0.00    -0.269 N 
ATOM     13  C   UNL     1       3.303  -4.656  10.614  0.00  0.00    +0.043 C 
ATOM     14  H   UNL     1      -1.136  -2.719  11.509  0.00  0.00    +0.156 HD
BRANCH  12  15
ATOM     15  C   UNL     1      -3.032  -2.202  10.877  0.00  0.00    +0.035 A 
ATOM     16  C   UNL     1      -3.143  -0.949  11.464  0.00  0.00    +0.025 A 
ATOM     17  C   UNL     1      -4.377  -0.333  11.544  0.00  0.00    +0.022 A 
ATOM     18  C   UNL     1      -5.501  -0.964  11.041  0.00  0.00    +0.041 A 
ATOM     19  C   UNL     1      -5.393  -2.214  10.457  0.00  0.00    +0.022 A 
ATOM     20  C   UNL     1      -4.160  -2.831  10.368  0.00  0.00    +0.025 A 
ATOM     21 CL   UNL     1      -7.050  -0.187  11.145  0.00  0.00    -0.084 Cl
ENDBRANCH  12  15
BRANCH   7  22
ATOM     22  O   UNL     1       2.511  -3.006   9.003  0.00  0.00    -0.387 OA
ATOM     23  H   UNL     1       2.802  -2.275   9.564  0.00  0.00    +0.210 HD
ENDBRANCH   7  22
ENDBRANCH   2   5
BRANCH   1  27
ATOM     24  C   UNL     1       0.167  -2.745   2.422  0.00  0.00    +0.052 A 
ATOM     25  C   UNL     1       0.826  -2.240   3.536  0.00  0.00    +0.028 A 
ATOM     26  C   UNL     1       0.809  -2.941   4.725  0.00  0.00    +0.028 A 
ATOM     27  C   UNL     1       0.134  -4.151   4.809  0.00  0.00    +0.069 A 
ATOM     28  C   UNL     1      -0.526  -4.658   3.695  0.00  0.00    +0.146 A 
ATOM     29  C   UNL     1      -0.514  -3.953   2.506  0.00  0.00    +0.066 A 
ATOM     30  F   UNL     1      -1.183  -5.835   3.775  0.00  0.00    -0.203 F 
BRANCH  24  36
ATOM     31  C   UNL     1       2.708  -0.613  -1.186  0.00  0.00    +0.049 C 
ATOM     32  C   UNL     1       1.392  -0.988  -0.554  0.00  0.00    +0.014 A 
ATOM     33  C   UNL     1       0.216  -0.638  -1.150  0.00  0.00    +0.010 A 
ATOM     34  C   UNL     1      -0.995  -0.998  -0.543  0.00  0.00    +0.019 A 
ATOM     35  C   UNL     1      -0.988  -1.686   0.623  0.00  0.00    +0.095 A 
ATOM     36  N   UNL     1       0.185  -2.034   1.215  0.00  0.00    -0.284 N 
ATOM     37  C   UNL     1       1.364  -1.706   0.653  0.00  0.00    +0.259 A 
ATOM     38  O   UNL     1       2.409  -2.030   1.194  0.00  0.00    -0.267 OA
ENDBRANCH  24  36
ENDBRANCH   1  27
TORSDOF 5
