REMARK  Name = ZINC19924179
REMARK  8 active torsions:
REMARK  status: ('A' for Active; 'I' for Inactive)
REMARK    1  A    between atoms: C_1  and  C_2
REMARK    2  A    between atoms: C_4  and  C_28
REMARK    3  A    between atoms: C_6  and  N_8
REMARK    4  A    between atoms: N_11  and  C_12
REMARK    5  A    between atoms: C_12  and  C_13
REMARK    6  A    between atoms: C_13  and  N_14
REMARK    7  A    between atoms: C_22  and  C_27
REMARK    8  A    between atoms: C_24  and  C_26
REMARK                            x       y       z     vdW  Elec       q    Type
REMARK                         _______ _______ _______ _____ _____    ______ ____
ROOT
ATOM      1  C   UNL     1       0.972   3.569   0.309  0.00  0.00    +0.121 C 
ENDROOT
BRANCH   1   2
ATOM      2  N   UNL     1       2.227   4.303   0.483  0.00  0.00    -0.326 N 
ATOM      3  C   UNL     1       2.224   5.695   0.485  0.00  0.00    +0.141 A 
ATOM      4  C   UNL     1       1.027   6.393   0.315  0.00  0.00    +0.049 A 
ATOM      5  C   UNL     1       1.075   7.776   0.329  0.00  0.00    +0.053 A 
ATOM      6  C   UNL     1       2.317   8.386   0.501  0.00  0.00    +0.176 A 
ATOM      7  N   UNL     1       3.401   7.644   0.650  0.00  0.00    -0.128 NA
ATOM      8  N   UNL     1       3.357   6.361   0.642  0.00  0.00    -0.132 NA
ATOM      9  N   UNL     1       2.416   9.783   0.517  0.00  0.00    -0.217 N 
ATOM     10  C   UNL     1       3.388  10.509   1.125  0.00  0.00    +0.044 A 
ATOM     11  C   UNL     1       3.123  11.817   0.902  0.00  0.00    +0.048 A 
ATOM     12  C   UNL     1       1.950  11.896   0.144  0.00  0.00    +0.061 A 
ATOM     13  N   UNL     1       1.526  10.680  -0.088  0.00  0.00    -0.170 NA
ATOM     14  C   UNL     1       1.287  13.165  -0.326  0.00  0.00    +0.067 C 
ATOM     15  C   UNL     1       4.554   9.958   1.905  0.00  0.00    +0.066 C 
ATOM     16  H   UNL     1       3.172   3.755   0.613  0.00  0.00    +0.148 HD
ENDBRANCH   1   2
BRANCH   1  17
ATOM     17  C   UNL     1       1.252   2.065   0.345  0.00  0.00    +0.124 C 
BRANCH  17  21
ATOM     18  N   UNL     1      -1.156  -0.694   0.009  0.00  0.00    -0.269 N 
ATOM     19  C   UNL     1      -0.001  -0.018   0.170  0.00  0.00    +0.304 C 
ATOM     20  O   UNL     1       1.043  -0.624   0.313  0.00  0.00    -0.253 OA
ATOM     21  N   UNL     1      -0.004   1.330   0.171  0.00  0.00    -0.298 N 
ATOM     22  H   UNL     1      -2.111  -0.149  -0.032  0.00  0.00    +0.156 HD
ATOM     23  H   UNL     1      -0.949   1.878   0.042  0.00  0.00    +0.150 HD
BRANCH  18  29
ATOM     24  C   UNL     1      -3.315  -5.032   0.841  0.00  0.00    +0.044 C 
ATOM     25  C   UNL     1      -2.174  -4.216   0.290  0.00  0.00    -0.048 A 
ATOM     26  C   UNL     1      -1.109  -4.846  -0.327  0.00  0.00    +0.006 A 
ATOM     27  C   UNL     1      -0.060  -4.101  -0.833  0.00  0.00    -0.048 A 
ATOM     28  C   UNL     1      -0.072  -2.724  -0.724  0.00  0.00    +0.026 A 
ATOM     29  C   UNL     1      -1.140  -2.088  -0.104  0.00  0.00    +0.035 A 
ATOM     30  C   UNL     1      -2.190  -2.840   0.408  0.00  0.00    +0.026 A 
ATOM     31  C   UNL     1       1.098  -4.792  -1.506  0.00  0.00    +0.044 C 
ENDBRANCH  18  29
ENDBRANCH  17  21
ENDBRANCH   1  17
TORSDOF 4
