REMARK  Name = ZINC62825979
REMARK  6 active torsions:
REMARK  status: ('A' for Active; 'I' for Inactive)
REMARK    1  A    between atoms: C_1  and  C_2
REMARK    2  A    between atoms: C_4  and  C_20
REMARK    3  A    between atoms: C_5  and  N_19
REMARK    4  A    between atoms: C_6  and  C_8
REMARK    5  A    between atoms: C_10  and  C_14
REMARK    6  A    between atoms: N_12  and  C_13
REMARK                            x       y       z     vdW  Elec       q    Type
REMARK                         _______ _______ _______ _____ _____    ______ ____
ROOT
ATOM      1  C   UNL     1      -0.524   1.543   0.058  0.00  0.00    +0.044 C 
ATOM      2  C   UNL     1      -0.307   0.052   0.028  0.00  0.00    -0.049 A 
ATOM      3  C   UNL     1      -0.129  -0.593  -1.185  0.00  0.00    +0.008 A 
ATOM      4  C   UNL     1       0.070  -1.959  -1.226  0.00  0.00    -0.029 A 
ATOM      5  C   UNL     1       0.094  -2.694  -0.048  0.00  0.00    +0.038 A 
ATOM      6  C   UNL     1      -0.086  -2.043   1.180  0.00  0.00    +0.040 A 
ATOM      7  C   UNL     1      -0.281  -0.662   1.207  0.00  0.00    +0.016 A 
ATOM      8  C   UNL     1       0.263  -2.652  -2.550  0.00  0.00    +0.045 C 
ENDROOT
BRANCH   6   9
ATOM      9  C   UNL     1      -0.063  -2.815   2.441  0.00  0.00    +0.161 A 
ATOM     10  N   UNL     1      -0.713  -3.937   2.673  0.00  0.00    -0.206 NA
ATOM     11  C   UNL     1      -0.459  -4.354   3.920  0.00  0.00    +0.188 A 
ATOM     12  N   UNL     1       0.359  -3.500   4.499  0.00  0.00    -0.149 NA
ATOM     13  N   UNL     1       0.634  -2.496   3.556  0.00  0.00    -0.247 N 
ATOM     14  C   UNL     1       1.503  -1.331   3.744  0.00  0.00    +0.174 C 
BRANCH  11  15
ATOM     15  C   UNL     1      -1.009  -5.577   4.545  0.00  0.00    +0.058 A 
ATOM     16  C   UNL     1      -0.804  -6.067   5.807  0.00  0.00    +0.019 A 
ATOM     17  C   UNL     1      -1.431  -7.238   6.172  0.00  0.00    +0.008 A 
ATOM     18  C   UNL     1      -2.229  -7.870   5.273  0.00  0.00    +0.046 A 
ATOM     19  S   UNL     1      -2.118  -6.793   3.853  0.00  0.00    -0.093 S 
ENDBRANCH  11  15
ENDBRANCH   6   9
BRANCH   5  20
ATOM     20  N   UNL     1       0.294  -4.072  -0.087  0.00  0.00    -0.357 N 
ATOM     21  H   UNL     1       0.320  -4.534  -0.939  0.00  0.00    +0.142 HD
ATOM     22  H   UNL     1       0.408  -4.569   0.738  0.00  0.00    +0.142 HD
ENDBRANCH   5  20
TORSDOF 3
