REMARK  Name = ZINC39313164
REMARK  3 active torsions:
REMARK  status: ('A' for Active; 'I' for Inactive)
REMARK    1  A    between atoms: C_3  and  C_6
REMARK    2  A    between atoms: C_11  and  C_14
REMARK    3  A    between atoms: C_19  and  C_21
REMARK                            x       y       z     vdW  Elec       q    Type
REMARK                         _______ _______ _______ _____ _____    ______ ____
ROOT
ATOM      1  C   UNL     1       3.761   1.845  -0.024  0.00  0.00    +0.096 C 
ATOM      2  C   UNL     1       4.474   1.342   1.207  0.00  0.00    +0.064 A 
ATOM      3  C   UNL     1       5.304   0.238   1.029  0.00  0.00    +0.031 A 
ATOM      4  C   UNL     1       5.990  -0.327   2.089  0.00  0.00    +0.030 A 
ATOM      5  C   UNL     1       5.846   0.243   3.345  0.00  0.00    +0.074 A 
ATOM      6  C   UNL     1       5.023   1.348   3.469  0.00  0.00    +0.123 A 
ATOM      7  N   UNL     1       4.383   1.850   2.439  0.00  0.00    -0.258 NA
ATOM      8  S   UNL     1       5.253  -0.163  -0.703  0.00  0.00    -0.111 S 
ATOM      9  C   UNL     1       4.456   1.373  -1.321  0.00  0.00    +0.132 C 
ENDROOT
BRANCH   9  10
ATOM     10  C   UNL     1       3.452   1.070  -2.404  0.00  0.00    +0.139 A 
ATOM     11  H   UNL     1       4.062   2.251  -3.999  0.00  0.00    +0.190 HD
ATOM     12  N   UNL     1       2.440   0.246  -2.305  0.00  0.00    -0.218 NA
ATOM     13  C   UNL     1       1.762   0.224  -3.451  0.00  0.00    +0.245 A 
ATOM     14  N   UNL     1       2.336   1.036  -4.300  0.00  0.00    -0.161 NA
ATOM     15  N   UNL     1       3.436   1.604  -3.637  0.00  0.00    -0.262 N 
ENDBRANCH   9  10
BRANCH   1  18
ATOM     16  C   UNL     1      -0.016   1.351   0.009  0.00  0.00    +0.008 A 
ATOM     17  C   UNL     1       1.183   2.038   0.002  0.00  0.00    +0.012 A 
ATOM     18  C   UNL     1       2.343   1.336  -0.013  0.00  0.00    +0.000 A 
ATOM     19  S   UNL     1       1.754  -0.349  -0.017  0.00  0.00    -0.101 S 
ATOM     20  C   UNL     1       0.002  -0.004   0.002  0.00  0.00    +0.045 A 
ENDBRANCH   1  18
BRANCH   5  21
ATOM     21  C   UNL     1       6.565  -0.324   4.541  0.00  0.00    +0.419 C 
ATOM     22  F   UNL     1       7.814   0.293   4.670  0.00  0.00    -0.166 F 
ATOM     23  F   UNL     1       5.809  -0.090   5.695  0.00  0.00    -0.166 F 
ATOM     24  F   UNL     1       6.741  -1.701   4.370  0.00  0.00    -0.166 F 
ENDBRANCH   5  21
TORSDOF 3
