REMARK  Name = ZINC48372306
REMARK  8 active torsions:
REMARK  status: ('A' for Active; 'I' for Inactive)
REMARK    1  A    between atoms: C_1  and  C_2
REMARK    2  A    between atoms: N_7  and  C_9
REMARK    3  A    between atoms: C_9  and  C_10
REMARK    4  A    between atoms: C_10  and  C_11
REMARK    5  A    between atoms: C_11  and  N_12
REMARK    6  A    between atoms: N_15  and  C_16
REMARK    7  A    between atoms: C_16  and  C_17
REMARK    8  A    between atoms: C_17  and  C_18
REMARK                            x       y       z     vdW  Elec       q    Type
REMARK                         _______ _______ _______ _____ _____    ______ ____
ROOT
ATOM      1  N   UNL     1       2.604  -5.942   3.440  0.00  0.00    -0.299 N 
ATOM      2  C   UNL     1       3.280  -6.608   4.397  0.00  0.00    +0.300 C 
ATOM      3  O   UNL     1       3.783  -5.999   5.321  0.00  0.00    -0.253 OA
ATOM      4  N   UNL     1       3.398  -7.949   4.330  0.00  0.00    -0.299 N 
ATOM      5  H   UNL     1       2.203  -6.428   2.703  0.00  0.00    +0.150 HD
ATOM      6  H   UNL     1       2.997  -8.435   3.592  0.00  0.00    +0.150 HD
ENDROOT
BRANCH   1   7
ATOM      7  C   UNL     1       2.475  -4.485   3.513  0.00  0.00    +0.104 C 
BRANCH   7   8
ATOM      8  C   UNL     1       1.668  -3.983   2.314  0.00  0.00    +0.000 C 
BRANCH   8   9
ATOM      9  C   UNL     1       1.534  -2.461   2.390  0.00  0.00    -0.077 C 
BRANCH   9  15
ATOM     10  C   UNL     1      -0.019   1.526   0.010  0.00  0.00    +0.005 C 
ATOM     11  C   UNL     1       0.002  -0.004   0.002  0.00  0.00    -0.031 C 
ATOM     12  C   UNL     1      -1.434  -0.535   0.015  0.00  0.00    -0.001 C 
ATOM     13  C   UNL     1      -1.402  -2.064   0.086  0.00  0.00    -0.018 C 
ATOM     14  C   UNL     1      -0.613  -2.496   1.324  0.00  0.00    -0.079 C 
ATOM     15  N   UNL     1       0.758  -1.980   1.239  0.00  0.00    +0.380 N 
ATOM     16  C   UNL     1       0.740  -0.512   1.242  0.00  0.00    -0.076 C 
ATOM     17  H   UNL     1       1.188  -2.307   0.386  0.00  0.00    -0.082 HD
ENDBRANCH   9  15
ENDBRANCH   8   9
ENDBRANCH   7   8
ENDBRANCH   1   7
BRANCH   4  18
ATOM     18  C   UNL     1       4.133  -8.672   5.370  0.00  0.00    +0.113 C 
BRANCH  18  19
ATOM     19  C   UNL     1       4.118 -10.170   5.058  0.00  0.00    +0.095 C 
BRANCH  19  20
ATOM     20  C   UNL     1       4.874 -10.914   6.128  0.00  0.00    +0.135 A 
ATOM     21  N   UNL     1       6.152 -11.186   6.129  0.00  0.00    -0.134 NA
ATOM     22  N   UNL     1       6.459 -11.827   7.202  0.00  0.00    -0.134 NA
ATOM     23  C   UNL     1       5.393 -11.988   7.933  0.00  0.00    +0.133 A 
ATOM     24  N   UNL     1       4.359 -11.420   7.270  0.00  0.00    -0.315 N 
ATOM     25  C   UNL     1       2.962 -11.383   7.703  0.00  0.00    +0.125 C 
ATOM     26  C   UNL     1       2.902 -11.419   9.233  0.00  0.00    +0.022 C 
ATOM     27  C   UNL     1       2.853 -12.869   9.713  0.00  0.00    +0.002 C 
ATOM     28  C   UNL     1       4.109 -13.618   9.280  0.00  0.00    +0.008 C 
ATOM     29  C   UNL     1       5.303 -12.666   9.276  0.00  0.00    +0.076 C 
ENDBRANCH  19  20
ENDBRANCH  18  19
ENDBRANCH   4  18
TORSDOF 7
