REMARK  Name = ZINC38050442
REMARK  7 active torsions:
REMARK  status: ('A' for Active; 'I' for Inactive)
REMARK    1  A    between atoms: C_1  and  O_2
REMARK    2  A    between atoms: O_2  and  C_3
REMARK    3  A    between atoms: C_3  and  C_5
REMARK    4  A    between atoms: C_7  and  S_11
REMARK    5  A    between atoms: S_11  and  N_14
REMARK    6  A    between atoms: N_14  and  C_15
REMARK    7  A    between atoms: C_21  and  N_23
REMARK                            x       y       z     vdW  Elec       q    Type
REMARK                         _______ _______ _______ _____ _____    ______ ____
ROOT
ATOM      1  S   UNL     1       1.800  -5.477  -3.163  0.00  0.00    +0.060 S 
ATOM      2  O   UNL     1       0.983  -6.593  -3.488  0.00  0.00    -0.153 OA
ATOM      3  O   UNL     1       2.308  -4.592  -4.151  0.00  0.00    -0.153 OA
ENDROOT
BRANCH   1   6
ATOM      4  C   UNL     1      -1.030  -4.011  -0.766  0.00  0.00    +0.099 A 
ATOM      5  C   UNL     1      -0.394  -4.858  -1.664  0.00  0.00    +0.052 A 
ATOM      6  C   UNL     1       0.878  -4.492  -2.030  0.00  0.00    +0.127 A 
ATOM      7  C   UNL     1       1.415  -3.360  -1.507  0.00  0.00    +0.082 A 
ATOM      8  S   UNL     1       0.208  -2.755  -0.508  0.00  0.00    -0.073 S 
ATOM      9 BR   UNL     1       3.128  -2.627  -1.834  0.00  0.00    -0.041 Br
BRANCH   4  10
ATOM     10  C   UNL     1      -2.369  -4.119  -0.188  0.00  0.00    +0.346 C 
ATOM     11  O   UNL     1      -3.085  -5.057  -0.483  0.00  0.00    -0.244 OA
BRANCH  10  13
ATOM     12  C   UNL     1      -4.128  -3.347   1.198  0.00  0.00    +0.280 C 
ATOM     13  O   UNL     1      -2.811  -3.178   0.672  0.00  0.00    -0.464 OA
ENDBRANCH  10  13
ENDBRANCH   4  10
ENDBRANCH   1   6
BRANCH   1  14
ATOM     14  N   UNL     1       3.109  -6.072  -2.342  0.00  0.00    -0.188 NA
ATOM     15  H   UNL     1       4.005  -5.796  -2.592  0.00  0.00    +0.148 HD
BRANCH  14  16
ATOM     16  C   UNL     1       2.914  -7.014  -1.237  0.00  0.00    +0.062 C 
ATOM     17  C   UNL     1       2.925  -6.253   0.090  0.00  0.00    +0.019 C 
ATOM     18  C   UNL     1       2.722  -7.237   1.244  0.00  0.00    +0.001 C 
ATOM     19  C   UNL     1       3.851  -8.269   1.239  0.00  0.00    -0.001 C 
ATOM     20  C   UNL     1       3.841  -9.030  -0.088  0.00  0.00    -0.015 C 
ATOM     21  C   UNL     1       4.044  -8.046  -1.242  0.00  0.00    -0.056 C 
BRANCH  21  22
ATOM     22  N   UNL     1       4.033  -8.777  -2.516  0.00  0.00    +0.381 N 
ATOM     23  H   UNL     1       4.167  -8.128  -3.277  0.00  0.00    -0.090 HD
ATOM     24  H   UNL     1       4.778  -9.458  -2.520  0.00  0.00    -0.090 HD
ATOM     25  H   UNL     1       3.147  -9.247  -2.627  0.00  0.00    -0.090 HD
ENDBRANCH  21  22
ENDBRANCH  14  16
ENDBRANCH   1  14
TORSDOF 6
