REMARK  Name = ZINC31659614
REMARK  9 active torsions:
REMARK  status: ('A' for Active; 'I' for Inactive)
REMARK    1  A    between atoms: C_1  and  C_2
REMARK    2  A    between atoms: C_3  and  C_15
REMARK    3  A    between atoms: C_10  and  C_14
REMARK    4  A    between atoms: N_12  and  C_13
REMARK    5  A    between atoms: C_15  and  C_16
REMARK    6  A    between atoms: C_16  and  C_17
REMARK    7  A    between atoms: N_19  and  C_20
REMARK    8  A    between atoms: C_20  and  C_22
REMARK    9  A    between atoms: C_20  and  C_23
REMARK                            x       y       z     vdW  Elec       q    Type
REMARK                         _______ _______ _______ _____ _____    ______ ____
ROOT
ATOM      1  C   UNL     1       1.781   1.599   4.157  0.00  0.00    +0.100 C 
ENDROOT
BRANCH   1   2
ATOM      2  C   UNL     1       1.125   2.182   2.933  0.00  0.00    +0.214 C 
ATOM      3  O   UNL     1       1.617   3.144   2.381  0.00  0.00    -0.276 OA
ATOM      4  N   UNL     1      -0.009   1.635   2.451  0.00  0.00    -0.309 N 
ATOM      5  H   UNL     1      -0.455   0.763   2.952  0.00  0.00    +0.149 HD
BRANCH   4   6
ATOM      6  C   UNL     1      -0.647   2.202   1.260  0.00  0.00    +0.100 C 
ATOM      7  C   UNL     1      -0.002   1.611   0.005  0.00  0.00    +0.033 C 
BRANCH   6   8
ATOM      8  C   UNL     1      -2.117   1.871   1.273  0.00  0.00    -0.027 A 
ATOM      9  C   UNL     1      -2.544   0.621   1.680  0.00  0.00    +0.006 A 
ATOM     10  C   UNL     1      -3.891   0.327   1.692  0.00  0.00    +0.004 A 
ATOM     11  C   UNL     1      -4.824   1.273   1.287  0.00  0.00    -0.044 A 
ATOM     12  C   UNL     1      -4.399   2.517   0.879  0.00  0.00    -0.044 A 
ATOM     13  C   UNL     1      -3.042   2.813   0.873  0.00  0.00    +0.009 A 
ATOM     14  C   UNL     1      -5.354   3.595   0.436  0.00  0.00    +0.035 C 
ATOM     15  C   UNL     1      -6.716   2.997   0.091  0.00  0.00    +0.005 C 
ATOM     16  C   UNL     1      -7.170   2.119   1.263  0.00  0.00    +0.005 C 
ATOM     17  C   UNL     1      -6.278   0.880   1.310  0.00  0.00    +0.035 C 
ENDBRANCH   6   8
ENDBRANCH   4   6
ENDBRANCH   1   2
BRANCH   1  18
ATOM     18  C   UNL     1       3.042   2.400   4.491  0.00  0.00    +0.050 C 
BRANCH  18  21
ATOM     19  C   UNL     1       5.135   0.447   4.214  0.00  0.00    +0.045 C 
ATOM     20  C   UNL     1       4.687   0.894   5.582  0.00  0.00    -0.030 A 
ATOM     21  C   UNL     1       3.698   1.817   5.715  0.00  0.00    +0.021 A 
ATOM     22  C   UNL     1       3.292   2.232   6.997  0.00  0.00    +0.254 A 
ATOM     23  O   UNL     1       2.408   3.065   7.107  0.00  0.00    -0.268 OA
ATOM     24  N   UNL     1       3.863   1.718   8.102  0.00  0.00    -0.307 N 
ATOM     25  H   UNL     1       3.528   2.046   9.097  0.00  0.00    +0.170 HD
ATOM     26  C   UNL     1       4.861   0.787   8.002  0.00  0.00    +0.139 A 
ATOM     27  C   UNL     1       5.290   0.359   6.743  0.00  0.00    +0.043 A 
ATOM     28  C   UNL     1       6.316  -0.592   6.955  0.00  0.00    +0.069 A 
ATOM     29  N   UNL     1       6.488  -0.723   8.241  0.00  0.00    -0.174 NA
ATOM     30  N   UNL     1       5.599   0.121   8.917  0.00  0.00    -0.251 N 
ATOM     31  C   UNL     1       5.487   0.258  10.371  0.00  0.00    +0.174 C 
ATOM     32  C   UNL     1       7.078  -1.325   5.882  0.00  0.00    +0.068 C 
ENDBRANCH  18  21
ENDBRANCH   1  18
TORSDOF 5
