REMARK  Name = ZINC08772554
REMARK  3 active torsions:
REMARK  status: ('A' for Active; 'I' for Inactive)
REMARK    1  A    between atoms: C_2  and  C_13
REMARK    2  A    between atoms: C_3  and  N_10
REMARK    3  A    between atoms: C_14  and  C_15
REMARK                            x       y       z     vdW  Elec       q    Type
REMARK                         _______ _______ _______ _____ _____    ______ ____
ROOT
ATOM      1  C   UNL     1       2.274   4.228   0.116  0.00  0.00    +0.015 C 
ATOM      2  C   UNL     1       1.177   3.528  -0.245  0.00  0.00    +0.068 C 
ENDROOT
BRANCH   2   3
ATOM      3  C   UNL     1       1.193   2.067  -0.196  0.00  0.00    +0.243 C 
ATOM      4  O   UNL     1       2.195   1.482   0.172  0.00  0.00    -0.270 OA
ATOM      5  N   UNL     1       0.098   1.369  -0.556  0.00  0.00    -0.261 N 
ATOM      6  C   UNL     1       0.113  -0.019  -0.509  0.00  0.00    +0.165 A 
ATOM      7  N   UNL     1       1.088  -0.822  -0.151  0.00  0.00    -0.229 NA
ATOM      8  C   UNL     1       0.954  -2.156  -0.153  0.00  0.00    +0.054 A 
ATOM      9  C   UNL     1      -0.249  -2.629  -0.557  0.00  0.00    +0.014 A 
ATOM     10  S   UNL     1      -1.150  -1.139  -0.915  0.00  0.00    -0.057 S 
ATOM     11  C   UNL     1      -0.309  -4.126  -0.530  0.00  0.00    +0.045 C 
ATOM     12  C   UNL     1       0.883  -4.548   0.359  0.00  0.00    +0.011 C 
ATOM     13  C   UNL     1       1.843  -3.353   0.190  0.00  0.00    +0.056 C 
ATOM     14  H   UNL     1      -0.699   1.835  -0.852  0.00  0.00    +0.157 HD
ENDBRANCH   2   3
BRANCH   1  16
ATOM     15  C   UNL     1       1.041   6.383  -0.030  0.00  0.00    +0.059 A 
ATOM     16  C   UNL     1       2.258   5.697   0.066  0.00  0.00    +0.009 A 
ATOM     17  C   UNL     1       3.458   6.414   0.109  0.00  0.00    +0.137 A 
ATOM     18  C   UNL     1       3.440   7.791   0.062  0.00  0.00    +0.082 A 
ATOM     19  C   UNL     1       2.234   8.472  -0.029  0.00  0.00    +0.168 A 
ATOM     20  C   UNL     1       1.031   7.763  -0.072  0.00  0.00    +0.167 A 
ATOM     21  O   UNL     1       0.003   8.657  -0.159  0.00  0.00    -0.453 OA
ATOM     22  C   UNL     1       0.604   9.895  -0.581  0.00  0.00    +0.466 C 
ATOM     23  O   UNL     1       1.954   9.805  -0.089  0.00  0.00    -0.453 OA
BRANCH  17  24
ATOM     24  N   UNL     1       4.748   5.694   0.206  0.00  0.00    +0.057 N 
ATOM     25  O   UNL     1       5.650   6.148   0.886  0.00  0.00    -0.126 OA
ATOM     26  O   UNL     1       4.907   4.646  -0.395  0.00  0.00    -0.126 OA
ENDBRANCH  17  24
ENDBRANCH   1  16
TORSDOF 3
