REMARK  Name = ZINC66160283
REMARK  9 active torsions:
REMARK  status: ('A' for Active; 'I' for Inactive)
REMARK    1  A    between atoms: C_1  and  C_2
REMARK    2  A    between atoms: C_2  and  C_3
REMARK    3  A    between atoms: C_3  and  C_4
REMARK    4  A    between atoms: C_3  and  C_5
REMARK    5  A    between atoms: C_3  and  O_26
REMARK    6  A    between atoms: C_5  and  N_6
REMARK    7  A    between atoms: N_9  and  C_10
REMARK    8  A    between atoms: C_13  and  C_16
REMARK    9  A    between atoms: C_23  and  C_25
REMARK                            x       y       z     vdW  Elec       q    Type
REMARK                         _______ _______ _______ _____ _____    ______ ____
ROOT
ATOM      1  C   UNL     1       2.085  -5.689  -4.530  0.00  0.00    +0.035 A 
ATOM      2  C   UNL     1       1.123  -6.692  -4.477  0.00  0.00    +0.024 A 
ATOM      3  C   UNL     1       1.500  -8.014  -4.556  0.00  0.00    +0.015 A 
ATOM      4  C   UNL     1       2.850  -8.347  -4.692  0.00  0.00    +0.037 A 
ATOM      5  C   UNL     1       3.814  -7.337  -4.745  0.00  0.00    +0.015 A 
ATOM      6  C   UNL     1       3.430  -6.017  -4.670  0.00  0.00    +0.024 A 
ENDROOT
BRANCH   4   7
ATOM      7  C   UNL     1       3.258  -9.763  -4.777  0.00  0.00    +0.247 C 
ATOM      8  O   UNL     1       2.696 -10.600  -4.096  0.00  0.00    -0.270 OA
ATOM      9  N   UNL     1       4.253 -10.129  -5.610  0.00  0.00    -0.295 N 
ATOM     10  C   UNL     1       4.862  -9.152  -6.523  0.00  0.00    +0.108 C 
ATOM     11  C   UNL     1       4.808  -9.709  -7.949  0.00  0.00    +0.019 C 
ATOM     12  C   UNL     1       5.464 -11.091  -7.978  0.00  0.00    +0.003 C 
ATOM     13  C   UNL     1       4.695 -12.043  -7.058  0.00  0.00    +0.022 C 
ATOM     14  C   UNL     1       4.752 -11.511  -5.618  0.00  0.00    +0.073 C 
ATOM     15  C   UNL     1       3.875 -12.378  -4.713  0.00  0.00    +0.028 C 
ENDBRANCH   4   7
BRANCH   1  19
ATOM     16  N   UNL     1       0.356  -2.691  -3.507  0.00  0.00    -0.296 N 
ATOM     17  C   UNL     1       0.671  -3.993  -3.656  0.00  0.00    +0.304 C 
ATOM     18  O   UNL     1       0.027  -4.845  -3.074  0.00  0.00    -0.253 OA
ATOM     19  N   UNL     1       1.700  -4.351  -4.449  0.00  0.00    -0.269 N 
ATOM     20  H   UNL     1       0.870  -2.012  -3.971  0.00  0.00    +0.150 HD
ATOM     21  H   UNL     1       2.174  -3.678  -4.963  0.00  0.00    +0.156 HD
BRANCH  16  22
ATOM     22  C   UNL     1      -0.763  -2.302  -2.646  0.00  0.00    +0.140 C 
BRANCH  22  23
ATOM     23  C   UNL     1      -0.906  -0.779  -2.652  0.00  0.00    +0.078 C 
ATOM     24  C   UNL     1       0.424  -0.140  -2.250  0.00  0.00    +0.043 C 
BRANCH  23  26
ATOM     25  C   UNL     1      -2.135   1.159  -1.664  0.00  0.00    +0.007 C 
ATOM     26  C   UNL     1      -1.992  -0.364  -1.658  0.00  0.00    +0.032 C 
ENDBRANCH  23  26
BRANCH  23  27
ATOM     27  O   UNL     1      -1.268  -0.340  -3.963  0.00  0.00    -0.387 OA
ATOM     28  H   UNL     1      -2.104  -0.706  -4.284  0.00  0.00    +0.210 HD
ENDBRANCH  23  27
ENDBRANCH  22  23
ENDBRANCH  16  22
ENDBRANCH   1  19
TORSDOF 6
