REMARK  Name = ZINC40348976
REMARK  5 active torsions:
REMARK  status: ('A' for Active; 'I' for Inactive)
REMARK    1  A    between atoms: C_1  and  N_2
REMARK    2  A    between atoms: C_4  and  N_9
REMARK    3  A    between atoms: N_9  and  S_10
REMARK    4  A    between atoms: S_10  and  C_13
REMARK    5  A    between atoms: C_16  and  N_20
REMARK                            x       y       z     vdW  Elec       q    Type
REMARK                         _______ _______ _______ _____ _____    ______ ____
ROOT
ATOM      1  S   UNL     1      -2.396  -4.406  -0.010  0.00  0.00    +0.094 S 
ATOM      2  O   UNL     1      -1.852  -4.807  -1.260  0.00  0.00    -0.148 OA
ATOM      3  O   UNL     1      -1.839  -4.820   1.230  0.00  0.00    -0.148 OA
ENDROOT
BRANCH   1   4
ATOM      4  C   UNL     1      -4.080  -4.924  -0.004  0.00  0.00    +0.147 A 
ATOM      5  C   UNL     1      -4.735  -5.128   1.198  0.00  0.00    +0.071 A 
ATOM      6  C   UNL     1      -6.056  -5.535   1.205  0.00  0.00    +0.044 A 
ATOM      7  C   UNL     1      -6.726  -5.737   0.005  0.00  0.00    +0.027 A 
ATOM      8  C   UNL     1      -6.066  -5.532  -1.199  0.00  0.00    +0.044 A 
ATOM      9  C   UNL     1      -4.746  -5.121  -1.201  0.00  0.00    +0.071 A 
ATOM     10 CL   UNL     1      -3.922  -4.857  -2.706  0.00  0.00    -0.081 Cl
ATOM     11 CL   UNL     1      -3.897  -4.874   2.697  0.00  0.00    -0.081 Cl
BRANCH   7  12
ATOM     12  N   UNL     1      -8.061  -6.149   0.010  0.00  0.00    -0.358 N 
ATOM     13  H   UNL     1      -8.521  -6.292   0.852  0.00  0.00    +0.142 HD
ATOM     14  H   UNL     1      -8.528  -6.290  -0.828  0.00  0.00    +0.142 HD
ENDBRANCH   7  12
ENDBRANCH   1   4
BRANCH   1  15
ATOM     15  N   UNL     1      -2.392  -2.750  -0.001  0.00  0.00    -0.096 NA
BRANCH  15  19
ATOM     16  C   UNL     1      -0.018   1.461   0.010  0.00  0.00    +0.152 C 
ATOM     17  N   UNL     1       0.002  -0.004   0.002  0.00  0.00    -0.316 N 
ATOM     18  C   UNL     1      -1.171  -0.692   0.004  0.00  0.00    +0.115 A 
ATOM     19  C   UNL     1      -1.176  -2.051  -0.003  0.00  0.00    +0.091 A 
ATOM     20  C   UNL     1       0.041  -2.755  -0.013  0.00  0.00    +0.033 A 
ATOM     21  C   UNL     1       1.214  -2.058  -0.015  0.00  0.00    +0.072 A 
ATOM     22  C   UNL     1       1.181  -0.653  -0.013  0.00  0.00    +0.251 A 
ATOM     23  O   UNL     1       2.225  -0.020  -0.020  0.00  0.00    -0.268 OA
ENDBRANCH  15  19
ENDBRANCH   1  15
TORSDOF 4
