REMARK  Name = ZINC59294000
REMARK  9 active torsions:
REMARK  status: ('A' for Active; 'I' for Inactive)
REMARK    1  A    between atoms: C_1  and  O_2
REMARK    2  A    between atoms: O_2  and  C_3
REMARK    3  A    between atoms: C_3  and  C_5
REMARK    4  A    between atoms: C_6  and  N_39
REMARK    5  A    between atoms: C_11  and  C_12
REMARK    6  A    between atoms: C_20  and  C_29
REMARK    7  A    between atoms: C_21  and  C_23
REMARK    8  A    between atoms: N_31  and  C_32
REMARK    9  A    between atoms: C_32  and  C_33
REMARK                            x       y       z     vdW  Elec       q    Type
REMARK                         _______ _______ _______ _____ _____    ______ ____
ROOT
ATOM      1  C   UNL     1      -0.443  -2.241  -2.198  0.00  0.00    +0.087 C 
ATOM      2  C   UNL     1       0.381  -2.918  -3.033  0.00  0.00    +0.115 C 
ATOM      3  N   UNL     1       0.631  -4.290  -2.931  0.00  0.00    -0.257 N 
ATOM      4  C   UNL     1       1.453  -4.954  -3.768  0.00  0.00    +0.271 A 
ATOM      5  O   UNL     1       2.027  -4.372  -4.669  0.00  0.00    -0.266 OA
ATOM      6  C   UNL     1       1.640  -6.396  -3.565  0.00  0.00    +0.079 A 
ATOM      7  C   UNL     1       2.405  -7.272  -4.263  0.00  0.00    +0.028 C 
ATOM      8  S   UNL     1       0.590  -6.685  -2.150  0.00  0.00    -0.065 S 
ATOM      9  C   UNL     1       0.013  -5.014  -1.931  0.00  0.00    +0.099 A 
ATOM     10  C   UNL     1      -0.839  -4.484  -1.015  0.00  0.00    +0.057 C 
ATOM     11  C   UNL     1      -1.135  -2.998  -1.083  0.00  0.00    +0.097 C 
ENDROOT
BRANCH   7  12
ATOM     12  C   UNL     1       2.296  -8.714  -4.001  0.00  0.00    -0.024 A 
ATOM     13  C   UNL     1       1.274  -9.205  -3.180  0.00  0.00    +0.008 A 
ATOM     14  C   UNL     1       1.179 -10.559  -2.939  0.00  0.00    +0.001 A 
ATOM     15  C   UNL     1       2.092 -11.432  -3.505  0.00  0.00    +0.000 A 
ATOM     16  C   UNL     1       3.106 -10.955  -4.317  0.00  0.00    +0.001 A 
ATOM     17  C   UNL     1       3.211  -9.605  -4.574  0.00  0.00    +0.008 A 
ENDBRANCH   7  12
BRANCH  11  18
ATOM     18  C   UNL     1      -2.623  -2.826  -1.248  0.00  0.00    -0.035 A 
ATOM     19  C   UNL     1      -3.245  -3.262  -2.403  0.00  0.00    +0.004 A 
ATOM     20  C   UNL     1      -4.610  -3.104  -2.554  0.00  0.00    +0.000 A 
ATOM     21  C   UNL     1      -5.353  -2.510  -1.551  0.00  0.00    +0.000 A 
ATOM     22  C   UNL     1      -4.731  -2.075  -0.396  0.00  0.00    +0.000 A 
ATOM     23  C   UNL     1      -3.366  -2.237  -0.243  0.00  0.00    +0.004 A 
ENDBRANCH  11  18
BRANCH  10  24
ATOM     24  C   UNL     1      -1.427  -5.290  -0.027  0.00  0.00    +0.244 C 
ATOM     25  O   UNL     1      -1.174  -6.482   0.016  0.00  0.00    -0.270 OA
ATOM     26  N   UNL     1      -2.270  -4.747   0.873  0.00  0.00    -0.307 N 
ATOM     27  H   UNL     1      -2.471  -3.799   0.838  0.00  0.00    +0.149 HD
BRANCH  26  28
ATOM     28  C   UNL     1      -2.883  -5.588   1.904  0.00  0.00    +0.139 C 
BRANCH  28  29
ATOM     29  C   UNL     1      -3.776  -4.744   2.776  0.00  0.00    -0.030 A 
ATOM     30  C   UNL     1      -3.262  -4.130   3.902  0.00  0.00    +0.005 A 
ATOM     31  C   UNL     1      -4.081  -3.356   4.702  0.00  0.00    +0.000 A 
ATOM     32  C   UNL     1      -5.415  -3.195   4.375  0.00  0.00    +0.000 A 
ATOM     33  C   UNL     1      -5.929  -3.808   3.248  0.00  0.00    +0.000 A 
ATOM     34  C   UNL     1      -5.108  -4.579   2.446  0.00  0.00    +0.005 A 
ENDBRANCH  28  29
ENDBRANCH  26  28
ENDBRANCH  10  24
BRANCH   2  35
ATOM     35  N   UNL     1       1.004  -2.220  -4.033  0.00  0.00    -0.344 N 
ATOM     36  H   UNL     1       1.328  -1.321  -3.868  0.00  0.00    +0.144 HD
ATOM     37  H   UNL     1       1.122  -2.625  -4.907  0.00  0.00    +0.144 HD
ENDBRANCH   2  35
BRANCH   1  38
ATOM     38  C   UNL     1      -0.648  -0.862  -2.360  0.00  0.00    +0.339 C 
ATOM     39  O   UNL     1      -0.146  -0.279  -3.304  0.00  0.00    -0.245 OA
BRANCH  38  41
ATOM     40  C   UNL     1      -1.567   1.219  -1.695  0.00  0.00    +0.280 C 
ATOM     41  O   UNL     1      -1.401  -0.182  -1.468  0.00  0.00    -0.465 OA
ENDBRANCH  38  41
ENDBRANCH   1  38
TORSDOF 8
