REMARK  Name = ZINC16920072
REMARK  12 active torsions:
REMARK  status: ('A' for Active; 'I' for Inactive)
REMARK    1  A    between atoms: C_1  and  C_2
REMARK    2  A    between atoms: C_2  and  C_4
REMARK    3  A    between atoms: C_2  and  N_54
REMARK    4  A    between atoms: C_7  and  S_16
REMARK    5  A    between atoms: N_8  and  C_9
REMARK    6  A    between atoms: S_16  and  C_17
REMARK    7  A    between atoms: C_17  and  C_19
REMARK    8  A    between atoms: C_17  and  C_20
REMARK    9  A    between atoms: N_22  and  C_23
REMARK   10  A    between atoms: C_26  and  C_30
REMARK   11  A    between atoms: C_32  and  N_54
REMARK   12  A    between atoms: C_33  and  N_54
REMARK                            x       y       z     vdW  Elec       q    Type
REMARK                         _______ _______ _______ _____ _____    ______ ____
ROOT
ATOM      1  C   UNL     1       0.037   1.554  -0.401  0.00  0.00    +0.125 A 
ATOM      2  N   UNL     1      -1.027   2.280  -0.205  0.00  0.00    -0.135 NA
ATOM      3  N   UNL     1      -0.712   3.525  -0.170  0.00  0.00    -0.122 NA
ATOM      4  C   UNL     1       0.580   3.666  -0.352  0.00  0.00    +0.197 A 
ATOM      5  N   UNL     1       1.101   2.410  -0.505  0.00  0.00    -0.275 N 
ENDROOT
BRANCH   5   6
ATOM      6  C   UNL     1       2.445   2.071  -0.725  0.00  0.00    +0.050 A 
ATOM      7  C   UNL     1       3.145   1.349   0.233  0.00  0.00    +0.028 A 
ATOM      8  C   UNL     1       4.466   1.012   0.012  0.00  0.00    +0.022 A 
ATOM      9  C   UNL     1       5.095   1.402  -1.157  0.00  0.00    +0.041 A 
ATOM     10  C   UNL     1       4.400   2.125  -2.111  0.00  0.00    +0.022 A 
ATOM     11  C   UNL     1       3.077   2.460  -1.897  0.00  0.00    +0.028 A 
ATOM     12 CL   UNL     1       6.757   0.982  -1.429  0.00  0.00    -0.084 Cl
ENDBRANCH   5   6
BRANCH   1  14
ATOM     13  C   UNL     1      -0.468  -0.390  -1.856  0.00  0.00    -0.005 C 
ATOM     14  C   UNL     1       0.088   0.051  -0.500  0.00  0.00    -0.003 C 
BRANCH  14  17
ATOM     15  C   UNL     1      -2.145  -0.223   0.395  0.00  0.00    -0.096 C 
ATOM     16  C   UNL     1      -0.510  -1.989   0.659  0.00  0.00    -0.096 C 
ATOM     17  N   UNL     1      -0.713  -0.527   0.600  0.00  0.00    +0.382 N 
ATOM     18  H   UNL     1      -0.408  -0.111   1.488  0.00  0.00    -0.082 HD
ENDBRANCH  14  17
ENDBRANCH   1  14
BRANCH   4  19
ATOM     19  S   UNL     1       1.474   5.183  -0.392  0.00  0.00    -0.073 S 
BRANCH  19  20
ATOM     20  C   UNL     1       0.120   6.353  -0.120  0.00  0.00    +0.137 C 
ATOM     21  C   UNL     1      -0.847   6.298  -1.305  0.00  0.00    +0.029 C 
BRANCH  20  22
ATOM     22  C   UNL     1       0.679   7.747   0.007  0.00  0.00    +0.230 C 
ATOM     23  O   UNL     1       1.744   8.023  -0.503  0.00  0.00    -0.274 OA
ATOM     24  N   UNL     1      -0.006   8.688   0.688  0.00  0.00    -0.285 N 
ATOM     25  H   UNL     1      -0.892   8.490   1.030  0.00  0.00    +0.155 HD
BRANCH  24  26
ATOM     26  C   UNL     1       0.560   9.945   0.901  0.00  0.00    +0.035 A 
ATOM     27  C   UNL     1       1.934  10.066   1.082  0.00  0.00    +0.024 A 
ATOM     28  C   UNL     1       2.498  11.306   1.287  0.00  0.00    +0.022 A 
ATOM     29  C   UNL     1       1.686  12.443   1.325  0.00  0.00    +0.070 A 
ATOM     30  C   UNL     1       0.304  12.318   1.148  0.00  0.00    +0.060 A 
ATOM     31  C   UNL     1      -0.252  11.073   0.937  0.00  0.00    +0.044 A 
ATOM     32 CL   UNL     1      -0.710  13.726   1.195  0.00  0.00    -0.082 Cl
BRANCH  29  33
ATOM     33  C   UNL     1       2.267  13.733   1.544  0.00  0.00    +0.101 C 
ATOM     34  N   UNL     1       2.728  14.757   1.719  0.00  0.00    -0.191 NA
ENDBRANCH  29  33
ENDBRANCH  24  26
ENDBRANCH  20  22
ENDBRANCH  19  20
ENDBRANCH   4  19
TORSDOF 8
