REMARK  Name = ZINC46280322
REMARK  11 active torsions:
REMARK  status: ('A' for Active; 'I' for Inactive)
REMARK    1  A    between atoms: C_1  and  C_2
REMARK    2  A    between atoms: C_2  and  N_3
REMARK    3  A    between atoms: N_3  and  C_4
REMARK    4  A    between atoms: N_3  and  C_6
REMARK    5  A    between atoms: C_4  and  C_5
REMARK    6  A    between atoms: C_6  and  C_8
REMARK    7  A    between atoms: C_6  and  C_9
REMARK    8  A    between atoms: C_9  and  N_10
REMARK    9  A    between atoms: N_13  and  N_14
REMARK   10  A    between atoms: C_15  and  C_17
REMARK   11  A    between atoms: N_21  and  C_22
REMARK                            x       y       z     vdW  Elec       q    Type
REMARK                         _______ _______ _______ _____ _____    ______ ____
ROOT
ATOM      1  N   UNL     1       1.180  -2.883   0.015  0.00  0.00    -0.300 N 
ATOM      2  C   UNL     1       1.889  -3.115   1.137  0.00  0.00    +0.316 C 
ATOM      3  O   UNL     1       1.578  -4.030   1.874  0.00  0.00    -0.251 OA
ATOM      4  N   UNL     1       2.942  -2.331   1.443  0.00  0.00    -0.218 N 
ATOM      5  H   UNL     1       1.475  -2.207  -0.615  0.00  0.00    +0.150 HD
ATOM      6  H   UNL     1       3.505  -2.550   2.201  0.00  0.00    +0.174 HD
ENDROOT
BRANCH   4   7
ATOM      7  N   UNL     1       3.223  -1.201   0.664  0.00  0.00    -0.228 N 
ATOM      8  C   UNL     1       4.332  -0.474   0.907  0.00  0.00    +0.277 C 
ATOM      9  O   UNL     1       5.070  -0.779   1.825  0.00  0.00    -0.267 OA
ATOM     10  H   UNL     1       2.620  -0.941  -0.049  0.00  0.00    +0.173 HD
BRANCH   8  11
ATOM     11  C   UNL     1       4.650   0.683   0.064  0.00  0.00    +0.107 A 
ATOM     12  C   UNL     1       5.909   1.182  -0.195  0.00  0.00    +0.047 A 
ATOM     13  C   UNL     1       5.749   2.284  -1.042  0.00  0.00    +0.036 A 
ATOM     14  C   UNL     1       4.424   2.435  -1.281  0.00  0.00    +0.101 A 
ATOM     15  N   UNL     1       3.746   1.465  -0.619  0.00  0.00    -0.345 N 
ATOM     16  C   UNL     1       2.292   1.281  -0.626  0.00  0.00    +0.149 C 
ATOM     17 BR   UNL     1       7.136   3.370  -1.730  0.00  0.00    -0.049 Br
ENDBRANCH   8  11
ENDBRANCH   4   7
BRANCH   1  18
ATOM     18  C   UNL     1      -0.038  -3.652  -0.254  0.00  0.00    +0.090 C 
BRANCH  18  19
ATOM     19  C   UNL     1      -0.594  -3.263  -1.625  0.00  0.00    -0.054 C 
ATOM     20  C   UNL     1      -1.749  -4.198  -1.991  0.00  0.00    -0.012 C 
BRANCH  19  21
ATOM     21  N   UNL     1      -1.081  -1.878  -1.581  0.00  0.00    +0.382 N 
ATOM     22  H   UNL     1      -1.998  -1.830  -2.001  0.00  0.00    -0.081 HD
BRANCH  21  24
ATOM     23  C   UNL     1      -1.795  -0.040  -0.129  0.00  0.00    -0.017 C 
ATOM     24  C   UNL     1      -1.158  -1.430  -0.184  0.00  0.00    -0.082 C 
ENDBRANCH  21  24
BRANCH  21  25
ATOM     25  C   UNL     1      -0.157  -1.010  -2.324  0.00  0.00    -0.082 C 
ATOM     26  C   UNL     1      -0.115  -1.446  -3.790  0.00  0.00    -0.017 C 
ENDBRANCH  21  25
ENDBRANCH  19  21
ENDBRANCH  18  19
ENDBRANCH   1  18
TORSDOF 7
