REMARK  Name = ZINC10191126
REMARK  10 active torsions:
REMARK  status: ('A' for Active; 'I' for Inactive)
REMARK    1  A    between atoms: C_1  and  C_2
REMARK    2  A    between atoms: C_6  and  N_8
REMARK    3  A    between atoms: N_8  and  S_9
REMARK    4  A    between atoms: S_9  and  C_12
REMARK    5  A    between atoms: C_15  and  C_30
REMARK    6  A    between atoms: C_16  and  C_18
REMARK    7  A    between atoms: C_18  and  O_20
REMARK    8  A    between atoms: O_20  and  C_21
REMARK    9  A    between atoms: C_21  and  C_23
REMARK   10  A    between atoms: C_21  and  C_24
REMARK                            x       y       z     vdW  Elec       q    Type
REMARK                         _______ _______ _______ _____ _____    ______ ____
ROOT
ATOM      1  C   UNL     1       2.417   0.099   0.215  0.00  0.00    +0.109 A 
ATOM      2  C   UNL     1       2.354   1.456  -0.047  0.00  0.00    +0.029 A 
ATOM      3  C   UNL     1       1.133   2.068  -0.268  0.00  0.00    +0.006 A 
ATOM      4  C   UNL     1      -0.030   1.328  -0.228  0.00  0.00    -0.036 A 
ATOM      5  C   UNL     1       0.026  -0.042   0.036  0.00  0.00    +0.064 A 
ATOM      6  C   UNL     1       1.262  -0.653   0.258  0.00  0.00    +0.044 A 
ATOM      7  C   UNL     1      -1.359   1.996  -0.474  0.00  0.00    +0.044 C 
ENDROOT
BRANCH   1   8
ATOM      8  S   UNL     1       3.977  -0.671   0.494  0.00  0.00    +0.072 S 
ATOM      9  O   UNL     1       4.860   0.350   0.939  0.00  0.00    -0.150 OA
ATOM     10  O   UNL     1       3.722  -1.843   1.256  0.00  0.00    -0.150 OA
BRANCH   8  11
ATOM     11  N   UNL     1       4.543  -1.178  -0.977  0.00  0.00    -0.216 N 
ATOM     12  H   UNL     1       4.653  -2.125  -1.155  0.00  0.00    +0.174 HD
BRANCH  11  18
ATOM     13  C   UNL     1       4.321   0.271  -5.668  0.00  0.00    +0.044 C 
ATOM     14  C   UNL     1       4.769   0.487  -4.246  0.00  0.00    -0.049 A 
ATOM     15  C   UNL     1       5.499   1.614  -3.915  0.00  0.00    +0.003 A 
ATOM     16  C   UNL     1       5.912   1.816  -2.611  0.00  0.00    +0.002 A 
ATOM     17  C   UNL     1       5.596   0.892  -1.634  0.00  0.00    +0.024 A 
ATOM     18  C   UNL     1       4.864  -0.241  -1.963  0.00  0.00    +0.048 A 
ATOM     19  C   UNL     1       4.454  -0.443  -3.275  0.00  0.00    +0.027 A 
ENDBRANCH  11  18
ENDBRANCH   8  11
ENDBRANCH   1   8
BRANCH   5  20
ATOM     20  C   UNL     1      -1.216  -0.840   0.081  0.00  0.00    +0.340 C 
ATOM     21  O   UNL     1      -2.296  -0.290  -0.002  0.00  0.00    -0.245 OA
BRANCH  20  22
ATOM     22  O   UNL     1      -1.151  -2.179   0.212  0.00  0.00    -0.449 OA
BRANCH  22  23
ATOM     23  C   UNL     1      -2.411  -2.900   0.248  0.00  0.00    +0.259 C 
ATOM     24  C   UNL     1      -2.892  -3.014   1.696  0.00  0.00    +0.062 C 
BRANCH  23  25
ATOM     25  C   UNL     1      -2.217  -4.280  -0.327  0.00  0.00    +0.261 C 
ATOM     26  O   UNL     1      -1.109  -4.654  -0.643  0.00  0.00    -0.271 OA
ATOM     27  N   UNL     1      -3.277  -5.097  -0.489  0.00  0.00    -0.237 N 
ATOM     28  C   UNL     1      -3.104  -6.330  -1.003  0.00  0.00    +0.303 C 
ATOM     29  O   UNL     1      -1.992  -6.706  -1.321  0.00  0.00    -0.253 OA
ATOM     30  N   UNL     1      -4.163  -7.148  -1.165  0.00  0.00    -0.313 N 
ATOM     31  H   UNL     1      -4.164  -4.797  -0.235  0.00  0.00    +0.159 HD
ATOM     32  H   UNL     1      -5.050  -6.848  -0.912  0.00  0.00    +0.146 HD
ATOM     33  H   UNL     1      -4.038  -8.036  -1.536  0.00  0.00    +0.146 HD
ENDBRANCH  23  25
ENDBRANCH  22  23
ENDBRANCH  20  22
ENDBRANCH   5  20
TORSDOF 7
