REMARK  Name = ZINC00711280
REMARK  8 active torsions:
REMARK  status: ('A' for Active; 'I' for Inactive)
REMARK    1  A    between atoms: C_1  and  C_2
REMARK    2  A    between atoms: C_2  and  C_3
REMARK    3  A    between atoms: C_6  and  C_26
REMARK    4  A    between atoms: C_13  and  O_14
REMARK    5  A    between atoms: O_14  and  C_15
REMARK    6  A    between atoms: C_15  and  C_16
REMARK    7  A    between atoms: N_18  and  C_19
REMARK    8  A    between atoms: C_22  and  C_25
REMARK                            x       y       z     vdW  Elec       q    Type
REMARK                         _______ _______ _______ _____ _____    ______ ____
ROOT
ATOM      1  C   UNL     1      -0.748   1.611   3.561  0.00  0.00    -0.005 A 
ATOM      2  C   UNL     1      -0.224   1.254   4.770  0.00  0.00    +0.019 A 
ATOM      3  C   UNL     1       0.934   0.471   4.822  0.00  0.00    +0.021 A 
ATOM      4  C   UNL     1       1.522   0.078   6.104  0.00  0.00    -0.033 A 
ATOM      5  C   UNL     1       2.647  -0.683   6.089  0.00  0.00    +0.096 A 
ATOM      6  C   UNL     1       3.213  -1.072   4.857  0.00  0.00    +0.337 A 
ATOM      7  O   UNL     1       4.222  -1.755   4.858  0.00  0.00    -0.245 OA
ATOM      8  O   UNL     1       2.670  -0.708   3.685  0.00  0.00    -0.422 OA
ATOM      9  C   UNL     1       1.553   0.048   3.630  0.00  0.00    +0.143 A 
ATOM     10  C   UNL     1       1.004   0.414   2.411  0.00  0.00    +0.093 A 
ATOM     11  C   UNL     1      -0.143   1.190   2.378  0.00  0.00    +0.128 A 
ATOM     12  C   UNL     1       0.896   0.507   7.406  0.00  0.00    +0.045 C 
ENDROOT
BRANCH   1  14
ATOM     13  C   UNL     1      -3.220   1.556   3.368  0.00  0.00    +0.009 C 
ATOM     14  C   UNL     1      -1.993   2.459   3.505  0.00  0.00    +0.035 C 
ENDBRANCH   1  14
BRANCH  11  15
ATOM     15  O   UNL     1      -0.679   1.549   1.184  0.00  0.00    -0.482 OA
BRANCH  15  16
ATOM     16  C   UNL     1      -0.009   1.091   0.008  0.00  0.00    +0.324 C 
BRANCH  16  17
ATOM     17  C   UNL     1      -0.743   1.583  -1.213  0.00  0.00    +0.255 C 
ATOM     18  O   UNL     1      -1.742   2.260  -1.088  0.00  0.00    -0.272 OA
ATOM     19  N   UNL     1      -0.288   1.272  -2.443  0.00  0.00    -0.283 N 
ATOM     20  H   UNL     1       0.546   0.789  -2.544  0.00  0.00    +0.155 HD
BRANCH  19  21
ATOM     21  C   UNL     1      -1.022   1.646  -3.575  0.00  0.00    +0.034 A 
ATOM     22  C   UNL     1      -1.045   0.822  -4.692  0.00  0.00    +0.023 A 
ATOM     23  C   UNL     1      -1.774   1.192  -5.806  0.00  0.00    +0.005 A 
ATOM     24  C   UNL     1      -2.471   2.386  -5.812  0.00  0.00    -0.050 A 
ATOM     25  C   UNL     1      -2.445   3.212  -4.703  0.00  0.00    +0.005 A 
ATOM     26  C   UNL     1      -1.722   2.845  -3.585  0.00  0.00    +0.023 A 
ATOM     27  C   UNL     1      -3.260   2.789  -7.031  0.00  0.00    +0.044 C 
ENDBRANCH  19  21
ENDBRANCH  16  17
ENDBRANCH  15  16
ENDBRANCH  11  15
TORSDOF 5
