REMARK  Name = ZINC65833779
REMARK  9 active torsions:
REMARK  status: ('A' for Active; 'I' for Inactive)
REMARK    1  A    between atoms: C_1  and  C_2
REMARK    2  A    between atoms: C_5  and  C_8
REMARK    3  A    between atoms: C_9  and  S_10
REMARK    4  A    between atoms: S_10  and  N_13
REMARK    5  A    between atoms: N_13  and  C_14
REMARK    6  A    between atoms: N_17  and  C_19
REMARK    7  A    between atoms: C_19  and  C_20
REMARK    8  A    between atoms: C_19  and  C_21
REMARK    9  A    between atoms: C_19  and  C_22
REMARK                            x       y       z     vdW  Elec       q    Type
REMARK                         _______ _______ _______ _____ _____    ______ ____
ROOT
ATOM      1  S   UNL     1       0.098  -6.682   1.113  0.00  0.00    +0.066 S 
ATOM      2  O   UNL     1      -0.917  -7.106   2.012  0.00  0.00    -0.151 OA
ATOM      3  O   UNL     1       0.123  -7.080  -0.251  0.00  0.00    -0.151 OA
ENDROOT
BRANCH   1   5
ATOM      4  C   UNL     1       0.060  -4.251  -0.021  0.00  0.00    +0.028 C 
ATOM      5  C   UNL     1       0.074  -4.920   1.123  0.00  0.00    +0.157 C 
BRANCH   4  10
ATOM      6  C   UNL     1      -0.018   1.503   0.010  0.00  0.00    +0.044 C 
ATOM      7  C   UNL     1       0.002  -0.004   0.002  0.00  0.00    -0.050 A 
ATOM      8  C   UNL     1       0.006  -0.686  -1.202  0.00  0.00    +0.004 A 
ATOM      9  C   UNL     1       0.024  -2.066  -1.216  0.00  0.00    +0.008 A 
ATOM     10  C   UNL     1       0.040  -2.773  -0.013  0.00  0.00    -0.024 A 
ATOM     11  C   UNL     1       0.037  -2.079   1.197  0.00  0.00    +0.008 A 
ATOM     12  C   UNL     1       0.023  -0.699   1.198  0.00  0.00    +0.004 A 
ENDBRANCH   4  10
ENDBRANCH   1   5
BRANCH   1  13
ATOM     13  N   UNL     1       1.542  -7.156   1.772  0.00  0.00    -0.214 N 
ATOM     14  H   UNL     1       2.192  -7.627   1.227  0.00  0.00    +0.174 HD
BRANCH  13  15
ATOM     15  C   UNL     1       1.825  -6.875   3.122  0.00  0.00    +0.085 A 
ATOM     16  C   UNL     1       1.600  -5.656   3.777  0.00  0.00    +0.158 A 
ATOM     17  N   UNL     1       1.988  -5.778   5.021  0.00  0.00    -0.177 NA
ATOM     18  N   UNL     1       2.475  -7.079   5.205  0.00  0.00    -0.264 N 
ATOM     19  C   UNL     1       2.360  -7.739   4.022  0.00  0.00    +0.133 A 
BRANCH  18  20
ATOM     20  C   UNL     1       3.009  -7.631   6.452  0.00  0.00    +0.055 C 
ATOM     21  C   UNL     1       4.534  -7.722   6.359  0.00  0.00    +0.036 C 
ATOM     22  C   UNL     1       2.623  -6.720   7.620  0.00  0.00    +0.036 C 
ATOM     23  C   UNL     1       2.428  -9.028   6.682  0.00  0.00    +0.036 C 
ENDBRANCH  18  20
ENDBRANCH  13  15
ENDBRANCH   1  13
TORSDOF 5
