REMARK  Name = ZINC12781815
REMARK  9 active torsions:
REMARK  status: ('A' for Active; 'I' for Inactive)
REMARK    1  A    between atoms: C_1  and  C_2
REMARK    2  A    between atoms: C_2  and  C_3
REMARK    3  A    between atoms: C_2  and  C_4
REMARK    4  A    between atoms: C_2  and  C_5
REMARK    5  A    between atoms: C_8  and  C_11
REMARK    6  A    between atoms: N_13  and  N_14
REMARK    7  A    between atoms: C_15  and  C_17
REMARK    8  A    between atoms: C_18  and  S_22
REMARK    9  A    between atoms: S_22  and  N_25
REMARK                            x       y       z     vdW  Elec       q    Type
REMARK                         _______ _______ _______ _____ _____    ______ ____
ROOT
ATOM      1  N   UNL     1       2.608  -3.987   0.038  0.00  0.00    -0.230 N 
ATOM      2  C   UNL     1       3.735  -4.726   0.019  0.00  0.00    +0.269 C 
ATOM      3  O   UNL     1       4.807  -4.207   0.267  0.00  0.00    -0.268 OA
ATOM      4  H   UNL     1       1.753  -4.401  -0.160  0.00  0.00    +0.173 HD
ENDROOT
BRANCH   2   5
ATOM      5  C   UNL     1       3.669  -6.155  -0.301  0.00  0.00    +0.102 A 
ATOM      6  C   UNL     1       4.704  -7.058  -0.485  0.00  0.00    +0.125 A 
ATOM      7  C   UNL     1       4.359  -8.354  -0.776  0.00  0.00    +0.037 A 
ATOM      8  C   UNL     1       3.044  -8.683  -0.879  0.00  0.00    +0.048 A 
ATOM      9  S   UNL     1       2.235  -7.184  -0.563  0.00  0.00    -0.090 S 
BRANCH   6  10
ATOM     10  S   UNL     1       6.390  -6.565  -0.346  0.00  0.00    +0.062 S 
ATOM     11  O   UNL     1       6.556  -5.442  -1.201  0.00  0.00    -0.153 OA
ATOM     12  O   UNL     1       6.686  -6.515   1.043  0.00  0.00    -0.153 OA
BRANCH  10  13
ATOM     13  N   UNL     1       7.311  -7.785  -0.983  0.00  0.00    -0.172 NA
ATOM     14  C   UNL     1       7.918  -8.807  -0.116  0.00  0.00    +0.137 C 
ATOM     15  C   UNL     1       7.566 -10.190  -0.686  0.00  0.00    +0.177 C 
ATOM     16  O   UNL     1       7.928 -10.234  -2.068  0.00  0.00    -0.377 OA
ATOM     17  C   UNL     1       7.221  -9.301  -2.889  0.00  0.00    +0.177 C 
ATOM     18  C   UNL     1       7.551  -7.875  -2.432  0.00  0.00    +0.137 C 
ENDBRANCH  10  13
ENDBRANCH   6  10
ENDBRANCH   2   5
BRANCH   1  21
ATOM     19  C   UNL     1       1.544  -1.882   0.364  0.00  0.00    +0.260 C 
ATOM     20  O   UNL     1       0.473  -2.400   0.116  0.00  0.00    -0.269 OA
ATOM     21  N   UNL     1       2.671  -2.621   0.344  0.00  0.00    -0.230 N 
ATOM     22  H   UNL     1       3.526  -2.208   0.542  0.00  0.00    +0.173 HD
BRANCH  19  26
ATOM     23  C   UNL     1       1.736   2.259   1.292  0.00  0.00    -0.042 A 
ATOM     24  C   UNL     1       0.515   1.672   1.010  0.00  0.00    +0.005 A 
ATOM     25  C   UNL     1       0.446   0.328   0.707  0.00  0.00    +0.013 A 
ATOM     26  C   UNL     1       1.611  -0.441   0.686  0.00  0.00    +0.038 A 
ATOM     27  C   UNL     1       2.840   0.157   0.972  0.00  0.00    +0.013 A 
ATOM     28  C   UNL     1       2.895   1.503   1.273  0.00  0.00    +0.005 A 
BRANCH  23  30
ATOM     29  C   UNL     1       0.959   4.011   2.865  0.00  0.00    +0.015 C 
ATOM     30  C   UNL     1       1.804   3.728   1.622  0.00  0.00    -0.013 C 
ATOM     31  C   UNL     1       3.257   4.123   1.891  0.00  0.00    +0.015 C 
ATOM     32  C   UNL     1       1.265   4.540   0.443  0.00  0.00    +0.015 C 
ENDBRANCH  23  30
ENDBRANCH  19  26
ENDBRANCH   1  21
TORSDOF 6
