REMARK  Name = ZINC32103263
REMARK  7 active torsions:
REMARK  status: ('A' for Active; 'I' for Inactive)
REMARK    1  A    between atoms: C_1  and  C_2
REMARK    2  A    between atoms: C_2  and  C_3
REMARK    3  A    between atoms: C_2  and  C_4
REMARK    4  A    between atoms: C_2  and  N_5
REMARK    5  A    between atoms: C_12  and  O_14
REMARK    6  A    between atoms: N_21  and  C_24
REMARK    7  A    between atoms: C_24  and  C_25
REMARK                            x       y       z     vdW  Elec       q    Type
REMARK                         _______ _______ _______ _____ _____    ______ ____
ROOT
ATOM      1  N   UNL     1       0.688  -0.476  -1.203  0.00  0.00    -0.241 N 
ATOM      2  C   UNL     1       0.891  -1.765  -1.550  0.00  0.00    +0.159 A 
ATOM      3  C   UNL     1       1.584  -1.760  -2.755  0.00  0.00    +0.036 A 
ATOM      4  C   UNL     1       1.783  -0.443  -3.124  0.00  0.00    +0.141 A 
ATOM      5  N   UNL     1       1.246   0.330  -2.208  0.00  0.00    -0.177 NA
ATOM      6  C   UNL     1       1.990  -3.042  -3.426  0.00  0.00    +0.112 C 
ATOM      7  C   UNL     1       0.991  -4.133  -3.041  0.00  0.00    +0.121 C 
ATOM      8  C   UNL     1       0.621  -4.049  -1.588  0.00  0.00    +0.191 C 
ATOM      9  N   UNL     1       0.559  -2.933  -0.927  0.00  0.00    -0.198 NA
ATOM     10  C   UNL     1       3.385  -3.432  -3.061  0.00  0.00    -0.003 A 
ATOM     11  C   UNL     1       3.966  -3.725  -1.845  0.00  0.00    +0.045 A 
ATOM     12  C   UNL     1       5.318  -4.056  -1.854  0.00  0.00    +0.124 A 
ATOM     13  C   UNL     1       6.042  -4.088  -3.031  0.00  0.00    +0.040 A 
ATOM     14  C   UNL     1       5.464  -3.794  -4.256  0.00  0.00    +0.026 A 
ATOM     15  C   UNL     1       4.109  -3.461  -4.260  0.00  0.00    +0.041 A 
ATOM     16  N   UNL     1       3.288  -3.128  -5.325  0.00  0.00    -0.261 N 
ATOM     17  C   UNL     1       2.025  -2.866  -4.927  0.00  0.00    +0.236 C 
ATOM     18  O   UNL     1       1.095  -2.550  -5.639  0.00  0.00    -0.274 OA
ATOM     19  F   UNL     1       5.935  -4.351  -0.689  0.00  0.00    -0.205 F 
ENDROOT
BRANCH   1  21
ATOM     20  C   UNL     1      -0.019   1.526   0.010  0.00  0.00    +0.036 C 
ATOM     21  C   UNL     1       0.002  -0.004   0.002  0.00  0.00    +0.057 C 
ATOM     22  C   UNL     1       0.742  -0.511   1.242  0.00  0.00    +0.036 C 
ATOM     23  C   UNL     1      -1.433  -0.534   0.013  0.00  0.00    +0.036 C 
ENDBRANCH   1  21
BRANCH   8  24
ATOM     24  O   UNL     1       0.336  -5.194  -0.934  0.00  0.00    -0.495 OA
ATOM     25  H   UNL     1       0.105  -5.069  -0.004  0.00  0.00    +0.293 HD
ENDBRANCH   8  24
BRANCH  16  26
ATOM     26  C   UNL     1       3.738  -3.066  -6.718  0.00  0.00    +0.209 C 
BRANCH  26  27
ATOM     27  C   UNL     1       3.556  -4.415  -7.364  0.00  0.00    +0.228 C 
ATOM     28  O   UNL     1       3.095  -5.337  -6.725  0.00  0.00    -0.274 OA
ATOM     29  N   UNL     1       3.905  -4.597  -8.653  0.00  0.00    -0.328 N 
ATOM     30  H   UNL     1       4.273  -3.859  -9.165  0.00  0.00    +0.145 HD
ATOM     31  H   UNL     1       3.787  -5.465  -9.070  0.00  0.00    +0.145 HD
ENDBRANCH  26  27
ENDBRANCH  16  26
TORSDOF 4
