REMARK  Name = ZINC39738111
REMARK  4 active torsions:
REMARK  status: ('A' for Active; 'I' for Inactive)
REMARK    1  A    between atoms: C_1  and  C_2
REMARK    2  A    between atoms: C_7  and  C_8
REMARK    3  A    between atoms: C_7  and  C_9
REMARK    4  A    between atoms: C_11  and  C_12
REMARK                            x       y       z     vdW  Elec       q    Type
REMARK                         _______ _______ _______ _____ _____    ______ ____
ROOT
ATOM      1  C   UNL     1      -0.019   1.526   0.010  0.00  0.00    +0.020 C 
ATOM      2  C   UNL     1       0.002  -0.004   0.002  0.00  0.00    +0.036 C 
ATOM      3  C   UNL     1      -1.389  -0.708   0.058  0.00  0.00    +0.015 C 
ATOM      4  C   UNL     1      -1.071  -2.148   0.525  0.00  0.00    +0.010 C 
ATOM      5  C   UNL     1       0.478  -2.163   0.703  0.00  0.00    +0.029 C 
ATOM      6  C   UNL     1       0.727  -0.698   1.210  0.00  0.00    -0.016 C 
ATOM      7  C   UNL     1       0.014  -0.436   2.538  0.00  0.00    +0.012 C 
ATOM      8  C   UNL     1       2.212  -0.336   1.278  0.00  0.00    +0.012 C 
ATOM      9  C   UNL     1       1.026  -2.078  -0.729  0.00  0.00    +0.004 C 
ATOM     10  C   UNL     1       1.652  -3.051  -1.417  0.00  0.00    +0.075 C 
ATOM     11  C   UNL     1       0.736  -0.662  -1.175  0.00  0.00    +0.166 C 
ATOM     12  O   UNL     1       1.002  -0.157  -2.245  0.00  0.00    -0.292 OA
ENDROOT
BRANCH  10  13
ATOM     13  C   UNL     1       1.873  -4.371  -0.795  0.00  0.00    +0.245 C 
ATOM     14  O   UNL     1       1.489  -4.580   0.339  0.00  0.00    -0.270 OA
ATOM     15  N   UNL     1       2.499  -5.345  -1.484  0.00  0.00    -0.237 N 
ATOM     16  C   UNL     1       2.701  -6.550  -0.916  0.00  0.00    +0.304 C 
ATOM     17  O   UNL     1       2.317  -6.759   0.219  0.00  0.00    -0.253 OA
ATOM     18  N   UNL     1       3.327  -7.524  -1.605  0.00  0.00    -0.313 N 
ATOM     19  H   UNL     1       2.805  -5.178  -2.389  0.00  0.00    +0.159 HD
ATOM     20  H   UNL     1       3.633  -7.358  -2.510  0.00  0.00    +0.146 HD
ATOM     21  H   UNL     1       3.472  -8.392  -1.196  0.00  0.00    +0.146 HD
ENDBRANCH  10  13
TORSDOF 1
