REMARK  Name = ZINC47068643
REMARK  6 active torsions:
REMARK  status: ('A' for Active; 'I' for Inactive)
REMARK    1  A    between atoms: C_1  and  C_2
REMARK    2  A    between atoms: N_4  and  N_5
REMARK    3  A    between atoms: N_8  and  C_9
REMARK    4  A    between atoms: C_9  and  C_10
REMARK    5  A    between atoms: C_10  and  S_11
REMARK    6  A    between atoms: S_11  and  N_14
REMARK                            x       y       z     vdW  Elec       q    Type
REMARK                         _______ _______ _______ _____ _____    ______ ____
ROOT
ATOM      1  C   UNL     1      -5.906  -1.898   0.048  0.00  0.00    +0.207 C 
ENDROOT
BRANCH   1   2
ATOM      2  S   UNL     1      -7.464  -2.826   0.058  0.00  0.00    +0.047 S 
ATOM      3  O   UNL     1      -7.638  -3.504  -1.179  0.00  0.00    -0.155 OA
ATOM      4  O   UNL     1      -7.614  -3.517   1.291  0.00  0.00    -0.155 OA
BRANCH   2   5
ATOM      5  N   UNL     1      -8.649  -1.669   0.076  0.00  0.00    -0.207 N 
ATOM      6  C   UNL     1      -9.234  -1.085   1.286  0.00  0.00    +0.136 C 
ATOM      7  C   UNL     1     -10.275  -0.072   0.781  0.00  0.00    +0.058 C 
ATOM      8  C   UNL     1     -10.196  -0.166  -0.726  0.00  0.00    -0.023 A 
ATOM      9  C   UNL     1      -9.231  -1.104  -1.060  0.00  0.00    +0.054 A 
ATOM     10  C   UNL     1      -8.973  -1.361  -2.408  0.00  0.00    +0.025 A 
ATOM     11  C   UNL     1      -9.668  -0.686  -3.389  0.00  0.00    +0.002 A 
ATOM     12  C   UNL     1     -10.625   0.251  -3.046  0.00  0.00    +0.000 A 
ATOM     13  C   UNL     1     -10.893   0.504  -1.713  0.00  0.00    +0.005 A 
ENDBRANCH   2   5
ENDBRANCH   1   2
BRANCH   1  14
ATOM     14  C   UNL     1      -4.729  -2.876   0.032  0.00  0.00    +0.130 C 
BRANCH  14  18
ATOM     15  N   UNL     1      -1.137  -2.095   0.002  0.00  0.00    -0.218 N 
ATOM     16  C   UNL     1      -2.295  -2.784   0.009  0.00  0.00    +0.316 C 
ATOM     17  O   UNL     1      -2.278  -4.000   0.002  0.00  0.00    -0.251 OA
ATOM     18  N   UNL     1      -3.471  -2.126   0.024  0.00  0.00    -0.297 N 
ATOM     19  H   UNL     1      -0.290  -2.568  -0.009  0.00  0.00    +0.174 HD
ATOM     20  H   UNL     1      -3.484  -1.157   0.029  0.00  0.00    +0.150 HD
BRANCH  15  24
ATOM     21  C   UNL     1      -0.018   1.503   0.010  0.00  0.00    +0.110 C 
ATOM     22  C   UNL     1       0.002  -0.004   0.002  0.00  0.00    +0.226 C 
ATOM     23  O   UNL     1       1.060  -0.596  -0.011  0.00  0.00    -0.275 OA
ATOM     24  N   UNL     1      -1.156  -0.694   0.009  0.00  0.00    -0.233 N 
ATOM     25  H   UNL     1      -2.002  -0.220   0.020  0.00  0.00    +0.173 HD
ENDBRANCH  15  24
ENDBRANCH  14  18
ENDBRANCH   1  14
TORSDOF 5
