REMARK  Name = ZINC06392200
REMARK  7 active torsions:
REMARK  status: ('A' for Active; 'I' for Inactive)
REMARK    1  A    between atoms: C_6  and  C_7
REMARK    2  A    between atoms: C_7  and  S_8
REMARK    3  A    between atoms: S_8  and  C_9
REMARK    4  A    between atoms: C_12  and  C_23
REMARK    5  A    between atoms: N_13  and  C_14
REMARK    6  A    between atoms: C_17  and  N_20
REMARK    7  A    between atoms: C_23  and  N_39
REMARK                            x       y       z     vdW  Elec       q    Type
REMARK                         _______ _______ _______ _____ _____    ______ ____
ROOT
ATOM      1  C   UNL     1      -2.047   1.735   2.970  0.00  0.00    +0.196 A 
ATOM      2  N   UNL     1      -1.265   2.788   2.899  0.00  0.00    -0.122 NA
ATOM      3  N   UNL     1      -0.481   2.683   1.886  0.00  0.00    -0.135 NA
ATOM      4  C   UNL     1      -0.718   1.572   1.248  0.00  0.00    +0.121 A 
ATOM      5  N   UNL     1      -1.723   0.924   1.917  0.00  0.00    -0.276 N 
ENDROOT
BRANCH   5   6
ATOM      6  C   UNL     1      -2.299  -0.312   1.591  0.00  0.00    +0.050 A 
ATOM      7  C   UNL     1      -3.019  -0.454   0.412  0.00  0.00    +0.028 A 
ATOM      8  C   UNL     1      -3.581  -1.674   0.091  0.00  0.00    +0.035 A 
ATOM      9  C   UNL     1      -3.436  -2.751   0.947  0.00  0.00    +0.126 A 
ATOM     10  C   UNL     1      -2.724  -2.611   2.124  0.00  0.00    +0.035 A 
ATOM     11  C   UNL     1      -2.155  -1.394   2.448  0.00  0.00    +0.028 A 
BRANCH   9  12
ATOM     12  N   UNL     1      -4.045  -4.055   0.603  0.00  0.00    +0.056 N 
ATOM     13  O   UNL     1      -3.919  -5.004   1.356  0.00  0.00    -0.126 OA
ATOM     14  O   UNL     1      -4.673  -4.180  -0.433  0.00  0.00    -0.126 OA
ENDBRANCH   9  12
ENDBRANCH   5   6
BRANCH   1  15
ATOM     15  S   UNL     1      -3.280   1.426   4.190  0.00  0.00    -0.081 S 
BRANCH  15  16
ATOM     16  C   UNL     1      -3.103   2.917   5.201  0.00  0.00    +0.112 C 
BRANCH  16  22
ATOM     17  C   UNL     1      -5.350   3.413   6.184  0.00  0.00    +0.007 A 
ATOM     18  C   UNL     1      -6.256   3.368   7.227  0.00  0.00    +0.038 A 
ATOM     19  C   UNL     1      -5.895   2.788   8.432  0.00  0.00    +0.123 A 
ATOM     20  C   UNL     1      -4.629   2.251   8.589  0.00  0.00    +0.038 A 
ATOM     21  C   UNL     1      -3.726   2.293   7.543  0.00  0.00    +0.007 A 
ATOM     22  C   UNL     1      -4.088   2.872   6.340  0.00  0.00    -0.037 A 
ATOM     23  F   UNL     1      -6.778   2.747   9.454  0.00  0.00    -0.205 F 
ENDBRANCH  16  22
ENDBRANCH  15  16
ENDBRANCH   1  15
BRANCH   4  24
ATOM     24  C   UNL     1      -0.013   1.086   0.008  0.00  0.00    -0.008 C 
BRANCH  24  27
ATOM     25  H   UNL     1      -0.807   2.578  -1.167  0.00  0.00    -0.089 HD
ATOM     26  H   UNL     1      -0.269   1.260  -2.027  0.00  0.00    -0.089 HD
ATOM     27  N   UNL     1      -0.746   1.561  -1.179  0.00  0.00    +0.383 N 
ATOM     28  H   UNL     1      -1.694   1.168  -1.169  0.00  0.00    -0.089 HD
ENDBRANCH  24  27
ENDBRANCH   4  24
TORSDOF 7
