REMARK  Name = ZINC36156737
REMARK  8 active torsions:
REMARK  status: ('A' for Active; 'I' for Inactive)
REMARK    1  A    between atoms: C_1  and  C_2
REMARK    2  A    between atoms: C_2  and  C_3
REMARK    3  A    between atoms: C_3  and  C_5
REMARK    4  A    between atoms: C_3  and  O_29
REMARK    5  A    between atoms: C_5  and  N_6
REMARK    6  A    between atoms: N_6  and  C_7
REMARK    7  A    between atoms: N_6  and  C_23
REMARK    8  A    between atoms: C_7  and  C_8
REMARK                            x       y       z     vdW  Elec       q    Type
REMARK                         _______ _______ _______ _____ _____    ______ ____
ROOT
ATOM      1  C   UNL     1      -2.829  -4.031   0.305  0.00  0.00    -0.003 C 
ENDROOT
BRANCH   1   2
ATOM      2  C   UNL     1      -4.236  -4.524   0.089  0.00  0.00    +0.094 A 
ATOM      3  N   UNL     1      -4.502  -5.851   0.200  0.00  0.00    -0.312 N 
ATOM      4  H   UNL     1      -3.782  -6.463   0.417  0.00  0.00    +0.170 HD
ATOM      5  C   UNL     1      -5.745  -6.334   0.015  0.00  0.00    +0.260 A 
ATOM      6  O   UNL     1      -5.968  -7.528   0.119  0.00  0.00    -0.267 OA
ATOM      7  C   UNL     1      -6.803  -5.421  -0.305  0.00  0.00    +0.075 A 
ATOM      8  C   UNL     1      -8.214  -5.715  -0.548  0.00  0.00    -0.023 A 
ATOM      9  C   UNL     1      -9.017  -4.668  -0.834  0.00  0.00    -0.004 A 
ATOM     10  S   UNL     1      -7.954  -3.250  -0.797  0.00  0.00    -0.073 S 
ATOM     11  C   UNL     1      -6.431  -4.070  -0.398  0.00  0.00    +0.116 A 
ATOM     12  N   UNL     1      -5.180  -3.667  -0.196  0.00  0.00    -0.229 NA
ATOM     13  C   UNL     1     -10.487  -4.703  -1.121  0.00  0.00    +0.043 C 
ATOM     14  C   UNL     1     -10.889  -6.156  -1.409  0.00  0.00    +0.005 C 
ATOM     15  C   UNL     1     -10.294  -7.056  -0.322  0.00  0.00    +0.005 C 
ATOM     16  C   UNL     1      -8.775  -7.133  -0.485  0.00  0.00    +0.037 C 
ENDBRANCH   1   2
BRANCH   1  17
ATOM     17  N   UNL     1      -2.821  -2.562   0.318  0.00  0.00    +0.388 N 
ATOM     18  H   UNL     1      -3.464  -2.216  -0.379  0.00  0.00    -0.081 HD
BRANCH  17  19
ATOM     19  C   UNL     1      -3.231  -2.082   1.644  0.00  0.00    -0.068 C 
ATOM     20  C   UNL     1      -2.286  -2.648   2.706  0.00  0.00    -0.015 C 
ATOM     21  C   UNL     1      -2.713  -2.147   4.088  0.00  0.00    -0.002 C 
ATOM     22  C   UNL     1      -4.142  -2.610   4.378  0.00  0.00    -0.000 C 
ATOM     23  C   UNL     1      -5.087  -2.043   3.316  0.00  0.00    -0.002 C 
ATOM     24  C   UNL     1      -4.660  -2.544   1.935  0.00  0.00    -0.015 C 
ENDBRANCH  17  19
BRANCH  17  25
ATOM     25  C   UNL     1      -1.467  -2.077   0.018  0.00  0.00    -0.046 C 
BRANCH  25  26
ATOM     26  C   UNL     1      -1.488  -0.552  -0.106  0.00  0.00    +0.098 C 
BRANCH  26  28
ATOM     27  C   UNL     1      -0.067   1.492  -0.315  0.00  0.00    +0.006 C 
ATOM     28  C   UNL     1      -0.062  -0.038  -0.315  0.00  0.00    +0.026 C 
ENDBRANCH  26  28
BRANCH  26  29
ATOM     29  O   UNL     1      -2.298  -0.176  -1.222  0.00  0.00    -0.394 OA
ATOM     30  H   UNL     1      -1.990  -0.527  -2.068  0.00  0.00    +0.210 HD
ENDBRANCH  26  29
ENDBRANCH  25  26
ENDBRANCH  17  25
ENDBRANCH   1  17
TORSDOF 7
