REMARK  Name = ZINC56775858
REMARK  9 active torsions:
REMARK  status: ('A' for Active; 'I' for Inactive)
REMARK    1  A    between atoms: C_1  and  C_2
REMARK    2  A    between atoms: C_5  and  S_22
REMARK    3  A    between atoms: C_6  and  N_8
REMARK    4  A    between atoms: N_11  and  C_12
REMARK    5  A    between atoms: C_12  and  C_14
REMARK    6  A    between atoms: C_12  and  C_19
REMARK    7  A    between atoms: C_19  and  C_20
REMARK    8  A    between atoms: C_19  and  C_21
REMARK    9  A    between atoms: S_22  and  C_25
REMARK                            x       y       z     vdW  Elec       q    Type
REMARK                         _______ _______ _______ _____ _____    ______ ____
ROOT
ATOM      1  N   UNL     1       0.051  -2.797   2.393  0.00  0.00    -0.268 N 
ATOM      2  C   UNL     1       0.149  -2.135   3.562  0.00  0.00    +0.304 C 
ATOM      3  O   UNL     1       0.133  -0.919   3.575  0.00  0.00    -0.252 OA
ATOM      4  N   UNL     1       0.266  -2.819   4.717  0.00  0.00    -0.292 N 
ATOM      5  H   UNL     1      -0.002  -3.766   2.387  0.00  0.00    +0.156 HD
ATOM      6  H   UNL     1       0.279  -3.789   4.707  0.00  0.00    +0.151 HD
ENDROOT
BRANCH   1  12
ATOM      7  C   UNL     1      -1.306   1.188  -0.147  0.00  0.00    +0.044 C 
ATOM      8  C   UNL     1      -0.624  -0.154  -0.073  0.00  0.00    -0.049 A 
ATOM      9  C   UNL     1      -0.022  -0.687  -1.198  0.00  0.00    +0.005 A 
ATOM     10  C   UNL     1       0.604  -1.918  -1.135  0.00  0.00    +0.029 A 
ATOM     11  C   UNL     1       0.630  -2.620   0.055  0.00  0.00    +0.109 A 
ATOM     12  C   UNL     1       0.027  -2.088   1.187  0.00  0.00    +0.060 A 
ATOM     13  C   UNL     1      -0.597  -0.849   1.120  0.00  0.00    +0.028 A 
BRANCH  11  14
ATOM     14  S   UNL     1       1.428  -4.189   0.135  0.00  0.00    -0.004 S 
ATOM     15  O   UNL     1       0.468  -5.054   0.725  0.00  0.00    -0.170 OA
ATOM     16  O   UNL     1       1.901  -4.423  -1.185  0.00  0.00    -0.170 OA
ATOM     17  C   UNL     1       2.826  -3.944   1.265  0.00  0.00    +0.200 C 
ENDBRANCH  11  14
ENDBRANCH   1  12
BRANCH   4  18
ATOM     18  C   UNL     1       0.373  -2.099   5.988  0.00  0.00    +0.114 C 
BRANCH  18  19
ATOM     19  C   UNL     1       1.081  -2.964   6.998  0.00  0.00    +0.010 A 
ATOM     20  C   UNL     1       2.001  -2.611   7.929  0.00  0.00    +0.013 A 
ATOM     21  C   UNL     1       2.522  -3.585   8.760  0.00  0.00    +0.008 A 
ATOM     22  C   UNL     1       2.098  -4.865   8.619  0.00  0.00    +0.045 A 
ATOM     23  S   UNL     1       0.921  -4.719   7.284  0.00  0.00    -0.100 S 
ENDBRANCH  18  19
BRANCH  18  24
ATOM     24  C   UNL     1      -1.028  -1.759   6.501  0.00  0.00    +0.008 C 
ATOM     25  C   UNL     1      -0.917  -1.006   7.829  0.00  0.00    +0.009 C 
ATOM     26  C   UNL     1      -1.748  -0.880   5.476  0.00  0.00    +0.009 C 
ENDBRANCH  18  24
ENDBRANCH   4  18
TORSDOF 5
