REMARK  Name = ZINC12654744
REMARK  11 active torsions:
REMARK  status: ('A' for Active; 'I' for Inactive)
REMARK    1  A    between atoms: C_1  and  C_2
REMARK    2  A    between atoms: C_3  and  C_32
REMARK    3  A    between atoms: C_4  and  C_8
REMARK    4  A    between atoms: C_11  and  O_15
REMARK    5  A    between atoms: C_13  and  O_14
REMARK    6  A    between atoms: O_15  and  C_16
REMARK    7  A    between atoms: C_18  and  O_31
REMARK    8  A    between atoms: C_20  and  O_30
REMARK    9  A    between atoms: C_22  and  O_29
REMARK   10  A    between atoms: C_24  and  C_27
REMARK   11  A    between atoms: C_27  and  O_28
REMARK                            x       y       z     vdW  Elec       q    Type
REMARK                         _______ _______ _______ _____ _____    ______ ____
ROOT
ATOM      1  C   UNL     1      -4.797   0.033  -2.245  0.00  0.00    +0.044 A 
ATOM      2  C   UNL     1      -3.691   0.786  -2.637  0.00  0.00    +0.017 A 
ATOM      3  C   UNL     1      -3.736   1.521  -3.803  0.00  0.00    +0.046 A 
ATOM      4  C   UNL     1      -4.880   1.513  -4.590  0.00  0.00    +0.127 A 
ATOM      5  C   UNL     1      -5.985   0.766  -4.207  0.00  0.00    +0.091 A 
ATOM      6  C   UNL     1      -5.947   0.022  -3.041  0.00  0.00    +0.130 A 
ENDROOT
BRANCH   1  10
ATOM      7  C   UNL     1      -4.067  -1.295   2.615  0.00  0.00    +0.065 C 
ATOM      8  C   UNL     1      -4.425  -1.329   1.151  0.00  0.00    +0.041 A 
ATOM      9  C   UNL     1      -4.296  -0.298   0.269  0.00  0.00    +0.030 A 
ATOM     10  C   UNL     1      -4.752  -0.758  -0.992  0.00  0.00    +0.104 A 
ATOM     11  N   UNL     1      -5.123  -2.012  -0.854  0.00  0.00    -0.173 NA
ATOM     12  N   UNL     1      -4.930  -2.386   0.481  0.00  0.00    -0.281 N 
ATOM     13  H   UNL     1      -5.132  -3.284   0.872  0.00  0.00    +0.189 HD
BRANCH   9  14
ATOM     14  C   UNL     1      -3.780   1.058   0.575  0.00  0.00    -0.010 A 
ATOM     15  C   UNL     1      -4.630   2.160   0.510  0.00  0.00    +0.012 A 
ATOM     16  C   UNL     1      -4.146   3.422   0.789  0.00  0.00    +0.050 A 
ATOM     17  C   UNL     1      -2.816   3.598   1.144  0.00  0.00    +0.162 A 
ATOM     18  C   UNL     1      -1.964   2.501   1.213  0.00  0.00    +0.163 A 
ATOM     19  C   UNL     1      -2.444   1.234   0.928  0.00  0.00    +0.058 A 
ATOM     20  O   UNL     1      -0.656   2.656   1.559  0.00  0.00    -0.485 OA
ATOM     21  C   UNL     1      -0.120   3.980   1.472  0.00  0.00    +0.270 C 
ATOM     22  C   UNL     1      -1.119   4.946   2.124  0.00  0.00    +0.270 C 
ATOM     23  O   UNL     1      -2.360   4.852   1.416  0.00  0.00    -0.485 OA
ENDBRANCH   9  14
ENDBRANCH   1  10
BRANCH   6  24
ATOM     24  O   UNL     1      -7.026  -0.714  -2.668  0.00  0.00    -0.506 OA
ATOM     25  H   UNL     1      -7.655  -0.235  -2.111  0.00  0.00    +0.292 HD
ENDBRANCH   6  24
BRANCH   4  26
ATOM     26  O   UNL     1      -4.918   2.239  -5.738  0.00  0.00    -0.461 OA
BRANCH  26  27
ATOM     27  C   UNL     1      -3.746   2.984  -6.073  0.00  0.00    +0.339 C 
ATOM     28  C   UNL     1      -3.928   3.631  -7.448  0.00  0.00    +0.214 C 
ATOM     29  C   UNL     1      -2.693   4.477  -7.774  0.00  0.00    +0.180 C 
ATOM     30  C   UNL     1      -2.492   5.515  -6.665  0.00  0.00    +0.177 C 
ATOM     31  C   UNL     1      -2.366   4.795  -5.320  0.00  0.00    +0.179 C 
ATOM     32  O   UNL     1      -3.533   4.003  -5.093  0.00  0.00    -0.331 OA
BRANCH  30  33
ATOM     33  O   UNL     1      -1.301   6.263  -6.920  0.00  0.00    -0.386 OA
ATOM     34  H   UNL     1      -1.310   6.742  -7.760  0.00  0.00    +0.210 HD
ENDBRANCH  30  33
BRANCH  29  35
ATOM     35  O   UNL     1      -1.542   3.634  -7.852  0.00  0.00    -0.386 OA
ATOM     36  H   UNL     1      -1.604   2.947  -8.530  0.00  0.00    +0.210 HD
ENDBRANCH  29  35
BRANCH  28  37
ATOM     37  O   UNL     1      -5.089   4.465  -7.434  0.00  0.00    -0.383 OA
ATOM     38  H   UNL     1      -5.908   3.994  -7.230  0.00  0.00    +0.210 HD
ENDBRANCH  28  37
BRANCH  31  39
ATOM     39  C   UNL     1      -2.225   5.828  -4.199  0.00  0.00    +0.190 C 
BRANCH  39  40
ATOM     40  O   UNL     1      -1.990   5.157  -2.960  0.00  0.00    -0.392 OA
ATOM     41  H   UNL     1      -1.891   5.752  -2.204  0.00  0.00    +0.210 HD
ENDBRANCH  39  40
ENDBRANCH  31  39
ENDBRANCH  26  27
ENDBRANCH   4  26
TORSDOF 10
