REMARK  Name = ZINC44744872
REMARK  3 active torsions:
REMARK  status: ('A' for Active; 'I' for Inactive)
REMARK    1  A    between atoms: C_6  and  N_7
REMARK    2  A    between atoms: C_8  and  C_10
REMARK    3  A    between atoms: C_11  and  C_12
REMARK                            x       y       z     vdW  Elec       q    Type
REMARK                         _______ _______ _______ _____ _____    ______ ____
ROOT
ATOM      1  N   UNL     1      -1.201  -0.720   0.010  0.00  0.00    -0.282 N 
ATOM      2  C   UNL     1      -2.373  -0.066   0.126  0.00  0.00    +0.241 C 
ATOM      3  O   UNL     1      -2.393   1.152   0.133  0.00  0.00    -0.270 OA
ATOM      4  H   UNL     1      -1.190  -1.687  -0.063  0.00  0.00    +0.155 HD
ENDROOT
BRANCH   1  10
ATOM      5  C   UNL     1       1.139  -0.542   0.583  0.00  0.00    +0.027 A 
ATOM      6  C   UNL     1       2.328   0.160   0.571  0.00  0.00    +0.050 A 
ATOM      7  C   UNL     1       2.390   1.407  -0.031  0.00  0.00    +0.157 A 
ATOM      8  C   UNL     1       1.249   1.950  -0.624  0.00  0.00    +0.089 A 
ATOM      9  C   UNL     1       0.057   1.245  -0.610  0.00  0.00    +0.052 A 
ATOM     10  C   UNL     1       0.002  -0.003  -0.006  0.00  0.00    +0.036 A 
ATOM     11  N   UNL     1       1.620   3.193  -1.137  0.00  0.00    -0.288 N 
ATOM     12  H   UNL     1       1.042   3.814  -1.608  0.00  0.00    +0.172 HD
ATOM     13  C   UNL     1       2.925   3.374  -0.857  0.00  0.00    +0.419 A 
ATOM     14  O   UNL     1       3.579   4.354  -1.159  0.00  0.00    -0.223 OA
ATOM     15  O   UNL     1       3.393   2.305  -0.194  0.00  0.00    -0.408 OA
ENDBRANCH   1  10
BRANCH   2  16
ATOM     16  C   UNL     1      -3.581  -0.794   0.240  0.00  0.00    +0.071 C 
ATOM     17  C   UNL     1      -4.761  -0.136   0.358  0.00  0.00    +0.051 C 
BRANCH  17  18
ATOM     18  C   UNL     1      -5.970  -0.864   0.472  0.00  0.00    +0.129 A 
ATOM     19  C   UNL     1      -7.235  -0.327   0.591  0.00  0.00    +0.050 A 
ATOM     20  C   UNL     1      -8.123  -1.409   0.674  0.00  0.00    +0.056 A 
ATOM     21  C   UNL     1      -7.383  -2.540   0.604  0.00  0.00    +0.165 A 
ATOM     22  O   UNL     1      -6.090  -2.209   0.478  0.00  0.00    -0.450 OA
ATOM     23  I   UNL     1      -8.136  -4.493   0.675  0.00  0.00    -0.001 I 
ENDBRANCH  17  18
ENDBRANCH   2  16
TORSDOF 3
