REMARK  Name = ZINC39302216
REMARK  9 active torsions:
REMARK  status: ('A' for Active; 'I' for Inactive)
REMARK    1  A    between atoms: C_1  and  C_2
REMARK    2  A    between atoms: C_2  and  C_3
REMARK    3  A    between atoms: C_4  and  C_32
REMARK    4  A    between atoms: N_6  and  C_10
REMARK    5  A    between atoms: C_7  and  C_9
REMARK    6  A    between atoms: C_15  and  C_16
REMARK    7  A    between atoms: N_18  and  C_19
REMARK    8  A    between atoms: C_19  and  C_20
REMARK    9  A    between atoms: C_20  and  N_21
REMARK                            x       y       z     vdW  Elec       q    Type
REMARK                         _______ _______ _______ _____ _____    ______ ____
ROOT
ATOM      1  C   UNL     1      -6.035  -0.050   0.027  0.00  0.00    +0.246 C 
ATOM      2  O   UNL     1      -5.050   0.265  -0.612  0.00  0.00    -0.270 OA
ATOM      3  N   UNL     1      -7.231   0.500  -0.264  0.00  0.00    -0.310 N 
ATOM      4  H   UNL     1      -8.017   0.249   0.246  0.00  0.00    +0.149 HD
ENDROOT
BRANCH   1  10
ATOM      5  C   UNL     1      -4.680  -1.609   1.426  0.00  0.00    +0.060 A 
ATOM      6  C   UNL     1      -4.586  -2.530   2.462  0.00  0.00    +0.025 A 
ATOM      7  C   UNL     1      -5.710  -2.880   3.180  0.00  0.00    +0.002 A 
ATOM      8  C   UNL     1      -6.940  -2.318   2.876  0.00  0.00    +0.001 A 
ATOM      9  C   UNL     1      -7.053  -1.403   1.853  0.00  0.00    +0.015 A 
ATOM     10  C   UNL     1      -5.923  -1.033   1.120  0.00  0.00    +0.059 A 
BRANCH   5  14
ATOM     11  C   UNL     1      -1.412  -0.526   0.013  0.00  0.00    -0.030 C 
ATOM     12  C   UNL     1      -2.118  -0.881  -1.039  0.00  0.00    +0.020 C 
ATOM     13  N   UNL     1      -3.381  -1.318  -0.689  0.00  0.00    -0.268 N 
ATOM     14  N   UNL     1      -3.549  -1.255   0.702  0.00  0.00    -0.246 N 
ATOM     15  C   UNL     1      -2.276  -0.742   1.235  0.00  0.00    +0.118 C 
ATOM     16  C   UNL     1      -1.632  -1.769   2.169  0.00  0.00    +0.034 C 
ATOM     17  C   UNL     1      -1.609  -0.820  -2.457  0.00  0.00    +0.062 C 
ATOM     18  H   UNL     1      -4.055  -1.623  -1.315  0.00  0.00    +0.170 HD
BRANCH  11  20
ATOM     19  C   UNL     1      -0.019   1.526   0.010  0.00  0.00    +0.008 C 
ATOM     20  C   UNL     1       0.002  -0.004   0.002  0.00  0.00    +0.031 C 
ENDBRANCH  11  20
ENDBRANCH   5  14
ENDBRANCH   1  10
BRANCH   3  21
ATOM     21  C   UNL     1      -7.343   1.478  -1.349  0.00  0.00    +0.126 C 
BRANCH  21  22
ATOM     22  C   UNL     1      -8.796   1.942  -1.470  0.00  0.00    +0.145 C 
BRANCH  22  23
ATOM     23  N   UNL     1      -8.908   2.919  -2.555  0.00  0.00    -0.291 N 
ATOM     24  C   UNL     1      -8.758   4.298  -2.429  0.00  0.00    +0.070 A 
ATOM     25  C   UNL     1      -8.482   5.131  -1.356  0.00  0.00    +0.028 A 
ATOM     26  C   UNL     1      -8.393   6.496  -1.550  0.00  0.00    +0.002 A 
ATOM     27  C   UNL     1      -8.578   7.035  -2.812  0.00  0.00    +0.002 A 
ATOM     28  C   UNL     1      -8.854   6.213  -3.887  0.00  0.00    +0.028 A 
ATOM     29  C   UNL     1      -8.944   4.842  -3.702  0.00  0.00    +0.067 A 
ATOM     30  N   UNL     1      -9.202   3.777  -4.561  0.00  0.00    -0.306 N 
ATOM     31  H   UNL     1      -9.373   3.844  -5.514  0.00  0.00    +0.170 HD
ATOM     32  C   UNL     1      -9.168   2.637  -3.846  0.00  0.00    +0.328 A 
ATOM     33  O   UNL     1      -9.347   1.521  -4.296  0.00  0.00    -0.247 OA
ENDBRANCH  22  23
ENDBRANCH  21  22
ENDBRANCH   3  21
TORSDOF 6
