REMARK  Name = ZINC23442830
REMARK  7 active torsions:
REMARK  status: ('A' for Active; 'I' for Inactive)
REMARK    1  A    between atoms: C_1  and  C_2
REMARK    2  A    between atoms: C_6  and  N_22
REMARK    3  A    between atoms: C_7  and  N_8
REMARK    4  A    between atoms: C_9  and  C_11
REMARK    5  A    between atoms: C_11  and  S_12
REMARK    6  A    between atoms: S_12  and  C_13
REMARK    7  A    between atoms: C_19  and  N_21
REMARK                            x       y       z     vdW  Elec       q    Type
REMARK                         _______ _______ _______ _____ _____    ______ ____
ROOT
ATOM      1  N   UNL     1      -0.140   1.044   0.267  0.00  0.00    -0.283 N 
ATOM      2  C   UNL     1       0.872   1.658  -0.377  0.00  0.00    +0.228 C 
ATOM      3  O   UNL     1       0.647   2.616  -1.086  0.00  0.00    -0.275 OA
ATOM      4  H   UNL     1       0.053   0.131   0.850  0.00  0.00    +0.155 HD
ENDROOT
BRANCH   1  11
ATOM      5  C   UNL     1      -0.521   3.788   0.915  0.00  0.00    +0.046 C 
ATOM      6  C   UNL     1      -1.667   2.900   0.501  0.00  0.00    -0.027 A 
ATOM      7  C   UNL     1      -2.947   3.413   0.428  0.00  0.00    +0.005 A 
ATOM      8  C   UNL     1      -3.998   2.600   0.048  0.00  0.00    +0.003 A 
ATOM      9  C   UNL     1      -3.772   1.270  -0.259  0.00  0.00    +0.034 A 
ATOM     10  C   UNL     1      -2.494   0.753  -0.193  0.00  0.00    +0.148 A 
ATOM     11  C   UNL     1      -1.436   1.566   0.193  0.00  0.00    +0.067 A 
BRANCH  10  12
ATOM     12  N   UNL     1      -2.251  -0.668  -0.528  0.00  0.00    +0.058 N 
ATOM     13  O   UNL     1      -3.191  -1.408  -0.761  0.00  0.00    -0.126 OA
ATOM     14  O   UNL     1      -1.113  -1.099  -0.570  0.00  0.00    -0.126 OA
ENDBRANCH  10  12
ENDBRANCH   1  11
BRANCH   2  15
ATOM     15  C   UNL     1       2.284   1.156  -0.215  0.00  0.00    +0.173 C 
BRANCH  15  16
ATOM     16  S   UNL     1       3.405   2.182  -1.197  0.00  0.00    -0.078 S 
BRANCH  16  17
ATOM     17  C   UNL     1       4.939   1.394  -0.833  0.00  0.00    +0.171 A 
ATOM     18  N   UNL     1       6.084   1.870  -1.396  0.00  0.00    -0.302 N 
ATOM     19  H   UNL     1       6.045   2.735  -2.075  0.00  0.00    +0.171 HD
ATOM     20  C   UNL     1       7.268   1.282  -1.125  0.00  0.00    +0.254 A 
ATOM     21  O   UNL     1       8.300   1.704  -1.622  0.00  0.00    -0.268 OA
ATOM     22  C   UNL     1       7.292   0.176  -0.268  0.00  0.00    +0.113 A 
ATOM     23  C   UNL     1       6.097  -0.272   0.276  0.00  0.00    +0.124 A 
ATOM     24  N   UNL     1       4.954   0.354  -0.025  0.00  0.00    -0.209 NA
BRANCH  23  25
ATOM     25  N   UNL     1       6.088  -1.361   1.125  0.00  0.00    -0.343 N 
ATOM     26  H   UNL     1       5.139  -1.715   1.556  0.00  0.00    +0.144 HD
ATOM     27  H   UNL     1       7.029  -1.874   1.372  0.00  0.00    +0.144 HD
ENDBRANCH  23  25
ENDBRANCH  16  17
ENDBRANCH  15  16
ENDBRANCH   2  15
TORSDOF 6
