REMARK  Name = ZINC06920695
REMARK  6 active torsions:
REMARK  status: ('A' for Active; 'I' for Inactive)
REMARK    1  A    between atoms: C_1  and  C_2
REMARK    2  A    between atoms: C_3  and  C_11
REMARK    3  A    between atoms: N_6  and  N_10
REMARK    4  A    between atoms: C_11  and  C_12
REMARK    5  A    between atoms: C_12  and  C_13
REMARK    6  A    between atoms: C_13  and  N_14
REMARK                            x       y       z     vdW  Elec       q    Type
REMARK                         _______ _______ _______ _____ _____    ______ ____
ROOT
ATOM      1  C   UNL     1       0.028   1.085   0.032  0.00  0.00    +0.066 C 
ATOM      2  C   UNL     1      -0.699   1.571   1.259  0.00  0.00    +0.050 A 
ATOM      3  C   UNL     1      -0.887   2.909   1.454  0.00  0.00    +0.040 A 
ATOM      4  C   UNL     1      -1.573   3.338   2.605  0.00  0.00    +0.275 A 
ATOM      5  O   UNL     1      -1.763   4.526   2.808  0.00  0.00    -0.266 OA
ATOM      6  N   UNL     1      -2.012   2.411   3.482  0.00  0.00    -0.202 N 
ATOM      7  C   UNL     1      -1.790   1.091   3.237  0.00  0.00    +0.213 A 
ATOM      8  N   UNL     1      -1.151   0.696   2.154  0.00  0.00    -0.220 NA
ATOM      9  N   UNL     1      -2.239   0.156   4.132  0.00  0.00    -0.328 N 
ATOM     10  H   UNL     1      -2.163  -0.788   3.925  0.00  0.00    +0.145 HD
ATOM     11  H   UNL     1      -2.632   0.439   4.972  0.00  0.00    +0.145 HD
ENDROOT
BRANCH   6  12
ATOM     12  N   UNL     1      -2.677   2.796   4.611  0.00  0.00    -0.293 N 
ATOM     13  H   UNL     1      -2.119   3.433   5.160  0.00  0.00    +0.163 HD
ATOM     14  H   UNL     1      -3.571   3.204   4.382  0.00  0.00    +0.163 HD
ENDBRANCH   6  12
BRANCH   3  15
ATOM     15  C   UNL     1      -0.373   3.909   0.451  0.00  0.00    +0.044 C 
BRANCH  15  16
ATOM     16  C   UNL     1      -1.492   4.270  -0.528  0.00  0.00    +0.024 C 
BRANCH  16  17
ATOM     17  C   UNL     1      -0.970   5.285  -1.547  0.00  0.00    +0.117 C 
BRANCH  17  18
ATOM     18  N   UNL     1      -2.041   5.631  -2.485  0.00  0.00    -0.234 N 
ATOM     19  C   UNL     1      -2.279   4.984  -3.640  0.00  0.00    +0.254 C 
ATOM     20  O   UNL     1      -1.649   4.036  -4.065  0.00  0.00    -0.270 OA
ATOM     21  C   UNL     1      -3.436   5.619  -4.306  0.00  0.00    +0.049 A 
ATOM     22  C   UNL     1      -4.118   5.388  -5.489  0.00  0.00    +0.014 A 
ATOM     23  C   UNL     1      -5.191   6.195  -5.833  0.00  0.00    +0.001 A 
ATOM     24  C   UNL     1      -5.585   7.228  -5.003  0.00  0.00    +0.001 A 
ATOM     25  C   UNL     1      -4.911   7.471  -3.816  0.00  0.00    +0.014 A 
ATOM     26  C   UNL     1      -3.837   6.673  -3.460  0.00  0.00    +0.049 A 
ATOM     27  C   UNL     1      -2.913   6.639  -2.307  0.00  0.00    +0.254 C 
ATOM     28  O   UNL     1      -2.937   7.396  -1.357  0.00  0.00    -0.270 OA
ENDBRANCH  17  18
ENDBRANCH  16  17
ENDBRANCH  15  16
ENDBRANCH   3  15
TORSDOF 5
