REMARK  Name = ZINC23136160
REMARK  7 active torsions:
REMARK  status: ('A' for Active; 'I' for Inactive)
REMARK    1  A    between atoms: C_1  and  C_2
REMARK    2  A    between atoms: C_5  and  C_8
REMARK    3  A    between atoms: C_8  and  N_9
REMARK    4  A    between atoms: C_11  and  C_16
REMARK    5  A    between atoms: N_18  and  N_19
REMARK    6  A    between atoms: N_22  and  C_23
REMARK    7  A    between atoms: C_23  and  C_24
REMARK                            x       y       z     vdW  Elec       q    Type
REMARK                         _______ _______ _______ _____ _____    ______ ____
ROOT
ATOM      1  C   UNL     1      -0.018   1.470   0.010  0.00  0.00    +0.262 C 
ATOM      2  O   UNL     1      -1.079   2.064   0.018  0.00  0.00    -0.269 OA
ATOM      3  N   UNL     1       1.140   2.160   0.003  0.00  0.00    -0.229 N 
ATOM      4  H   UNL     1       2.100   1.623  -0.009  0.00  0.00    +0.173 HD
ENDROOT
BRANCH   1   7
ATOM      5  N   UNL     1      -1.167  -2.062   0.003  0.00  0.00    -0.310 N 
ATOM      6  C   UNL     1      -1.180  -0.716   0.015  0.00  0.00    +0.102 A 
ATOM      7  C   UNL     1       0.002  -0.004   0.002  0.00  0.00    +0.055 A 
ATOM      8  C   UNL     1       1.235  -0.701  -0.013  0.00  0.00    +0.020 A 
ATOM      9  C   UNL     1       1.224  -2.061  -0.020  0.00  0.00    +0.071 A 
ATOM     10  C   UNL     1      -0.007  -2.744  -0.012  0.00  0.00    +0.252 A 
ATOM     11  O   UNL     1      -0.022  -3.963  -0.018  0.00  0.00    -0.268 OA
BRANCH   5  12
ATOM     12  C   UNL     1      -2.435  -2.795   0.012  0.00  0.00    +0.160 C 
BRANCH  12  17
ATOM     13  C   UNL     1      -4.048  -3.787   5.471  0.00  0.00    +0.044 C 
ATOM     14  C   UNL     1      -3.628  -3.529   4.047  0.00  0.00    -0.050 A 
ATOM     15  C   UNL     1      -4.034  -2.374   3.405  0.00  0.00    +0.004 A 
ATOM     16  C   UNL     1      -3.648  -2.136   2.099  0.00  0.00    +0.005 A 
ATOM     17  C   UNL     1      -2.856  -3.054   1.435  0.00  0.00    -0.028 A 
ATOM     18  C   UNL     1      -2.454  -4.211   2.075  0.00  0.00    +0.005 A 
ATOM     19  C   UNL     1      -2.836  -4.447   3.383  0.00  0.00    +0.004 A 
ENDBRANCH  12  17
ENDBRANCH   5  12
ENDBRANCH   1   7
BRANCH   3  20
ATOM     20  N   UNL     1       1.121   3.561   0.011  0.00  0.00    -0.218 N 
ATOM     21  C   UNL     1       2.279   4.251   0.003  0.00  0.00    +0.316 C 
ATOM     22  O   UNL     1       2.262   5.466   0.010  0.00  0.00    -0.251 OA
ATOM     23  N   UNL     1       3.455   3.593  -0.012  0.00  0.00    -0.294 N 
ATOM     24  H   UNL     1       0.161   4.098   0.023  0.00  0.00    +0.174 HD
ATOM     25  H   UNL     1       3.470   2.493  -0.018  0.00  0.00    +0.151 HD
BRANCH  23  26
ATOM     26  C   UNL     1       4.714   4.342  -0.020  0.00  0.00    +0.141 C 
BRANCH  26  27
ATOM     27  C   UNL     1       5.872   3.379  -0.036  0.00  0.00    -0.030 A 
ATOM     28  C   UNL     1       6.419   2.935   1.154  0.00  0.00    +0.005 A 
ATOM     29  C   UNL     1       7.478   2.047   1.139  0.00  0.00    +0.000 A 
ATOM     30  C   UNL     1       7.998   1.611  -0.066  0.00  0.00    +0.000 A 
ATOM     31  C   UNL     1       7.455   2.060  -1.255  0.00  0.00    +0.000 A 
ATOM     32  C   UNL     1       6.392   2.943  -1.240  0.00  0.00    +0.005 A 
ENDBRANCH  26  27
ENDBRANCH  23  26
ENDBRANCH   3  20
TORSDOF 6
