REMARK  Name = ZINC22001321
REMARK  10 active torsions:
REMARK  status: ('A' for Active; 'I' for Inactive)
REMARK    1  A    between atoms: C_1  and  C_2
REMARK    2  A    between atoms: C_7  and  C_9
REMARK    3  A    between atoms: C_7  and  C_10
REMARK    4  A    between atoms: N_13  and  C_17
REMARK    5  A    between atoms: C_17  and  C_18
REMARK    6  A    between atoms: C_18  and  O_20
REMARK    7  A    between atoms: O_20  and  C_21
REMARK    8  A    between atoms: C_21  and  C_22
REMARK    9  A    between atoms: N_24  and  C_25
REMARK   10  A    between atoms: C_26  and  C_30
REMARK                            x       y       z     vdW  Elec       q    Type
REMARK                         _______ _______ _______ _____ _____    ______ ____
ROOT
ATOM      1  C   UNL     1       0.970  -4.657  -4.537  0.00  0.00    +0.326 C 
ATOM      2  O   UNL     1       1.178  -5.173  -3.465  0.00  0.00    -0.249 OA
ENDROOT
BRANCH   1   3
ATOM      3  C   UNL     1       0.458  -3.241  -4.606  0.00  0.00    +0.238 C 
BRANCH   3  15
ATOM      4  C   UNL     1      -0.061   1.649   0.498  0.00  0.00    +0.007 C 
ATOM      5  C   UNL     1      -0.046   0.132   0.299  0.00  0.00    -0.011 C 
ATOM      6  C   UNL     1       0.612  -0.200  -1.042  0.00  0.00    +0.038 C 
ATOM      7  C   UNL     1       0.646  -1.713  -1.232  0.00  0.00    +0.113 C 
ATOM      8  C   UNL     1       1.417  -2.381  -0.099  0.00  0.00    +0.041 C 
ATOM      9  C   UNL     1       0.756  -2.041   1.240  0.00  0.00    -0.032 C 
ATOM     10  C   UNL     1       0.748  -0.523   1.431  0.00  0.00    +0.009 C 
ATOM     11  C   UNL     1       1.542  -2.695   2.378  0.00  0.00    +0.011 C 
ATOM     12  C   UNL     1      -0.682  -2.564   1.246  0.00  0.00    +0.011 C 
ATOM     13  C   UNL     1       1.261  -2.063  -2.567  0.00  0.00    +0.247 C 
ATOM     14  O   UNL     1       2.385  -1.813  -2.946  0.00  0.00    -0.273 OA
ATOM     15  N   UNL     1       0.296  -2.715  -3.249  0.00  0.00    -0.213 N 
ATOM     16  C   UNL     1      -0.829  -2.819  -2.531  0.00  0.00    +0.310 C 
ATOM     17  O   UNL     1      -1.838  -3.366  -2.931  0.00  0.00    -0.252 OA
ATOM     18  N   UNL     1      -0.717  -2.252  -1.315  0.00  0.00    -0.285 N 
ATOM     19  H   UNL     1      -1.402  -2.208  -0.629  0.00  0.00    +0.151 HD
ENDBRANCH   3  15
ENDBRANCH   1   3
BRANCH   1  20
ATOM     20  O   UNL     1       1.196  -5.345  -5.668  0.00  0.00    -0.454 OA
BRANCH  20  21
ATOM     21  C   UNL     1       1.681  -6.682  -5.528  0.00  0.00    +0.328 C 
BRANCH  21  22
ATOM     22  C   UNL     1       1.873  -7.291  -6.893  0.00  0.00    +0.255 C 
ATOM     23  O   UNL     1       1.620  -6.645  -7.887  0.00  0.00    -0.272 OA
ATOM     24  N   UNL     1       2.326  -8.555  -7.009  0.00  0.00    -0.277 N 
ATOM     25  H   UNL     1       2.529  -9.072  -6.214  0.00  0.00    +0.155 HD
BRANCH  24  26
ATOM     26  C   UNL     1       2.503  -9.116  -8.264  0.00  0.00    +0.084 A 
ATOM     27  C   UNL     1       2.951 -10.392  -8.573  0.00  0.00    +0.065 A 
ATOM     28  C   UNL     1       3.044 -10.723  -9.977  0.00  0.00    +0.022 A 
ATOM     29  C   UNL     1       2.683  -9.750 -10.834  0.00  0.00    +0.048 A 
ATOM     30  S   UNL     1       2.218  -8.410  -9.759  0.00  0.00    -0.081 S 
BRANCH  27  31
ATOM     31  C   UNL     1       3.313 -11.356  -7.529  0.00  0.00    +0.244 C 
ATOM     32  O   UNL     1       3.224 -11.044  -6.356  0.00  0.00    -0.270 OA
ATOM     33  N   UNL     1       3.745 -12.587  -7.868  0.00  0.00    -0.325 N 
ATOM     34  H   UNL     1       3.816 -12.835  -8.803  0.00  0.00    +0.145 HD
ATOM     35  H   UNL     1       3.984 -13.224  -7.177  0.00  0.00    +0.145 HD
ENDBRANCH  27  31
ENDBRANCH  24  26
ENDBRANCH  21  22
ENDBRANCH  20  21
ENDBRANCH   1  20
TORSDOF 7
