REMARK  Name = ZINC63785796
REMARK  8 active torsions:
REMARK  status: ('A' for Active; 'I' for Inactive)
REMARK    1  A    between atoms: C_1  and  C_2
REMARK    2  A    between atoms: C_2  and  C_4
REMARK    3  A    between atoms: C_2  and  N_18
REMARK    4  A    between atoms: N_6  and  C_7
REMARK    5  A    between atoms: C_7  and  C_8
REMARK    6  A    between atoms: C_8  and  C_9
REMARK    7  A    between atoms: C_19  and  C_21
REMARK    8  A    between atoms: C_28  and  N_31
REMARK                            x       y       z     vdW  Elec       q    Type
REMARK                         _______ _______ _______ _____ _____    ______ ____
ROOT
ATOM      1  N   UNL     1       0.711  -0.489   1.189  0.00  0.00    -0.300 N 
ATOM      2  C   UNL     1       0.051  -0.633   2.355  0.00  0.00    +0.245 C 
ATOM      3  O   UNL     1      -1.132  -0.361   2.423  0.00  0.00    -0.270 OA
ATOM      4  H   UNL     1       1.654  -0.707   1.135  0.00  0.00    +0.150 HD
ENDROOT
BRANCH   2   5
ATOM      5  C   UNL     1       0.765  -1.122   3.551  0.00  0.00    +0.038 A 
ATOM      6  C   UNL     1       2.126  -1.434   3.490  0.00  0.00    +0.015 A 
ATOM      7  C   UNL     1       2.794  -1.889   4.597  0.00  0.00    +0.025 A 
ATOM      8  C   UNL     1       2.138  -2.058   5.833  0.00  0.00    +0.043 A 
ATOM      9  C   UNL     1       0.774  -1.738   5.868  0.00  0.00    +0.033 A 
ATOM     10  C   UNL     1       0.093  -1.277   4.770  0.00  0.00    +0.029 A 
ATOM     11  S   UNL     1       0.266  -2.058   7.543  0.00  0.00    -0.079 S 
ATOM     12  C   UNL     1       1.887  -2.623   8.199  0.00  0.00    +0.237 C 
ATOM     13  N   UNL     1       2.732  -2.510   7.003  0.00  0.00    -0.314 N 
ATOM     14  H   UNL     1       3.673  -2.744   7.030  0.00  0.00    +0.149 HD
BRANCH  12  15
ATOM     15  N   UNL     1       2.361  -1.738   9.266  0.00  0.00    -0.326 N 
ATOM     16  C   UNL     1       3.112  -0.614   9.090  0.00  0.00    +0.088 A 
ATOM     17  C   UNL     1       3.349  -0.071  10.302  0.00  0.00    +0.019 A 
ATOM     18  C   UNL     1       2.721  -0.891  11.261  0.00  0.00    +0.019 A 
ATOM     19  C   UNL     1       2.119  -1.899  10.598  0.00  0.00    +0.088 A 
ENDBRANCH  12  15
ENDBRANCH   2   5
BRANCH   1  21
ATOM     20  C   UNL     1      -0.019   1.526   0.010  0.00  0.00    +0.038 C 
ATOM     21  C   UNL     1       0.002  -0.004   0.002  0.00  0.00    +0.156 C 
BRANCH  21  22
ATOM     22  C   UNL     1       0.707  -0.490  -1.238  0.00  0.00    +0.233 C 
ATOM     23  O   UNL     1       1.704  -1.174  -1.140  0.00  0.00    -0.274 OA
ATOM     24  N   UNL     1       0.231  -0.164  -2.456  0.00  0.00    -0.313 N 
ATOM     25  H   UNL     1      -0.566   0.383  -2.534  0.00  0.00    +0.149 HD
BRANCH  24  26
ATOM     26  C   UNL     1       0.917  -0.637  -3.661  0.00  0.00    +0.108 C 
BRANCH  26  27
ATOM     27  C   UNL     1       0.177  -0.130  -4.901  0.00  0.00    +0.052 C 
BRANCH  27  28
ATOM     28  C   UNL     1       0.882  -0.616  -6.141  0.00  0.00    -0.040 C 
ATOM     29  C   UNL     1       0.586  -1.719  -6.865  0.00  0.00    -0.001 A 
ATOM     30  C   UNL     1      -0.442  -2.757  -6.721  0.00  0.00    +0.010 A 
ATOM     31  C   UNL     1      -0.490  -3.762  -7.624  0.00  0.00    +0.001 A 
ATOM     32  C   UNL     1       0.414  -3.837  -8.692  0.00  0.00    +0.002 A 
ATOM     33  C   UNL     1       1.386  -2.921  -8.891  0.00  0.00    +0.026 A 
ATOM     34  C   UNL     1       1.529  -1.821  -8.002  0.00  0.00    +0.043 A 
ATOM     35  N   UNL     1       2.375  -0.820  -7.981  0.00  0.00    -0.380 N 
ATOM     36  C   UNL     1       2.060   0.035  -6.830  0.00  0.00    +0.144 C 
ATOM     37  H   UNL     1       3.088  -0.668  -8.621  0.00  0.00    +0.160 HD
ENDBRANCH  27  28
ENDBRANCH  26  27
ENDBRANCH  24  26
ENDBRANCH  21  22
ENDBRANCH   1  21
TORSDOF 7
