REMARK  Name = ZINC48999824
REMARK  6 active torsions:
REMARK  status: ('A' for Active; 'I' for Inactive)
REMARK    1  A    between atoms: C_1  and  O_2
REMARK    2  A    between atoms: O_2  and  C_3
REMARK    3  A    between atoms: C_7  and  C_9
REMARK    4  A    between atoms: C_9  and  N_10
REMARK    5  A    between atoms: N_10  and  C_11
REMARK    6  A    between atoms: C_14  and  N_16
REMARK                            x       y       z     vdW  Elec       q    Type
REMARK                         _______ _______ _______ _____ _____    ______ ____
ROOT
ATOM      1  C   UNL     1       1.324  -4.106  -2.289  0.00  0.00    +0.138 C 
ENDROOT
BRANCH   1   6
ATOM      2  C   UNL     1       0.606  -0.607  -1.056  0.00  0.00    +0.120 A 
ATOM      3  C   UNL     1       1.173   0.161  -2.063  0.00  0.00    +0.047 A 
ATOM      4  C   UNL     1       1.786  -0.454  -3.137  0.00  0.00    +0.019 A 
ATOM      5  C   UNL     1       1.835  -1.835  -3.209  0.00  0.00    +0.023 A 
ATOM      6  C   UNL     1       1.270  -2.602  -2.207  0.00  0.00    -0.013 A 
ATOM      7  C   UNL     1       0.661  -1.991  -1.128  0.00  0.00    +0.052 A 
ATOM      8 BR   UNL     1       2.675  -2.674  -4.681  0.00  0.00    -0.050 Br
BRANCH   2  10
ATOM      9  C   UNL     1      -0.017   1.425   0.010  0.00  0.00    +0.277 C 
ATOM     10  O   UNL     1       0.002  -0.004   0.002  0.00  0.00    -0.495 OA
ENDBRANCH   2  10
ENDBRANCH   1   6
BRANCH   1  11
ATOM     11  N   UNL     1       0.357  -4.576  -3.284  0.00  0.00    -0.334 N 
ATOM     12  H   UNL     1      -0.191  -3.938  -3.767  0.00  0.00    +0.147 HD
BRANCH  11  13
ATOM     13  C   UNL     1       0.225  -5.943  -3.538  0.00  0.00    +0.068 A 
ATOM     14  C   UNL     1      -0.601  -6.576  -4.417  0.00  0.00    +0.033 A 
ATOM     15  C   UNL     1      -0.556  -7.957  -4.496  0.00  0.00    +0.042 A 
ATOM     16  C   UNL     1       0.304  -8.635  -3.699  0.00  0.00    +0.165 A 
ATOM     17  S   UNL     1       1.099  -7.313  -2.800  0.00  0.00    -0.050 S 
BRANCH  16  18
ATOM     18  N   UNL     1       0.530 -10.096  -3.602  0.00  0.00    +0.063 N 
ATOM     19  O   UNL     1      -0.103 -10.853  -4.300  0.00  0.00    -0.126 OA
ATOM     20  O   UNL     1       1.349 -10.530  -2.826  0.00  0.00    -0.126 OA
ENDBRANCH  16  18
ENDBRANCH  11  13
ENDBRANCH   1  11
TORSDOF 5
