REMARK  Name = ZINC23021302
REMARK  9 active torsions:
REMARK  status: ('A' for Active; 'I' for Inactive)
REMARK    1  A    between atoms: C_3  and  C_6
REMARK    2  A    between atoms: N_8  and  C_9
REMARK    3  A    between atoms: C_12  and  C_15
REMARK    4  A    between atoms: C_15  and  N_16
REMARK    5  A    between atoms: C_17  and  C_19
REMARK    6  A    between atoms: C_19  and  C_20
REMARK    7  A    between atoms: C_20  and  C_21
REMARK    8  A    between atoms: C_21  and  C_22
REMARK    9  A    between atoms: C_22  and  C_23
REMARK                            x       y       z     vdW  Elec       q    Type
REMARK                         _______ _______ _______ _____ _____    ______ ____
ROOT
ATOM      1  N   UNL     1      10.282  -0.546   1.673  0.00  0.00    -0.311 N 
ATOM      2  C   UNL     1      11.592  -0.540   1.991  0.00  0.00    +0.213 C 
ATOM      3  O   UNL     1      12.428  -0.480   1.115  0.00  0.00    -0.276 OA
ATOM      4  H   UNL     1       9.613  -0.595   2.373  0.00  0.00    +0.149 HD
ENDROOT
BRANCH   1   5
ATOM      5  C   UNL     1       9.869  -0.481   0.269  0.00  0.00    +0.139 C 
BRANCH   5   9
ATOM      6  C   UNL     1       5.602  -0.544   0.035  0.00  0.00    +0.034 A 
ATOM      7  C   UNL     1       6.276   0.667   0.135  0.00  0.00    +0.023 A 
ATOM      8  C   UNL     1       7.655   0.684   0.211  0.00  0.00    +0.007 A 
ATOM      9  C   UNL     1       8.364  -0.503   0.186  0.00  0.00    -0.030 A 
ATOM     10  C   UNL     1       7.697  -1.710   0.086  0.00  0.00    +0.007 A 
ATOM     11  C   UNL     1       6.318  -1.734   0.015  0.00  0.00    +0.023 A 
BRANCH   6  14
ATOM     12  C   UNL     1       3.514  -1.560   0.545  0.00  0.00    +0.284 C 
ATOM     13  O   UNL     1       4.105  -2.486   1.070  0.00  0.00    -0.266 OA
ATOM     14  N   UNL     1       4.206  -0.564  -0.042  0.00  0.00    -0.279 N 
ATOM     15  H   UNL     1       3.736   0.139  -0.517  0.00  0.00    +0.155 HD
BRANCH  12  18
ATOM     16  C   UNL     1      -0.089  -2.038   0.885  0.00  0.00    +0.042 A 
ATOM     17  C   UNL     1       1.228  -2.468   1.110  0.00  0.00    +0.054 A 
ATOM     18  C   UNL     1       2.048  -1.529   0.553  0.00  0.00    +0.189 A 
ATOM     19  O   UNL     1       1.273  -0.566   0.012  0.00  0.00    -0.458 OA
ATOM     20  C   UNL     1      -0.017  -0.870   0.210  0.00  0.00    +0.196 A 
ENDBRANCH  12  18
ENDBRANCH   6  14
ENDBRANCH   5   9
ENDBRANCH   1   5
BRANCH   2  21
ATOM     21  C   UNL     1      12.017  -0.607   3.435  0.00  0.00    +0.096 C 
BRANCH  21  22
ATOM     22  C   UNL     1      13.545  -0.585   3.518  0.00  0.00    +0.009 C 
BRANCH  22  23
ATOM     23  C   UNL     1      13.976  -0.653   4.985  0.00  0.00    +0.002 C 
BRANCH  23  24
ATOM     24  C   UNL     1      15.504  -0.631   5.068  0.00  0.00    +0.016 C 
BRANCH  24  25
ATOM     25  C   UNL     1      15.936  -0.699   6.534  0.00  0.00    +0.069 C 
ATOM     26  C   UNL     1      17.474  -0.722   6.659  0.00  0.00    +0.108 C 
ATOM     27  C   UNL     1      18.011   0.125   7.816  0.00  0.00    +0.105 C 
ATOM     28  C   UNL     1      16.907   0.842   8.624  0.00  0.00    +0.093 C 
ATOM     29  S   UNL     1      15.520   0.865   7.421  0.00  0.00    -0.154 S 
ATOM     30  N   UNL     1      18.849   1.139   7.159  0.00  0.00    -0.294 N 
ATOM     31  C   UNL     1      18.822   0.936   5.834  0.00  0.00    +0.300 C 
ATOM     32  O   UNL     1      19.430   1.632   5.044  0.00  0.00    -0.253 OA
ATOM     33  N   UNL     1      18.062  -0.094   5.465  0.00  0.00    -0.294 N 
ATOM     34  H   UNL     1      19.343   1.842   7.610  0.00  0.00    +0.151 HD
ATOM     35  H   UNL     1      17.924  -0.384   4.550  0.00  0.00    +0.151 HD
ENDBRANCH  24  25
ENDBRANCH  23  24
ENDBRANCH  22  23
ENDBRANCH  21  22
ENDBRANCH   2  21
TORSDOF 9
