REMARK  Name = ZINC04557155
REMARK  7 active torsions:
REMARK  status: ('A' for Active; 'I' for Inactive)
REMARK    1  A    between atoms: C_1  and  C_2
REMARK    2  A    between atoms: C_2  and  C_21
REMARK    3  A    between atoms: C_6  and  O_20
REMARK    4  A    between atoms: C_8  and  C_18
REMARK    5  A    between atoms: C_11  and  O_16
REMARK    6  A    between atoms: O_16  and  C_17
REMARK    7  A    between atoms: C_18  and  O_19
REMARK                            x       y       z     vdW  Elec       q    Type
REMARK                         _______ _______ _______ _____ _____    ______ ____
ROOT
ATOM      1  C   UNL     1       2.183   4.562  -1.707  0.00  0.00    +0.074 C 
ATOM      2  C   UNL     1       2.495   3.594  -0.564  0.00  0.00    +0.166 C 
ATOM      3  O   UNL     1       3.017   2.352  -1.128  0.00  0.00    -0.341 OA
ATOM      4  C   UNL     1       1.854   1.525  -1.190  0.00  0.00    +0.186 C 
ATOM      5  C   UNL     1       2.067   0.023  -1.167  0.00  0.00    +0.177 C 
ATOM      6  C   UNL     1       0.674  -0.627  -1.088  0.00  0.00    +0.178 C 
ATOM      7  O   UNL     1      -0.075  -0.134   0.018  0.00  0.00    -0.341 OA
ATOM      8  C   UNL     1      -0.233   1.293   0.105  0.00  0.00    +0.282 C 
ATOM      9  C   UNL     1       1.159   1.888   0.155  0.00  0.00    +0.209 C 
ATOM     10  O   UNL     1       1.284   3.303   0.172  0.00  0.00    -0.338 OA
ATOM     11  C   UNL     1       3.529   4.220   0.373  0.00  0.00    +0.074 C 
ENDROOT
BRANCH   8  12
ATOM     12  O   UNL     1      -0.930   1.777  -1.044  0.00  0.00    -0.352 OA
ATOM     13  C   UNL     1      -2.309   1.405  -1.088  0.00  0.00    +0.197 C 
ENDBRANCH   8  12
BRANCH   5  14
ATOM     14  O   UNL     1       2.841  -0.343  -0.024  0.00  0.00    -0.386 OA
ATOM     15  H   UNL     1       2.981  -1.295   0.069  0.00  0.00    +0.210 HD
ENDBRANCH   5  14
BRANCH   6  16
ATOM     16  C   UNL     1      -0.089  -0.329  -2.380  0.00  0.00    +0.190 C 
BRANCH  16  17
ATOM     17  O   UNL     1      -1.330  -1.038  -2.374  0.00  0.00    -0.392 OA
ATOM     18  H   UNL     1      -1.868  -0.896  -3.165  0.00  0.00    +0.210 HD
ENDBRANCH  16  17
ENDBRANCH   6  16
TORSDOF 4
