REMARK  Name = ZINC12378177
REMARK  7 active torsions:
REMARK  status: ('A' for Active; 'I' for Inactive)
REMARK    1  A    between atoms: C_1  and  C_2
REMARK    2  A    between atoms: C_2  and  C_29
REMARK    3  A    between atoms: C_5  and  C_26
REMARK    4  A    between atoms: C_6  and  N_12
REMARK    5  A    between atoms: C_9  and  C_10
REMARK    6  A    between atoms: C_9  and  C_11
REMARK    7  A    between atoms: C_13  and  C_15
REMARK                            x       y       z     vdW  Elec       q    Type
REMARK                         _______ _______ _______ _____ _____    ______ ____
ROOT
ATOM      1  C   UNL     1       9.210   9.031   2.197  0.00  0.00    -0.010 C 
ATOM      2  C   UNL     1       9.421   9.366   0.718  0.00  0.00    -0.069 C 
ATOM      3  C   UNL     1       8.073   9.306  -0.011  0.00  0.00    +0.024 C 
ATOM      4  C   UNL     1       7.624   7.852  -0.028  0.00  0.00    -0.026 A 
ATOM      5  C   UNL     1       6.253   7.387  -0.018  0.00  0.00    +0.068 A 
ATOM      6  C   UNL     1       6.046   6.011  -0.024  0.00  0.00    +0.085 A 
ATOM      7  S   UNL     1       7.654   5.368  -0.043  0.00  0.00    -0.079 S 
ATOM      8  C   UNL     1       8.568   6.882  -0.051  0.00  0.00    -0.016 A 
ATOM      9  C   UNL     1      10.049   7.083  -0.078  0.00  0.00    -0.041 C 
ATOM     10  C   UNL     1      10.703   6.209   1.002  0.00  0.00    -0.005 C 
ATOM     11  C   UNL     1      10.575   6.617  -1.449  0.00  0.00    -0.005 C 
ATOM     12  C   UNL     1       9.940  10.814   0.630  0.00  0.00    -0.010 C 
ATOM     13  N   UNL     1      10.462   8.505   0.100  0.00  0.00    +0.389 N 
ATOM     14  H   UNL     1      11.296   8.526   0.699  0.00  0.00    -0.084 HD
ATOM     15  H   UNL     1      10.694   8.891  -0.823  0.00  0.00    -0.084 HD
ENDROOT
BRANCH   5  16
ATOM     16  C   UNL     1       5.121   8.318  -0.005  0.00  0.00    +0.244 C 
ATOM     17  O   UNL     1       4.659   8.699   1.055  0.00  0.00    -0.270 OA
ATOM     18  N   UNL     1       4.591   8.752  -1.165  0.00  0.00    -0.325 N 
ATOM     19  H   UNL     1       4.959   8.448  -2.010  0.00  0.00    +0.145 HD
ATOM     20  H   UNL     1       3.842   9.367  -1.157  0.00  0.00    +0.145 HD
ENDBRANCH   5  16
BRANCH   6  21
ATOM     21  N   UNL     1       4.842   5.326  -0.016  0.00  0.00    -0.275 N 
ATOM     22  C   UNL     1       4.834   3.978  -0.024  0.00  0.00    +0.256 C 
ATOM     23  O   UNL     1       5.884   3.364  -0.037  0.00  0.00    -0.270 OA
ATOM     24  H   UNL     1       4.005   5.816  -0.005  0.00  0.00    +0.156 HD
BRANCH  22  25
ATOM     25  C   UNL     1       3.555   3.249  -0.015  0.00  0.00    +0.122 A 
ATOM     26  C   UNL     1       2.353   3.936   0.000  0.00  0.00    +0.031 A 
ATOM     27  C   UNL     1       1.145   3.193   0.008  0.00  0.00    +0.018 A 
ATOM     28  C   UNL     1      -0.091   3.857   0.024  0.00  0.00    +0.011 A 
ATOM     29  C   UNL     1      -1.250   3.137   0.031  0.00  0.00    +0.001 A 
ATOM     30  C   UNL     1      -1.216   1.749   0.017  0.00  0.00    +0.004 A 
ATOM     31  C   UNL     1      -0.013   1.076   0.008  0.00  0.00    +0.047 A 
ATOM     32  C   UNL     1       1.182   1.788   0.000  0.00  0.00    +0.139 A 
ATOM     33  O   UNL     1       2.359   1.126  -0.015  0.00  0.00    -0.422 OA
ATOM     34  C   UNL     1       3.531   1.782  -0.023  0.00  0.00    +0.350 A 
ATOM     35  O   UNL     1       4.576   1.158  -0.037  0.00  0.00    -0.244 OA
ENDBRANCH  22  25
ENDBRANCH   6  21
TORSDOF 3
