REMARK  Name = ZINC16098476
REMARK  5 active torsions:
REMARK  status: ('A' for Active; 'I' for Inactive)
REMARK    1  A    between atoms: C_3  and  S_21
REMARK    2  A    between atoms: C_6  and  N_7
REMARK    3  A    between atoms: N_7  and  S_8
REMARK    4  A    between atoms: S_8  and  C_11
REMARK    5  A    between atoms: S_21  and  N_24
REMARK                            x       y       z     vdW  Elec       q    Type
REMARK                         _______ _______ _______ _____ _____    ______ ____
ROOT
ATOM      1  C   UNL     1      -5.854   4.402   4.683  0.00  0.00    +0.026 A 
ATOM      2  C   UNL     1      -4.653   4.470   4.005  0.00  0.00    +0.031 A 
ATOM      3  C   UNL     1      -4.626   4.347   2.628  0.00  0.00    +0.113 A 
ATOM      4  C   UNL     1      -5.802   4.160   1.924  0.00  0.00    +0.031 A 
ATOM      5  C   UNL     1      -7.006   4.085   2.596  0.00  0.00    +0.026 A 
ATOM      6  C   UNL     1      -7.037   4.209   3.980  0.00  0.00    +0.048 A 
ENDROOT
BRANCH   3   7
ATOM      7  S   UNL     1      -3.091   4.435   1.767  0.00  0.00    +0.100 S 
ATOM      8  O   UNL     1      -2.200   5.165   2.600  0.00  0.00    -0.146 OA
ATOM      9  O   UNL     1      -3.393   4.837   0.438  0.00  0.00    -0.146 OA
BRANCH   7  10
ATOM     10  N   UNL     1      -2.494   2.893   1.672  0.00  0.00    -0.118 NA
ATOM     11  C   UNL     1      -1.365   2.673   1.082  0.00  0.00    +0.117 C 
ATOM     12  C   UNL     1      -0.618   3.821   0.495  0.00  0.00    +0.073 C 
ATOM     13  C   UNL     1      -0.966   3.970  -1.001  0.00  0.00    +0.008 C 
ATOM     14  C   UNL     1      -0.395   2.849  -1.780  0.00  0.00    +0.002 C 
ATOM     15  C   UNL     1      -0.956   1.482  -1.421  0.00  0.00    +0.019 C 
ATOM     16  C   UNL     1      -0.225   0.909  -0.231  0.00  0.00    +0.102 C 
ATOM     17  N   UNL     1      -0.881   1.374   1.014  0.00  0.00    -0.331 N 
ATOM     18  H   UNL     1      -0.973   0.777   1.772  0.00  0.00    +0.147 HD
ENDBRANCH   7  10
ENDBRANCH   3   7
BRANCH   6  19
ATOM     19  N   UNL     1      -8.253   4.139   4.662  0.00  0.00    -0.216 N 
ATOM     20  H   UNL     1      -8.332   3.592   5.459  0.00  0.00    +0.174 HD
BRANCH  19  21
ATOM     21  S   UNL     1      -9.561   4.992   4.111  0.00  0.00    +0.072 S 
ATOM     22  O   UNL     1      -9.715   4.658   2.738  0.00  0.00    -0.150 OA
ATOM     23  O   UNL     1     -10.600   4.802   5.062  0.00  0.00    -0.150 OA
BRANCH  21  24
ATOM     24  C   UNL     1      -9.132   6.700   4.168  0.00  0.00    +0.109 A 
ATOM     25  C   UNL     1      -9.295   7.417   5.339  0.00  0.00    +0.029 A 
ATOM     26  C   UNL     1      -8.953   8.753   5.377  0.00  0.00    +0.006 A 
ATOM     27  C   UNL     1      -8.457   9.387   4.245  0.00  0.00    -0.044 A 
ATOM     28  C   UNL     1      -8.297   8.674   3.079  0.00  0.00    -0.042 A 
ATOM     29  C   UNL     1      -8.637   7.327   3.044  0.00  0.00    +0.032 A 
ATOM     30  C   UNL     1      -7.757   9.293   1.817  0.00  0.00    +0.035 C 
ATOM     31  C   UNL     1      -7.843  10.817   1.886  0.00  0.00    +0.005 C 
ATOM     32  C   UNL     1      -7.207  11.277   3.203  0.00  0.00    +0.005 C 
ATOM     33  C   UNL     1      -8.118  10.851   4.353  0.00  0.00    +0.035 C 
ENDBRANCH  21  24
ENDBRANCH  19  21
ENDBRANCH   6  19
TORSDOF 5
