REMARK  Name = ZINC06940483
REMARK  16 active torsions:
REMARK  status: ('A' for Active; 'I' for Inactive)
REMARK    1  A    between atoms: C_1  and  C_2
REMARK    2  A    between atoms: C_5  and  N_9
REMARK    3  A    between atoms: C_7  and  C_8
REMARK    4  A    between atoms: C_10  and  C_12
REMARK    5  A    between atoms: C_12  and  O_13
REMARK    6  A    between atoms: O_13  and  C_14
REMARK    7  A    between atoms: C_14  and  C_16
REMARK    8  A    between atoms: C_18  and  C_22
REMARK    9  A    between atoms: C_20  and  C_21
REMARK   10  A    between atoms: C_22  and  C_24
REMARK   11  A    between atoms: C_22  and  O_32
REMARK   12  A    between atoms: C_24  and  C_26
REMARK   13  A    between atoms: C_24  and  O_31
REMARK   14  A    between atoms: C_26  and  C_28
REMARK   15  A    between atoms: C_26  and  O_30
REMARK   16  A    between atoms: C_28  and  O_29
REMARK                            x       y       z     vdW  Elec       q    Type
REMARK                         _______ _______ _______ _____ _____    ______ ____
ROOT
ATOM      1  C   UNL     1       5.642   2.675   0.569  0.00  0.00    +0.100 A 
ATOM      2  C   UNL     1       4.560   1.781   0.128  0.00  0.00    +0.062 A 
ATOM      3  C   UNL     1       3.416   2.393   0.467  0.00  0.00    +0.137 A 
ATOM      4  O   UNL     1       3.701   3.557   1.072  0.00  0.00    -0.461 OA
ATOM      5  C   UNL     1       5.022   3.746   1.144  0.00  0.00    +0.116 A 
ATOM      6  C   UNL     1       5.710   4.939   1.755  0.00  0.00    +0.087 C 
ENDROOT
BRANCH   1   7
ATOM      7  C   UNL     1       7.091   2.457   0.425  0.00  0.00    +0.343 C 
ATOM      8  O   UNL     1       7.875   3.285   0.844  0.00  0.00    -0.245 OA
BRANCH   7   9
ATOM      9  O   UNL     1       7.548   1.338  -0.172  0.00  0.00    -0.452 OA
BRANCH   9  10
ATOM     10  C   UNL     1       8.989   1.189  -0.279  0.00  0.00    +0.328 C 
BRANCH  10  12
ATOM     11  N   UNL     1      10.593  -0.464  -1.179  0.00  0.00    -0.283 N 
ATOM     12  C   UNL     1       9.309  -0.112  -0.969  0.00  0.00    +0.255 C 
ATOM     13  O   UNL     1       8.413  -0.842  -1.333  0.00  0.00    -0.272 OA
ATOM     14  H   UNL     1      11.308   0.153  -0.958  0.00  0.00    +0.155 HD
BRANCH  11  19
ATOM     15  C   UNL     1      11.815  -5.554  -3.367  0.00  0.00    +0.044 C 
ATOM     16  C   UNL     1      11.491  -4.202  -2.786  0.00  0.00    -0.047 A 
ATOM     17  C   UNL     1      10.393  -4.052  -1.957  0.00  0.00    +0.005 A 
ATOM     18  C   UNL     1      10.097  -2.816  -1.418  0.00  0.00    +0.023 A 
ATOM     19  C   UNL     1      10.895  -1.719  -1.719  0.00  0.00    +0.034 A 
ATOM     20  C   UNL     1      11.996  -1.873  -2.551  0.00  0.00    +0.027 A 
ATOM     21  C   UNL     1      12.291  -3.114  -3.082  0.00  0.00    -0.046 A 
ATOM     22  C   UNL     1      13.485  -3.281  -3.985  0.00  0.00    +0.044 C 
ENDBRANCH  11  19
ENDBRANCH  10  12
ENDBRANCH   9  10
ENDBRANCH   7   9
ENDBRANCH   1   7
BRANCH   3  23
ATOM     23  C   UNL     1       2.030   1.857   0.214  0.00  0.00    +0.211 C 
BRANCH  23  24
ATOM     24  O   UNL     1       1.173   2.223   1.297  0.00  0.00    -0.381 OA
ATOM     25  H   UNL     1       1.090   3.178   1.427  0.00  0.00    +0.210 HD
ENDBRANCH  23  24
BRANCH  23  26
ATOM     26  C   UNL     1       1.485   2.445  -1.089  0.00  0.00    +0.181 C 
BRANCH  26  27
ATOM     27  O   UNL     1       1.542   3.871  -1.028  0.00  0.00    -0.386 OA
ATOM     28  H   UNL     1       1.027   4.255  -0.305  0.00  0.00    +0.210 HD
ENDBRANCH  26  27
BRANCH  26  29
ATOM     29  C   UNL     1       0.034   1.999  -1.282  0.00  0.00    +0.171 C 
BRANCH  29  30
ATOM     30  O   UNL     1      -0.022   0.573  -1.343  0.00  0.00    -0.387 OA
ATOM     31  H   UNL     1       0.493   0.189  -2.066  0.00  0.00    +0.210 HD
ENDBRANCH  29  30
BRANCH  29  32
ATOM     32  C   UNL     1      -0.510   2.587  -2.585  0.00  0.00    +0.189 C 
BRANCH  32  33
ATOM     33  O   UNL     1      -1.898   2.268  -2.708  0.00  0.00    -0.392 OA
ATOM     34  H   UNL     1      -2.310   2.610  -3.513  0.00  0.00    +0.210 HD
ENDBRANCH  32  33
ENDBRANCH  29  32
ENDBRANCH  26  29
ENDBRANCH  23  26
ENDBRANCH   3  23
TORSDOF 13
