REMARK  Name = ZINC39654471
REMARK  7 active torsions:
REMARK  status: ('A' for Active; 'I' for Inactive)
REMARK    1  A    between atoms: C_1  and  C_2
REMARK    2  A    between atoms: C_2  and  C_3
REMARK    3  A    between atoms: C_6  and  C_9
REMARK    4  A    between atoms: C_9  and  C_10
REMARK    5  A    between atoms: C_10  and  N_11
REMARK    6  A    between atoms: C_12  and  C_14
REMARK    7  A    between atoms: C_25  and  C_27
REMARK                            x       y       z     vdW  Elec       q    Type
REMARK                         _______ _______ _______ _____ _____    ______ ____
ROOT
ATOM      1  C   UNL     1      -9.872  -0.519   0.190  0.00  0.00    +0.100 C 
ATOM      2  C   UNL     1     -10.157  -1.586   1.270  0.00  0.00    +0.121 C 
ATOM      3  N   UNL     1     -10.904  -0.861   2.325  0.00  0.00    -0.296 N 
ATOM      4  C   UNL     1     -11.808   0.046   1.578  0.00  0.00    +0.115 C 
ATOM      5  C   UNL     1     -10.960   0.549   0.393  0.00  0.00    -0.004 C 
ATOM      6  C   UNL     1     -10.323   1.893   0.733  0.00  0.00    -0.010 C 
ATOM      7  C   UNL     1     -11.422   2.951   0.874  0.00  0.00    -0.082 C 
ATOM      8  N   UNL     1     -12.175   3.047  -0.382  0.00  0.00    +0.379 N 
ATOM      9  C   UNL     1     -12.859   1.778  -0.654  0.00  0.00    -0.082 C 
ATOM     10  C   UNL     1     -11.822   0.670  -0.860  0.00  0.00    -0.010 C 
ATOM     11  C   UNL     1     -10.789  -0.996   3.661  0.00  0.00    +0.249 C 
ATOM     12  O   UNL     1     -11.543  -0.394   4.400  0.00  0.00    -0.270 OA
ATOM     13  H   UNL     1     -12.858   3.787  -0.307  0.00  0.00    -0.086 HD
ATOM     14  H   UNL     1     -11.540   3.255  -1.138  0.00  0.00    -0.086 HD
ENDROOT
BRANCH  11  15
ATOM     15  C   UNL     1      -9.746  -1.876   4.227  0.00  0.00    +0.073 A 
ATOM     16  C   UNL     1      -9.386  -3.053   3.566  0.00  0.00    +0.036 A 
ATOM     17  C   UNL     1      -8.411  -3.870   4.099  0.00  0.00    +0.042 A 
ATOM     18  C   UNL     1      -7.788  -3.526   5.289  0.00  0.00    +0.023 A 
ATOM     19  C   UNL     1      -8.138  -2.364   5.949  0.00  0.00    +0.040 A 
ATOM     20  C   UNL     1      -9.110  -1.532   5.423  0.00  0.00    +0.136 A 
ATOM     21  F   UNL     1      -9.447  -0.393   6.067  0.00  0.00    -0.205 F 
ATOM     22 CL   UNL     1      -7.964  -5.333   3.279  0.00  0.00    -0.084 Cl
ENDBRANCH  11  15
BRANCH   1  24
ATOM     23  N   UNL     1      -7.825   0.580  -0.660  0.00  0.00    -0.315 N 
ATOM     24  C   UNL     1      -8.504   0.080   0.392  0.00  0.00    +0.218 C 
ATOM     25  O   UNL     1      -8.014   0.112   1.501  0.00  0.00    -0.275 OA
ATOM     26  H   UNL     1      -8.218   0.555  -1.546  0.00  0.00    +0.149 HD
BRANCH  23  27
ATOM     27  C   UNL     1      -6.496   1.163  -0.463  0.00  0.00    +0.109 C 
BRANCH  27  28
ATOM     28  C   UNL     1      -5.950   1.653  -1.806  0.00  0.00    +0.054 C 
BRANCH  28  32
ATOM     29  C   UNL     1      -2.073   3.352  -1.235  0.00  0.00    -0.048 A 
ATOM     30  C   UNL     1      -2.203   2.005  -1.516  0.00  0.00    +0.004 A 
ATOM     31  C   UNL     1      -3.457   1.455  -1.700  0.00  0.00    +0.004 A 
ATOM     32  C   UNL     1      -4.582   2.252  -1.604  0.00  0.00    -0.046 A 
ATOM     33  C   UNL     1      -4.453   3.599  -1.323  0.00  0.00    +0.004 A 
ATOM     34  C   UNL     1      -3.198   4.149  -1.134  0.00  0.00    +0.004 A 
BRANCH  29  36
ATOM     35  C   UNL     1      -0.321   3.862   0.444  0.00  0.00    +0.009 C 
ATOM     36  C   UNL     1      -0.705   3.952  -1.034  0.00  0.00    +0.032 C 
ENDBRANCH  29  36
ENDBRANCH  28  32
ENDBRANCH  27  28
ENDBRANCH  23  27
ENDBRANCH   1  24
TORSDOF 6
