REMARK  Name = ZINC09118020
REMARK  4 active torsions:
REMARK  status: ('A' for Active; 'I' for Inactive)
REMARK    1  A    between atoms: N_9  and  C_22
REMARK    2  A    between atoms: C_10  and  C_13
REMARK    3  A    between atoms: C_17  and  N_19
REMARK    4  A    between atoms: C_22  and  C_23
REMARK                            x       y       z     vdW  Elec       q    Type
REMARK                         _______ _______ _______ _____ _____    ______ ____
ROOT
ATOM      1  C   UNL     1      -8.445   4.475  -1.379  0.00  0.00    +0.001 A 
ATOM      2  C   UNL     1      -9.172   3.650  -0.535  0.00  0.00    +0.002 A 
ATOM      3  C   UNL     1      -8.620   2.482  -0.047  0.00  0.00    +0.024 A 
ATOM      4  C   UNL     1      -7.328   2.134  -0.403  0.00  0.00    +0.041 A 
ATOM      5  C   UNL     1      -6.588   2.967  -1.262  0.00  0.00    +0.058 A 
ATOM      6  C   UNL     1      -7.157   4.142  -1.745  0.00  0.00    +0.015 A 
ATOM      7  C   UNL     1      -5.218   2.561  -1.625  0.00  0.00    +0.250 C 
ATOM      8  O   UNL     1      -4.639   3.105  -2.545  0.00  0.00    -0.270 OA
ATOM      9  N   UNL     1      -4.614   1.578  -0.924  0.00  0.00    -0.272 N 
ATOM     10  C   UNL     1      -5.265   0.962   0.232  0.00  0.00    +0.193 C 
ATOM     11  N   UNL     1      -6.721   0.975   0.067  0.00  0.00    -0.321 N 
ATOM     12  H   UNL     1      -7.249   0.190   0.279  0.00  0.00    +0.148 HD
ENDROOT
BRANCH  10  13
ATOM     13  C   UNL     1      -4.902   1.731   1.477  0.00  0.00    -0.007 A 
ATOM     14  C   UNL     1      -5.740   1.700   2.576  0.00  0.00    +0.011 A 
ATOM     15  C   UNL     1      -5.410   2.403   3.718  0.00  0.00    +0.053 A 
ATOM     16  C   UNL     1      -4.236   3.141   3.761  0.00  0.00    +0.209 A 
ATOM     17  C   UNL     1      -3.397   3.171   2.657  0.00  0.00    +0.173 A 
ATOM     18  C   UNL     1      -3.729   2.461   1.519  0.00  0.00    +0.043 A 
ATOM     19  O   UNL     1      -3.909   3.835   4.883  0.00  0.00    -0.285 OA
BRANCH  17  20
ATOM     20  N   UNL     1      -2.143   3.957   2.700  0.00  0.00    +0.060 N 
ATOM     21  O   UNL     1      -1.407   3.982   1.730  0.00  0.00    -0.126 OA
ATOM     22  O   UNL     1      -1.848   4.578   3.705  0.00  0.00    -0.126 OA
ENDBRANCH  17  20
ENDBRANCH  10  13
BRANCH   9  23
ATOM     23  C   UNL     1      -3.286   1.116  -1.333  0.00  0.00    +0.141 C 
BRANCH  23  24
ATOM     24  C   UNL     1      -3.431  -0.065  -2.295  0.00  0.00    +0.136 C 
ATOM     25  C   UNL     1      -2.041  -0.640  -2.631  0.00  0.00    +0.035 C 
ATOM     26  C   UNL     1      -1.944  -0.522  -4.172  0.00  0.00    +0.031 C 
ATOM     27  C   UNL     1      -3.434  -0.417  -4.585  0.00  0.00    +0.160 C 
ATOM     28  O   UNL     1      -4.020   0.377  -3.530  0.00  0.00    -0.375 OA
ENDBRANCH  23  24
ENDBRANCH   9  23
TORSDOF 4
