REMARK  Name = ZINC39140966
REMARK  5 active torsions:
REMARK  status: ('A' for Active; 'I' for Inactive)
REMARK    1  A    between atoms: C_1  and  C_2
REMARK    2  A    between atoms: C_3  and  C_22
REMARK    3  A    between atoms: C_4  and  C_16
REMARK    4  A    between atoms: C_22  and  O_24
REMARK    5  A    between atoms: O_24  and  C_25
REMARK                            x       y       z     vdW  Elec       q    Type
REMARK                         _______ _______ _______ _____ _____    ______ ____
ROOT
ATOM      1  C   UNL     1      -0.018   1.503   0.010  0.00  0.00    +0.061 C 
ATOM      2  C   UNL     1       0.002  -0.004   0.002  0.00  0.00    +0.016 C 
ATOM      3  C   UNL     1      -1.156  -0.678   0.004  0.00  0.00    +0.062 C 
ATOM      4  C   UNL     1      -1.237  -2.179   0.017  0.00  0.00    +0.076 C 
ATOM      5  C   UNL     1       0.060  -2.784  -0.526  0.00  0.00    +0.148 C 
ATOM      6  C   UNL     1       1.184  -2.017   0.151  0.00  0.00    +0.106 C 
ATOM      7  N   UNL     1       2.054  -2.672   0.862  0.00  0.00    -0.151 NA
ATOM      8  C   UNL     1       1.976  -3.997   1.038  0.00  0.00    +0.331 C 
ATOM      9  O   UNL     1       2.850  -4.533   1.694  0.00  0.00    -0.250 OA
ATOM     10  N   UNL     1       1.004  -4.773   0.543  0.00  0.00    -0.238 N 
ATOM     11  C   UNL     1       0.011  -4.275  -0.243  0.00  0.00    +0.231 C 
ATOM     12  O   UNL     1      -0.871  -4.977  -0.691  0.00  0.00    -0.275 OA
ATOM     13  N   UNL     1       1.211  -0.665  -0.013  0.00  0.00    -0.307 N 
ATOM     14  H   UNL     1       1.009  -5.722   0.747  0.00  0.00    +0.159 HD
ATOM     15  H   UNL     1       2.047  -0.187  -0.132  0.00  0.00    +0.153 HD
ENDROOT
BRANCH   4  16
ATOM     16  C   UNL     1      -1.452  -2.654   1.431  0.00  0.00    -0.039 A 
ATOM     17  C   UNL     1      -0.523  -2.354   2.410  0.00  0.00    +0.004 A 
ATOM     18  C   UNL     1      -0.721  -2.791   3.707  0.00  0.00    +0.000 A 
ATOM     19  C   UNL     1      -1.847  -3.527   4.024  0.00  0.00    +0.000 A 
ATOM     20  C   UNL     1      -2.776  -3.826   3.045  0.00  0.00    +0.000 A 
ATOM     21  C   UNL     1      -2.581  -3.385   1.749  0.00  0.00    +0.004 A 
ENDBRANCH   4  16
BRANCH   3  22
ATOM     22  C   UNL     1      -2.363   0.060  -0.007  0.00  0.00    +0.337 C 
ATOM     23  O   UNL     1      -2.333   1.276  -0.017  0.00  0.00    -0.245 OA
BRANCH  22  24
ATOM     24  O   UNL     1      -3.549  -0.586  -0.005  0.00  0.00    -0.465 OA
ATOM     25  C   UNL     1      -4.727   0.223  -0.016  0.00  0.00    +0.280 C 
ENDBRANCH  22  24
ENDBRANCH   3  22
TORSDOF 3
