REMARK  Name = ZINC38999678
REMARK  10 active torsions:
REMARK  status: ('A' for Active; 'I' for Inactive)
REMARK    1  A    between atoms: C_1  and  C_2
REMARK    2  A    between atoms: C_2  and  C_3
REMARK    3  A    between atoms: C_3  and  C_4
REMARK    4  A    between atoms: C_6  and  C_18
REMARK    5  A    between atoms: C_8  and  C_16
REMARK    6  A    between atoms: C_9  and  N_15
REMARK    7  A    between atoms: C_21  and  O_27
REMARK    8  A    between atoms: C_22  and  O_24
REMARK    9  A    between atoms: O_24  and  C_25
REMARK   10  A    between atoms: C_25  and  C_26
REMARK                            x       y       z     vdW  Elec       q    Type
REMARK                         _______ _______ _______ _____ _____    ______ ____
ROOT
ATOM      1  C   UNL     1      -1.413  -2.041   0.005  0.00  0.00    +0.069 C 
ATOM      2  C   UNL     1      -1.491  -2.797   1.073  0.00  0.00    +0.030 C 
ATOM      3  C   UNL     1      -1.483  -2.509   2.549  0.00  0.00    +0.098 C 
ATOM      4  C   UNL     1      -0.593  -3.572   3.166  0.00  0.00    +0.097 C 
ATOM      5  C   UNL     1      -0.140  -4.621   2.448  0.00  0.00    +0.195 C 
ATOM      6  O   UNL     1      -0.367  -4.862   1.145  0.00  0.00    -0.448 OA
ATOM      7  C   UNL     1      -1.503  -4.232   0.545  0.00  0.00    +0.343 C 
ATOM      8  N   UNL     1      -1.327  -4.028  -0.896  0.00  0.00    -0.138 NA
ATOM      9  N   UNL     1      -1.316  -2.809  -1.110  0.00  0.00    -0.155 NA
ENDROOT
BRANCH   3  10
ATOM     10  C   UNL     1      -2.880  -2.608   3.107  0.00  0.00    -0.031 A 
ATOM     11  C   UNL     1      -3.576  -3.799   3.018  0.00  0.00    +0.008 A 
ATOM     12  C   UNL     1      -4.857  -3.895   3.527  0.00  0.00    +0.049 A 
ATOM     13  C   UNL     1      -5.447  -2.795   4.130  0.00  0.00    +0.158 A 
ATOM     14  C   UNL     1      -4.746  -1.596   4.221  0.00  0.00    +0.162 A 
ATOM     15  C   UNL     1      -3.460  -1.509   3.712  0.00  0.00    +0.054 A 
BRANCH  13  16
ATOM     16  O   UNL     1      -6.707  -2.887   4.632  0.00  0.00    -0.503 OA
ATOM     17  H   UNL     1      -6.743  -3.165   5.558  0.00  0.00    +0.292 HD
ENDBRANCH  13  16
BRANCH  14  18
ATOM     18  O   UNL     1      -5.320  -0.514   4.811  0.00  0.00    -0.489 OA
BRANCH  18  19
ATOM     19  C   UNL     1      -4.542   0.683   4.868  0.00  0.00    +0.226 C 
ATOM     20  C   UNL     1      -5.348   1.783   5.562  0.00  0.00    +0.048 C 
ENDBRANCH  18  19
ENDBRANCH  14  18
ENDBRANCH   3  10
BRANCH   5  21
ATOM     21  N   UNL     1       0.634  -5.537   3.117  0.00  0.00    -0.329 N 
ATOM     22  H   UNL     1       0.829  -5.411   4.059  0.00  0.00    +0.145 HD
ATOM     23  H   UNL     1       0.985  -6.309   2.648  0.00  0.00    +0.145 HD
ENDBRANCH   5  21
BRANCH   4  24
ATOM     24  C   UNL     1      -0.224  -3.459   4.545  0.00  0.00    +0.101 C 
ATOM     25  N   UNL     1       0.069  -3.369   5.639  0.00  0.00    -0.191 NA
ENDBRANCH   4  24
BRANCH   1  26
ATOM     26  C   UNL     1      -1.433  -0.534   0.013  0.00  0.00    +0.057 C 
BRANCH  26  28
ATOM     27  C   UNL     1      -0.019   1.526   0.010  0.00  0.00    +0.004 C 
ATOM     28  C   UNL     1       0.002  -0.004   0.002  0.00  0.00    +0.003 C 
ENDBRANCH  26  28
ENDBRANCH   1  26
TORSDOF 8
