REMARK  Name = ZINC04694315
REMARK  4 active torsions:
REMARK  status: ('A' for Active; 'I' for Inactive)
REMARK    1  A    between atoms: C_5  and  S_9
REMARK    2  A    between atoms: C_6  and  C_7
REMARK    3  A    between atoms: S_9  and  C_10
REMARK    4  A    between atoms: C_10  and  C_11
REMARK                            x       y       z     vdW  Elec       q    Type
REMARK                         _______ _______ _______ _____ _____    ______ ____
ROOT
ATOM      1  S   UNL     1      -0.888   1.685  -1.458  0.00  0.00    -0.095 S 
ENDROOT
BRANCH   1   6
ATOM      2  C   UNL     1       0.622   0.638  -5.053  0.00  0.00    +0.027 A 
ATOM      3  C   UNL     1       1.718  -0.117  -4.653  0.00  0.00    -0.025 A 
ATOM      4  C   UNL     1       1.974  -0.283  -3.309  0.00  0.00    +0.046 A 
ATOM      5  N   UNL     1       1.177   0.265  -2.400  0.00  0.00    -0.244 NA
ATOM      6  C   UNL     1       0.122   0.990  -2.724  0.00  0.00    +0.115 A 
ATOM      7  C   UNL     1      -0.201   1.203  -4.076  0.00  0.00    +0.084 A 
ATOM      8  C   UNL     1       3.155  -1.074  -2.807  0.00  0.00    +0.056 C 
ATOM      9  C   UNL     1       3.703  -1.981  -3.907  0.00  0.00    +0.006 C 
ATOM     10  C   UNL     1       3.938  -1.132  -5.162  0.00  0.00    +0.005 C 
ATOM     11  C   UNL     1       2.579  -0.725  -5.729  0.00  0.00    +0.037 C 
BRANCH   7  12
ATOM     12  C   UNL     1      -1.343   1.985  -4.442  0.00  0.00    +0.102 C 
ATOM     13  N   UNL     1      -2.249   2.606  -4.733  0.00  0.00    -0.191 NA
ENDBRANCH   7  12
ENDBRANCH   1   6
BRANCH   1  14
ATOM     14  C   UNL     1      -0.013   1.086   0.008  0.00  0.00    +0.172 C 
BRANCH  14  15
ATOM     15  C   UNL     1      -0.718   1.572   1.248  0.00  0.00    +0.229 C 
ATOM     16  O   UNL     1      -1.714   2.256   1.150  0.00  0.00    -0.275 OA
ATOM     17  N   UNL     1      -0.242   1.246   2.466  0.00  0.00    -0.264 N 
ATOM     18  C   UNL     1      -0.894   1.696   3.613  0.00  0.00    +0.210 A 
ATOM     19  C   UNL     1      -0.489   1.419   4.995  0.00  0.00    +0.202 A 
ATOM     20  N   UNL     1      -1.338   2.003   5.796  0.00  0.00    -0.032 NA
ATOM     21  O   UNL     1      -2.303   2.665   4.997  0.00  0.00    -0.239 OA
ATOM     22  N   UNL     1      -1.965   2.438   3.640  0.00  0.00    -0.032 NA
ATOM     23  N   UNL     1       0.611   0.664   5.386  0.00  0.00    -0.338 N 
ATOM     24  H   UNL     1       0.555   0.699   2.544  0.00  0.00    +0.156 HD
ATOM     25  H   UNL     1       1.189   0.267   4.716  0.00  0.00    +0.144 HD
ATOM     26  H   UNL     1       0.801   0.535   6.328  0.00  0.00    +0.144 HD
ENDBRANCH  14  15
ENDBRANCH   1  14
TORSDOF 4
