REMARK  Name = ZINC67576115
REMARK  8 active torsions:
REMARK  status: ('A' for Active; 'I' for Inactive)
REMARK    1  A    between atoms: C_1  and  C_2
REMARK    2  A    between atoms: N_4  and  C_5
REMARK    3  A    between atoms: C_8  and  N_12
REMARK    4  A    between atoms: N_15  and  C_16
REMARK    5  A    between atoms: C_16  and  C_17
REMARK    6  A    between atoms: C_17  and  N_18
REMARK    7  A    between atoms: N_18  and  C_19
REMARK    8  A    between atoms: C_24  and  N_25
REMARK                            x       y       z     vdW  Elec       q    Type
REMARK                         _______ _______ _______ _____ _____    ______ ____
ROOT
ATOM      1  N   UNL     1      -0.884  -6.285   1.845  0.00  0.00    -0.268 N 
ATOM      2  C   UNL     1       0.341  -6.846   1.823  0.00  0.00    +0.304 C 
ATOM      3  O   UNL     1       1.332  -6.146   1.912  0.00  0.00    -0.253 OA
ATOM      4  N   UNL     1       0.469  -8.182   1.704  0.00  0.00    -0.298 N 
ATOM      5  H   UNL     1      -1.672  -6.837   1.724  0.00  0.00    +0.156 HD
ATOM      6  H   UNL     1      -0.322  -8.740   1.633  0.00  0.00    +0.150 HD
ENDROOT
BRANCH   1  10
ATOM      7  C   UNL     1      -1.286  -2.174   2.428  0.00  0.00    +0.035 A 
ATOM      8  C   UNL     1      -0.133  -2.683   1.847  0.00  0.00    +0.025 A 
ATOM      9  C   UNL     1       0.000  -4.044   1.653  0.00  0.00    +0.026 A 
ATOM     10  C   UNL     1      -1.019  -4.903   2.041  0.00  0.00    +0.053 A 
ATOM     11  C   UNL     1      -2.173  -4.394   2.624  0.00  0.00    +0.064 A 
ATOM     12  C   UNL     1      -2.304  -3.033   2.822  0.00  0.00    +0.045 A 
ATOM     13 CL   UNL     1      -3.448  -5.468   3.108  0.00  0.00    -0.082 Cl
BRANCH   7  17
ATOM     14  C   UNL     1      -2.125   1.158   3.971  0.00  0.00    +0.109 C 
ATOM     15  C   UNL     1      -2.056  -0.326   3.716  0.00  0.00    +0.214 C 
ATOM     16  O   UNL     1      -2.572  -1.099   4.495  0.00  0.00    -0.276 OA
ATOM     17  N   UNL     1      -1.421  -0.793   2.623  0.00  0.00    -0.286 N 
ATOM     18  H   UNL     1      -1.057  -0.173   1.972  0.00  0.00    +0.155 HD
ENDBRANCH   7  17
ENDBRANCH   1  10
BRANCH   4  19
ATOM     19  C   UNL     1       1.800  -8.792   1.681  0.00  0.00    +0.124 C 
BRANCH  19  20
ATOM     20  C   UNL     1       1.664 -10.309   1.538  0.00  0.00    +0.120 C 
BRANCH  20  21
ATOM     21  N   UNL     1       2.996 -10.919   1.514  0.00  0.00    -0.341 N 
ATOM     22  H   UNL     1       3.786 -10.361   1.585  0.00  0.00    +0.146 HD
BRANCH  21  23
ATOM     23  C   UNL     1       3.128 -12.304   1.390  0.00  0.00    +0.058 A 
ATOM     24  C   UNL     1       1.998 -13.101   1.255  0.00  0.00    +0.025 A 
ATOM     25  C   UNL     1       2.132 -14.470   1.132  0.00  0.00    +0.002 A 
ATOM     26  C   UNL     1       3.389 -15.047   1.144  0.00  0.00    +0.002 A 
ATOM     27  C   UNL     1       4.515 -14.257   1.279  0.00  0.00    +0.034 A 
ATOM     28  C   UNL     1       4.389 -12.886   1.396  0.00  0.00    +0.147 A 
BRANCH  28  29
ATOM     29  N   UNL     1       5.595 -12.040   1.534  0.00  0.00    +0.058 N 
ATOM     30  O   UNL     1       5.644 -10.962   0.988  0.00  0.00    -0.126 OA
ATOM     31  O   UNL     1       6.532 -12.426   2.194  0.00  0.00    -0.126 OA
ENDBRANCH  28  29
ENDBRANCH  21  23
ENDBRANCH  20  21
ENDBRANCH  19  20
ENDBRANCH   4  19
TORSDOF 7
