REMARK  Name = ZINC28632381
REMARK  8 active torsions:
REMARK  status: ('A' for Active; 'I' for Inactive)
REMARK    1  A    between atoms: C_1  and  C_2
REMARK    2  A    between atoms: C_2  and  O_3
REMARK    3  A    between atoms: O_3  and  C_4
REMARK    4  A    between atoms: C_6  and  C_12
REMARK    5  A    between atoms: C_9  and  O_10
REMARK    6  A    between atoms: N_13  and  N_14
REMARK    7  A    between atoms: C_15  and  C_17
REMARK    8  A    between atoms: C_19  and  C_25
REMARK                            x       y       z     vdW  Elec       q    Type
REMARK                         _______ _______ _______ _____ _____    ______ ____
ROOT
ATOM      1  N   UNL     1       3.100  -1.626  -5.251  0.00  0.00    -0.206 N 
ATOM      2  C   UNL     1       3.867  -2.224  -6.184  0.00  0.00    +0.245 C 
ATOM      3  O   UNL     1       4.509  -1.551  -6.963  0.00  0.00    -0.273 OA
ATOM      4  H   UNL     1       2.518  -2.236  -4.544  0.00  0.00    +0.177 HD
ENDROOT
BRANCH   2   5
ATOM      5  C   UNL     1       3.927  -3.728  -6.260  0.00  0.00    +0.171 C 
ATOM      6  C   UNL     1       4.938  -4.176  -7.340  0.00  0.00    +0.057 C 
ATOM      7  C   UNL     1       5.555  -5.435  -6.692  0.00  0.00    +0.113 C 
ATOM      8  N   UNL     1       5.392  -5.250  -5.245  0.00  0.00    -0.314 N 
ATOM      9  C   UNL     1       4.480  -4.301  -4.974  0.00  0.00    +0.226 C 
ATOM     10  O   UNL     1       4.149  -3.954  -3.860  0.00  0.00    -0.275 OA
ATOM     11  H   UNL     1       5.984  -5.856  -4.543  0.00  0.00    +0.149 HD
BRANCH   6  12
ATOM     12  C   UNL     1       4.234  -4.521  -8.627  0.00  0.00    -0.042 A 
ATOM     13  C   UNL     1       3.293  -5.533  -8.650  0.00  0.00    +0.004 A 
ATOM     14  C   UNL     1       2.644  -5.847  -9.830  0.00  0.00    +0.000 A 
ATOM     15  C   UNL     1       2.944  -5.155 -10.989  0.00  0.00    +0.000 A 
ATOM     16  C   UNL     1       3.889  -4.147 -10.967  0.00  0.00    +0.000 A 
ATOM     17  C   UNL     1       4.535  -3.830  -9.786  0.00  0.00    +0.004 A 
ENDBRANCH   6  12
ENDBRANCH   2   5
BRANCH   1  19
ATOM     18  C   UNL     1       2.400   0.348  -4.213  0.00  0.00    +0.138 C 
ATOM     19  N   UNL     1       3.045  -0.228  -5.181  0.00  0.00    -0.188 NA
BRANCH  18  22
ATOM     20  C   UNL     1       1.316  -0.452  -0.707  0.00  0.00    +0.163 A 
ATOM     21  C   UNL     1       1.407   0.171  -1.938  0.00  0.00    +0.059 A 
ATOM     22  C   UNL     1       2.299  -0.312  -2.898  0.00  0.00    -0.001 A 
ATOM     23  C   UNL     1       3.096  -1.423  -2.610  0.00  0.00    +0.027 A 
ATOM     24  C   UNL     1       3.000  -2.040  -1.380  0.00  0.00    +0.059 A 
ATOM     25  C   UNL     1       2.117  -1.556  -0.425  0.00  0.00    +0.172 A 
ATOM     26  I   UNL     1       4.196  -3.705  -0.949  0.00  0.00    -0.040 I 
BRANCH  25  27
ATOM     27  O   UNL     1       2.030  -2.164   0.788  0.00  0.00    -0.503 OA
ATOM     28  H   UNL     1       2.662  -3.036   1.013  0.00  0.00    +0.292 HD
ENDBRANCH  25  27
BRANCH  20  29
ATOM     29  O   UNL     1       0.448   0.016   0.229  0.00  0.00    -0.489 OA
BRANCH  29  31
ATOM     30  C   UNL     1      -1.247   1.534   1.045  0.00  0.00    +0.048 C 
ATOM     31  C   UNL     1      -0.338   1.155  -0.126  0.00  0.00    +0.226 C 
ENDBRANCH  29  31
ENDBRANCH  20  29
ENDBRANCH  18  22
ENDBRANCH   1  19
TORSDOF 7
