REMARK  Name = ZINC17095145
REMARK  5 active torsions:
REMARK  status: ('A' for Active; 'I' for Inactive)
REMARK    1  A    between atoms: C_1  and  O_2
REMARK    2  A    between atoms: O_2  and  C_3
REMARK    3  A    between atoms: C_6  and  C_9
REMARK    4  A    between atoms: C_14  and  C_20
REMARK    5  A    between atoms: C_24  and  N_26
REMARK                            x       y       z     vdW  Elec       q    Type
REMARK                         _______ _______ _______ _____ _____    ______ ____
ROOT
ATOM      1  C   UNL     1      -0.670  -4.277  -3.253  0.00  0.00    +0.032 C 
ATOM      2  C   UNL     1      -1.569  -3.330  -2.455  0.00  0.00    +0.059 C 
ATOM      3  C   UNL     1      -0.830  -2.837  -1.236  0.00  0.00    +0.018 C 
ATOM      4  C   UNL     1       0.511  -2.692  -1.251  0.00  0.00    +0.020 C 
ATOM      5  C   UNL     1       1.228  -2.186  -0.022  0.00  0.00    +0.063 C 
ATOM      6  C   UNL     1       0.524  -2.713   1.229  0.00  0.00    +0.109 C 
ATOM      7  C   UNL     1      -0.958  -2.474   1.099  0.00  0.00    +0.218 C 
ATOM      8  O   UNL     1      -1.620  -2.226   2.084  0.00  0.00    -0.275 OA
ATOM      9  N   UNL     1      -1.549  -2.535  -0.107  0.00  0.00    -0.289 N 
ATOM     10  C   UNL     1       1.267  -3.005  -2.393  0.00  0.00    +0.162 C 
ATOM     11  O   UNL     1       2.473  -2.852  -2.373  0.00  0.00    -0.292 OA
ATOM     12  C   UNL     1       0.608  -3.526  -3.642  0.00  0.00    +0.088 C 
ATOM     13  H   UNL     1      -2.501  -2.361  -0.181  0.00  0.00    +0.155 HD
ENDROOT
BRANCH   5  14
ATOM     14  C   UNL     1       1.208  -0.679  -0.013  0.00  0.00    -0.037 A 
ATOM     15  C   UNL     1       0.002  -0.004   0.002  0.00  0.00    +0.006 A 
ATOM     16  C   UNL     1      -0.017   1.378   0.010  0.00  0.00    +0.022 A 
ATOM     17  C   UNL     1       1.172   2.086   0.002  0.00  0.00    +0.071 A 
ATOM     18  C   UNL     1       2.379   1.409  -0.013  0.00  0.00    +0.145 A 
ATOM     19  C   UNL     1       2.397   0.027  -0.021  0.00  0.00    +0.038 A 
ATOM     20 CL   UNL     1       1.149   3.821   0.011  0.00  0.00    -0.081 Cl
BRANCH  18  21
ATOM     21  N   UNL     1       3.651   2.166  -0.022  0.00  0.00    +0.058 N 
ATOM     22  O   UNL     1       4.714   1.570  -0.035  0.00  0.00    -0.126 OA
ATOM     23  O   UNL     1       3.636   3.384  -0.015  0.00  0.00    -0.126 OA
ENDBRANCH  18  21
ENDBRANCH   5  14
BRANCH   1  27
ATOM     24  C   UNL     1      -2.716  -5.570  -6.775  0.00  0.00    +0.120 A 
ATOM     25  C   UNL     1      -2.295  -6.500  -5.835  0.00  0.00    +0.046 A 
ATOM     26  C   UNL     1      -1.634  -6.079  -4.697  0.00  0.00    +0.007 A 
ATOM     27  C   UNL     1      -1.391  -4.733  -4.495  0.00  0.00    -0.043 A 
ATOM     28  C   UNL     1      -1.815  -3.804  -5.428  0.00  0.00    +0.007 A 
ATOM     29  C   UNL     1      -2.471  -4.220  -6.570  0.00  0.00    +0.046 A 
BRANCH  24  31
ATOM     30  C   UNL     1      -3.770  -4.969  -8.820  0.00  0.00    +0.277 C 
ATOM     31  O   UNL     1      -3.366  -5.981  -7.895  0.00  0.00    -0.495 OA
ENDBRANCH  24  31
ENDBRANCH   1  27
TORSDOF 4
