REMARK  Name = ZINC17146904
REMARK  7 active torsions:
REMARK  status: ('A' for Active; 'I' for Inactive)
REMARK    1  A    between atoms: C_1  and  C_2
REMARK    2  A    between atoms: C_2  and  C_3
REMARK    3  A    between atoms: C_3  and  S_4
REMARK    4  A    between atoms: S_4  and  C_5
REMARK    5  A    between atoms: N_15  and  C_16
REMARK    6  A    between atoms: C_16  and  O_18
REMARK    7  A    between atoms: O_18  and  C_19
REMARK                            x       y       z     vdW  Elec       q    Type
REMARK                         _______ _______ _______ _____ _____    ______ ____
ROOT
ATOM      1  C   UNL     1       1.564  -2.720  -2.771  0.00  0.00    +0.010 A 
ATOM      2  C   UNL     1       2.040  -1.706  -3.597  0.00  0.00    +0.017 A 
ATOM      3  C   UNL     1       2.712  -2.018  -4.761  0.00  0.00    +0.029 A 
ATOM      4  C   UNL     1       2.915  -3.346  -5.110  0.00  0.00    +0.065 A 
ATOM      5  C   UNL     1       2.439  -4.366  -4.283  0.00  0.00    +0.066 A 
ATOM      6  C   UNL     1       1.769  -4.049  -3.111  0.00  0.00    +0.042 A 
ATOM      7  N   UNL     1       2.786  -5.574  -4.880  0.00  0.00    -0.326 N 
ATOM      8  C   UNL     1       3.452  -5.304  -6.035  0.00  0.00    +0.201 A 
ATOM      9  N   UNL     1       3.542  -3.957  -6.195  0.00  0.00    -0.326 N 
ATOM     10  H   UNL     1       3.970  -3.500  -6.936  0.00  0.00    +0.169 HD
ATOM     11  N   UNL     1       3.938  -6.213  -6.873  0.00  0.00    -0.109 NA
ATOM     12  H   UNL     1       2.586  -6.457  -4.532  0.00  0.00    +0.169 HD
ENDROOT
BRANCH  11  13
ATOM     13  C   UNL     1       4.477  -5.830  -8.034  0.00  0.00    +0.427 C 
ATOM     14  O   UNL     1       4.611  -4.645  -8.282  0.00  0.00    -0.224 OA
BRANCH  13  15
ATOM     15  O   UNL     1       4.874  -6.756  -8.932  0.00  0.00    -0.452 OA
ATOM     16  C   UNL     1       5.442  -6.276 -10.152  0.00  0.00    +0.282 C 
ENDBRANCH  13  15
ENDBRANCH  11  13
BRANCH   1  17
ATOM     17  S   UNL     1       0.706  -2.314  -1.286  0.00  0.00    -0.125 S 
BRANCH  17  18
ATOM     18  C   UNL     1       0.686  -0.500  -1.273  0.00  0.00    +0.074 C 
BRANCH  18  20
ATOM     19  C   UNL     1      -0.056   1.523  -0.008  0.00  0.00    +0.004 C 
ATOM     20  C   UNL     1      -0.039  -0.007  -0.019  0.00  0.00    +0.008 C 
ENDBRANCH  18  20
ENDBRANCH  17  18
ENDBRANCH   1  17
TORSDOF 5
