REMARK  Name = ZINC22616772
REMARK  10 active torsions:
REMARK  status: ('A' for Active; 'I' for Inactive)
REMARK    1  A    between atoms: C_1  and  C_2
REMARK    2  A    between atoms: C_3  and  C_31
REMARK    3  A    between atoms: C_11  and  C_13
REMARK    4  A    between atoms: C_13  and  C_15
REMARK    5  A    between atoms: C_13  and  S_16
REMARK    6  A    between atoms: S_16  and  C_17
REMARK    7  A    between atoms: C_20  and  C_23
REMARK    8  A    between atoms: N_21  and  N_22
REMARK    9  A    between atoms: C_28  and  O_29
REMARK   10  A    between atoms: O_29  and  C_30
REMARK                            x       y       z     vdW  Elec       q    Type
REMARK                         _______ _______ _______ _____ _____    ______ ____
ROOT
ATOM      1  S   UNL     1      -0.451  -2.587   6.054  0.00  0.00    -0.074 S 
ENDROOT
BRANCH   1   2
ATOM      2  C   UNL     1      -0.597  -3.879   7.242  0.00  0.00    +0.209 A 
ATOM      3  N   UNL     1      -0.324  -5.150   7.050  0.00  0.00    -0.121 NA
ATOM      4  N   UNL     1      -0.541  -5.817   8.127  0.00  0.00    -0.127 NA
ATOM      5  C   UNL     1      -0.966  -5.013   9.074  0.00  0.00    +0.185 A 
ATOM      6  N   UNL     1      -1.010  -3.746   8.538  0.00  0.00    -0.224 N 
BRANCH   5   7
ATOM      7  C   UNL     1      -1.324  -5.395  10.455  0.00  0.00    +0.062 A 
ATOM      8  C   UNL     1      -2.510  -4.932  11.026  0.00  0.00    +0.015 A 
ATOM      9  C   UNL     1      -2.839  -5.292  12.316  0.00  0.00    +0.001 A 
ATOM     10  C   UNL     1      -1.998  -6.112  13.048  0.00  0.00    +0.004 A 
ATOM     11  C   UNL     1      -0.820  -6.577  12.493  0.00  0.00    +0.046 A 
ATOM     12  C   UNL     1      -0.478  -6.230  11.196  0.00  0.00    +0.131 A 
BRANCH  12  13
ATOM     13  O   UNL     1       0.675  -6.691  10.648  0.00  0.00    -0.494 OA
ATOM     14  C   UNL     1       1.488  -7.538  11.464  0.00  0.00    +0.277 C 
ENDBRANCH  12  13
ENDBRANCH   5   7
BRANCH   6  15
ATOM     15  N   UNL     1      -1.389  -2.596   9.169  0.00  0.00    -0.295 N 
ATOM     16  H   UNL     1      -2.392  -2.482   9.141  0.00  0.00    +0.163 HD
ATOM     17  H   UNL     1      -1.050  -2.576  10.120  0.00  0.00    +0.163 HD
ENDBRANCH   6  15
ENDBRANCH   1   2
BRANCH   1  18
ATOM     18  C   UNL     1       0.138  -3.429   4.559  0.00  0.00    +0.117 C 
ATOM     19  C   UNL     1       1.537  -3.995   4.810  0.00  0.00    +0.027 C 
BRANCH  18  30
ATOM     20  C   UNL     1       0.460   1.612   0.152  0.00  0.00    +0.045 C 
ATOM     21  C   UNL     1       0.313   0.113   0.105  0.00  0.00    -0.026 A 
ATOM     22  C   UNL     1       0.212  -0.523  -1.072  0.00  0.00    -0.008 A 
ATOM     23  S   UNL     1       0.062  -2.237  -0.604  0.00  0.00    -0.073 S 
ATOM     24  C   UNL     1       0.139  -2.048   1.158  0.00  0.00    +0.116 A 
ATOM     25  C   UNL     1       0.285  -0.660   1.333  0.00  0.00    +0.075 A 
ATOM     26  C   UNL     1       0.379  -0.213   2.691  0.00  0.00    +0.260 A 
ATOM     27  O   UNL     1       0.502   0.973   2.946  0.00  0.00    -0.267 OA
ATOM     28  N   UNL     1       0.328  -1.123   3.682  0.00  0.00    -0.309 N 
ATOM     29  H   UNL     1       0.392  -0.827   4.603  0.00  0.00    +0.170 HD
ATOM     30  C   UNL     1       0.190  -2.448   3.417  0.00  0.00    +0.124 A 
ATOM     31  N   UNL     1       0.092  -2.886   2.190  0.00  0.00    -0.225 NA
ATOM     32  C   UNL     1       0.222   0.069  -2.458  0.00  0.00    +0.052 C 
ENDBRANCH  18  30
ENDBRANCH   1  18
TORSDOF 6
