REMARK  Name = ZINC02882361
REMARK  7 active torsions:
REMARK  status: ('A' for Active; 'I' for Inactive)
REMARK    1  A    between atoms: C_3  and  C_29
REMARK    2  A    between atoms: C_5  and  N_7
REMARK    3  A    between atoms: C_10  and  C_14
REMARK    4  A    between atoms: C_10  and  N_18
REMARK    5  A    between atoms: N_18  and  S_19
REMARK    6  A    between atoms: S_19  and  C_22
REMARK    7  A    between atoms: C_25  and  N_28
REMARK                            x       y       z     vdW  Elec       q    Type
REMARK                         _______ _______ _______ _____ _____    ______ ____
ROOT
ATOM      1  N   UNL     1      -2.616  -3.304  -0.412  0.00  0.00    -0.191 N 
ATOM      2  C   UNL     1      -2.815  -4.635  -0.338  0.00  0.00    +0.276 C 
ATOM      3  O   UNL     1      -1.984  -5.508  -0.464  0.00  0.00    -0.271 OA
ATOM      4  C   UNL     1      -4.295  -4.813  -0.063  0.00  0.00    +0.280 C 
ATOM      5  N   UNL     1      -4.808  -3.433  -0.017  0.00  0.00    -0.265 N 
ATOM      6  C   UNL     1      -3.754  -2.624  -0.231  0.00  0.00    +0.315 C 
ATOM      7  O   UNL     1      -3.828  -1.411  -0.258  0.00  0.00    -0.252 OA
ATOM      8  H   UNL     1      -5.726  -3.160   0.138  0.00  0.00    +0.153 HD
ENDROOT
BRANCH   1  13
ATOM      9  C   UNL     1      -0.057  -0.748  -1.087  0.00  0.00    +0.002 A 
ATOM     10  C   UNL     1       1.085  -1.527  -1.132  0.00  0.00    +0.012 A 
ATOM     11  C   UNL     1       1.002  -2.893  -0.940  0.00  0.00    +0.057 A 
ATOM     12  C   UNL     1      -0.224  -3.486  -0.706  0.00  0.00    +0.036 A 
ATOM     13  C   UNL     1      -1.371  -2.706  -0.654  0.00  0.00    +0.046 A 
ATOM     14  C   UNL     1      -1.285  -1.334  -0.848  0.00  0.00    +0.024 A 
BRANCH  11  15
ATOM     15  C   UNL     1       2.249  -3.738  -0.990  0.00  0.00    +0.417 C 
ATOM     16  F   UNL     1       3.356  -2.921  -1.244  0.00  0.00    -0.166 F 
ATOM     17  F   UNL     1       2.421  -4.389   0.236  0.00  0.00    -0.166 F 
ATOM     18  F   UNL     1       2.127  -4.688  -2.010  0.00  0.00    -0.166 F 
ENDBRANCH  11  15
ENDBRANCH   1  13
BRANCH   4  19
ATOM     19  C   UNL     1      -4.959  -5.596  -1.198  0.00  0.00    +0.435 C 
ATOM     20  F   UNL     1      -4.608  -5.024  -2.426  0.00  0.00    -0.166 F 
ATOM     21  F   UNL     1      -4.527  -6.926  -1.163  0.00  0.00    -0.166 F 
ATOM     22  F   UNL     1      -6.349  -5.552  -1.044  0.00  0.00    -0.166 F 
ENDBRANCH   4  19
BRANCH   4  23
ATOM     23  N   UNL     1      -4.511  -5.486   1.220  0.00  0.00    -0.151 NA
ATOM     24  H   UNL     1      -5.003  -6.322   1.252  0.00  0.00    +0.151 HD
BRANCH  23  25
ATOM     25  S   UNL     1      -3.916  -4.821   2.615  0.00  0.00    +0.061 S 
ATOM     26  O   UNL     1      -4.258  -5.712   3.667  0.00  0.00    -0.153 OA
ATOM     27  O   UNL     1      -2.574  -4.441   2.343  0.00  0.00    -0.153 OA
BRANCH  25  28
ATOM     28  C   UNL     1      -4.812  -3.331   2.904  0.00  0.00    +0.105 A 
ATOM     29  C   UNL     1      -4.274  -2.117   2.522  0.00  0.00    +0.030 A 
ATOM     30  C   UNL     1      -4.976  -0.948   2.742  0.00  0.00    +0.024 A 
ATOM     31  C   UNL     1      -6.220  -0.993   3.360  0.00  0.00    +0.025 A 
ATOM     32  C   UNL     1      -6.755  -2.214   3.748  0.00  0.00    +0.024 A 
ATOM     33  C   UNL     1      -6.050  -3.380   3.519  0.00  0.00    +0.030 A 
BRANCH  31  34
ATOM     34  N   UNL     1      -6.930   0.188   3.590  0.00  0.00    -0.358 N 
ATOM     35  H   UNL     1      -7.798   0.155   4.022  0.00  0.00    +0.142 HD
ATOM     36  H   UNL     1      -6.555   1.040   3.318  0.00  0.00    +0.142 HD
ENDBRANCH  31  34
ENDBRANCH  25  28
ENDBRANCH  23  25
ENDBRANCH   4  23
TORSDOF 7
