REMARK  Name = ZINC39466639
REMARK  5 active torsions:
REMARK  status: ('A' for Active; 'I' for Inactive)
REMARK    1  A    between atoms: C_1  and  S_2
REMARK    2  A    between atoms: S_2  and  C_3
REMARK    3  A    between atoms: P_12  and  C_22
REMARK    4  A    between atoms: C_20  and  O_21
REMARK    5  A    between atoms: C_22  and  C_23
REMARK                            x       y       z     vdW  Elec       q    Type
REMARK                         _______ _______ _______ _____ _____    ______ ____
ROOT
ATOM      1  C   UNL     1      -1.702  -0.454   0.016  0.00  0.00    +0.045 C 
ATOM      2  C   UNL     1      -2.648   0.492   0.024  0.00  0.00    -0.005 C 
ATOM      3  C   UNL     1      -4.100   0.096   0.025  0.00  0.00    +0.017 C 
ATOM      4  C   UNL     1      -4.953   1.211  -0.563  0.00  0.00    -0.003 C 
ATOM      5  C   UNL     1      -6.252   0.657  -1.164  0.00  0.00    -0.020 C 
ATOM      6  C   UNL     1      -7.282   1.790  -1.039  0.00  0.00    +0.156 C 
ATOM      7  O   UNL     1      -8.540   1.387  -1.603  0.00  0.00    -0.319 OA
ATOM      8  P   UNL     1      -9.158  -0.035  -1.108  0.00  0.00    +0.262 P 
ATOM      9  O   UNL     1     -10.133  -0.545  -2.098  0.00  0.00    -0.274 OA
ATOM     10  N   UNL     1      -7.860  -1.046  -1.008  0.00  0.00    -0.291 NA
ATOM     11  N   UNL     1      -6.689  -0.550  -0.472  0.00  0.00    +0.397 N 
ATOM     12  C   UNL     1      -5.735  -1.659  -0.628  0.00  0.00    -0.046 C 
ATOM     13  C   UNL     1      -4.295  -1.162  -0.817  0.00  0.00    +0.008 C 
ATOM     14  C   UNL     1      -3.321  -2.224  -0.380  0.00  0.00    +0.022 C 
ATOM     15  C   UNL     1      -2.096  -1.879   0.012  0.00  0.00    +0.126 C 
ATOM     16  H   UNL     1      -7.924  -1.965  -1.312  0.00  0.00    +0.111 HD
ATOM     17  H   UNL     1      -6.815  -0.349   0.509  0.00  0.00    -0.055 HD
ENDROOT
BRANCH   1  19
ATOM     18  C   UNL     1      -0.022   1.810   0.012  0.00  0.00    +0.090 C 
ATOM     19  S   UNL     1       0.002  -0.004   0.002  0.00  0.00    -0.125 S 
ENDBRANCH   1  19
BRANCH  15  20
ATOM     20  O   UNL     1      -1.215  -2.834   0.411  0.00  0.00    -0.506 OA
ATOM     21  H   UNL     1      -0.354  -2.486   0.681  0.00  0.00    +0.292 HD
ENDBRANCH  15  20
BRANCH   8  22
ATOM     22  C   UNL     1      -9.950   0.150   0.523  0.00  0.00    +0.147 C 
BRANCH  22  23
ATOM     23  C   UNL     1     -11.062   1.163   0.429  0.00  0.00    -0.037 A 
ATOM     24  C   UNL     1     -10.800   2.501   0.656  0.00  0.00    +0.004 A 
ATOM     25  C   UNL     1     -11.820   3.430   0.569  0.00  0.00    +0.000 A 
ATOM     26  C   UNL     1     -13.103   3.021   0.256  0.00  0.00    +0.000 A 
ATOM     27  C   UNL     1     -13.365   1.683   0.028  0.00  0.00    +0.000 A 
ATOM     28  C   UNL     1     -12.344   0.754   0.110  0.00  0.00    +0.004 A 
ENDBRANCH  22  23
ENDBRANCH   8  22
TORSDOF 4
