REMARK  Name = ZINC52345033
REMARK  6 active torsions:
REMARK  status: ('A' for Active; 'I' for Inactive)
REMARK    1  A    between atoms: C_1  and  C_2
REMARK    2  A    between atoms: C_2  and  C_4
REMARK    3  A    between atoms: C_2  and  N_10
REMARK    4  A    between atoms: C_11  and  C_13
REMARK    5  A    between atoms: C_15  and  N_22
REMARK    6  A    between atoms: C_18  and  N_19
REMARK                            x       y       z     vdW  Elec       q    Type
REMARK                         _______ _______ _______ _____ _____    ______ ____
ROOT
ATOM      1  N   UNL     1      -0.017  -0.940   1.306  0.00  0.00    -0.308 N 
ATOM      2  C   UNL     1      -0.372  -0.795   2.599  0.00  0.00    +0.247 C 
ATOM      3  O   UNL     1      -1.459  -0.331   2.882  0.00  0.00    -0.270 OA
ATOM      4  H   UNL     1       0.851  -1.310   1.080  0.00  0.00    +0.149 HD
ENDROOT
BRANCH   2   5
ATOM      5  C   UNL     1       0.561  -1.202   3.671  0.00  0.00    +0.069 A 
ATOM      6  C   UNL     1       1.078  -2.497   3.696  0.00  0.00    +0.038 A 
ATOM      7  C   UNL     1       1.952  -2.871   4.705  0.00  0.00    +0.025 A 
ATOM      8  C   UNL     1       2.311  -1.956   5.688  0.00  0.00    +0.025 A 
ATOM      9  C   UNL     1       1.798  -0.673   5.664  0.00  0.00    +0.035 A 
ATOM     10  C   UNL     1       0.932  -0.289   4.660  0.00  0.00    +0.138 A 
BRANCH  10  11
ATOM     11  N   UNL     1       0.392   1.089   4.635  0.00  0.00    +0.057 N 
ATOM     12  O   UNL     1       0.612   1.841   5.556  0.00  0.00    -0.126 OA
ATOM     13  O   UNL     1      -0.271   1.462   3.695  0.00  0.00    -0.126 OA
ENDBRANCH  10  11
BRANCH   7  14
ATOM     14  N   UNL     1       2.472  -4.168   4.734  0.00  0.00    -0.358 N 
ATOM     15  H   UNL     1       2.221  -4.806   4.048  0.00  0.00    +0.142 HD
ATOM     16  H   UNL     1       3.083  -4.429   5.440  0.00  0.00    +0.142 HD
ENDBRANCH   7  14
ENDBRANCH   2   5
BRANCH   1  18
ATOM     17  C   UNL     1      -0.780   0.960  -0.032  0.00  0.00    +0.028 C 
ATOM     18  C   UNL     1      -0.941  -0.537   0.244  0.00  0.00    +0.073 C 
BRANCH  18  19
ATOM     19  C   UNL     1      -0.630  -1.326  -1.030  0.00  0.00    +0.009 C 
ATOM     20  C   UNL     1       0.808  -1.040  -1.468  0.00  0.00    +0.005 C 
ATOM     21  C   UNL     1       1.120  -1.829  -2.741  0.00  0.00    +0.000 C 
ATOM     22  C   UNL     1       0.154  -1.408  -3.851  0.00  0.00    +0.000 C 
ATOM     23  C   UNL     1      -1.283  -1.694  -3.413  0.00  0.00    +0.000 C 
ATOM     24  C   UNL     1      -1.595  -0.905  -2.140  0.00  0.00    +0.005 C 
ENDBRANCH  18  19
ENDBRANCH   1  18
TORSDOF 5
