REMARK  Name = ZINC43564615
REMARK  8 active torsions:
REMARK  status: ('A' for Active; 'I' for Inactive)
REMARK    1  A    between atoms: C_1  and  C_2
REMARK    2  A    between atoms: C_6  and  C_22
REMARK    3  A    between atoms: N_12  and  CA_13
REMARK    4  A    between atoms: CA_13  and  CB_15
REMARK    5  A    between atoms: CA_13  and  C_19
REMARK    6  A    between atoms: CB_15  and  CG_16
REMARK    7  A    between atoms: CG_16  and  CD1_17
REMARK    8  A    between atoms: CG_16  and  CD2_18
REMARK                            x       y       z     vdW  Elec       q    Type
REMARK                         _______ _______ _______ _____ _____    ______ ____
ROOT
ATOM      1  C   UNK A   0      -0.017   1.526   0.009  0.00  0.00    +0.028 C 
ATOM      2  C   UNK A   0       0.001  -0.004   0.003  0.00  0.00    +0.074 C 
ATOM      3  C   UNK A   0      -1.429  -0.535   0.148  0.00  0.00    +0.023 C 
ATOM      4  C   UNK A   0      -1.392  -2.059   0.282  0.00  0.00    +0.016 C 
ATOM      5  C   UNK A   0      -0.604  -2.444   1.536  0.00  0.00    +0.092 C 
ATOM      6  C   UNK A   0       0.835  -1.935   1.406  0.00  0.00    +0.122 C 
ATOM      7  N   UNK A   0       0.806  -0.492   1.131  0.00  0.00    -0.282 N 
ATOM      8  C   UNK A   0       1.502   0.368   1.901  0.00  0.00    +0.303 C 
ATOM      9  O   UNK A   0       1.395   1.567   1.723  0.00  0.00    -0.253 OA
ATOM     10  N   LEU A   1       2.316  -0.099   2.868  0.00  0.00    -0.286 N 
ATOM     11  H   LEU A   1       2.458  -1.054   2.962  0.00  0.00    +0.151 HD
ENDROOT
BRANCH   5  12
ATOM     12  C   UNK A   0      -0.596  -3.944   1.684  0.00  0.00    +0.215 C 
ATOM     13  O   UNK A   0      -1.165  -4.637   0.867  0.00  0.00    -0.276 OA
ATOM     14  N   UNK A   0       0.043  -4.515   2.725  0.00  0.00    -0.329 N 
ATOM     15  H   UNK A   0       0.497  -3.961   3.378  0.00  0.00    +0.145 HD
ATOM     16  H   UNK A   0       0.048  -5.480   2.820  0.00  0.00    +0.145 HD
ENDBRANCH   5  12
BRANCH  10  17
ATOM     17  CA  LEU A   1       2.985   0.835   3.777  0.00  0.00    +0.188 C 
BRANCH  17  18
ATOM     18  C   LEU A   1       2.061   1.173   4.919  0.00  0.00    +0.376 C 
ATOM     19  O   LEU A   1       1.238   0.357   5.300  0.00  0.00    -0.244 OA
ATOM     20  OXT LEU A   1       2.136   2.262   5.462  0.00  0.00    -0.244 OA
ENDBRANCH  17  18
BRANCH  17  21
ATOM     21  CB  LEU A   1       4.258   0.188   4.326  0.00  0.00    +0.037 C 
BRANCH  21  22
ATOM     22  CG  LEU A   1       5.247  -0.042   3.182  0.00  0.00    -0.015 C 
ATOM     23  CD1 LEU A   1       5.691   1.308   2.613  0.00  0.00    +0.007 C 
ATOM     24  CD2 LEU A   1       6.468  -0.800   3.707  0.00  0.00    +0.007 C 
ENDBRANCH  21  22
ENDBRANCH  17  21
ENDBRANCH  10  17
TORSDOF 5
