REMARK  Name = ZINC20527543
REMARK  12 active torsions:
REMARK  status: ('A' for Active; 'I' for Inactive)
REMARK    1  A    between atoms: C_1  and  C_2
REMARK    2  A    between atoms: C_5  and  C_8
REMARK    3  A    between atoms: C_8  and  N_9
REMARK    4  A    between atoms: C_10  and  C_12
REMARK    5  A    between atoms: C_12  and  S_13
REMARK    6  A    between atoms: S_13  and  C_14
REMARK    7  A    between atoms: N_18  and  N_19
REMARK    8  A    between atoms: N_20  and  N_21
REMARK    9  A    between atoms: C_22  and  C_23
REMARK   10  A    between atoms: C_27  and  C_30
REMARK   11  A    between atoms: C_28  and  O_29
REMARK   12  A    between atoms: C_30  and  C_31
REMARK                            x       y       z     vdW  Elec       q    Type
REMARK                         _______ _______ _______ _____ _____    ______ ____
ROOT
ATOM      1  C   UNL     1      -1.108   1.831  -6.445  0.00  0.00    +0.210 A 
ATOM      2  N   UNL     1      -2.188   2.566  -6.322  0.00  0.00    -0.119 NA
ATOM      3  N   UNL     1      -2.644   2.883  -7.608  0.00  0.00    -0.109 NA
ATOM      4  C   UNL     1      -1.833   2.325  -8.475  0.00  0.00    +0.254 A 
ATOM      5  N   UNL     1      -0.863   1.660  -7.778  0.00  0.00    -0.211 N 
ATOM      6  N   UNL     1      -1.940   2.398  -9.856  0.00  0.00    -0.204 N 
ATOM      7  H   UNL     1      -1.201   1.890 -10.492  0.00  0.00    +0.177 HD
ENDROOT
BRANCH   5   8
ATOM      8  N   UNL     1       0.171   0.951  -8.319  0.00  0.00    -0.294 N 
ATOM      9  H   UNL     1       0.276   0.878  -9.412  0.00  0.00    +0.163 HD
ATOM     10  H   UNL     1       0.900   0.453  -7.663  0.00  0.00    +0.163 HD
ENDBRANCH   5   8
BRANCH   6  11
ATOM     11  N   UNL     1      -2.990   3.118 -10.440  0.00  0.00    -0.187 NA
ATOM     12  C   UNL     1      -3.091   3.186 -11.733  0.00  0.00    +0.142 C 
BRANCH  12  13
ATOM     13  C   UNL     1      -4.196   3.943 -12.348  0.00  0.00    +0.036 A 
ATOM     14  C   UNL     1      -4.307   4.019 -13.738  0.00  0.00    +0.013 A 
ATOM     15  C   UNL     1      -5.344   4.730 -14.307  0.00  0.00    +0.001 A 
ATOM     16  C   UNL     1      -6.274   5.369 -13.505  0.00  0.00    +0.007 A 
ATOM     17  C   UNL     1      -6.174   5.301 -12.128  0.00  0.00    -0.002 A 
ATOM     18  C   UNL     1      -5.144   4.587 -11.540  0.00  0.00    +0.129 A 
BRANCH  18  19
ATOM     19  O   UNL     1      -5.048   4.516 -10.187  0.00  0.00    -0.506 OA
ATOM     20  H   UNL     1      -5.793   5.022  -9.556  0.00  0.00    +0.292 HD
ENDBRANCH  18  19
BRANCH  17  21
ATOM     21  C   UNL     1      -7.193   6.001 -11.265  0.00  0.00    +0.065 C 
BRANCH  21  22
ATOM     22  C   UNL     1      -6.673   7.361 -10.877  0.00  0.00    -0.030 C 
ATOM     23  C   UNL     1      -7.385   8.431 -11.131  0.00  0.00    +0.004 C 
ENDBRANCH  21  22
ENDBRANCH  17  21
ENDBRANCH  12  13
ENDBRANCH   6  11
BRANCH   1  24
ATOM     24  S   UNL     1      -0.148   1.173  -5.122  0.00  0.00    -0.075 S 
BRANCH  24  25
ATOM     25  C   UNL     1      -0.997   1.758  -3.630  0.00  0.00    +0.173 C 
BRANCH  25  27
ATOM     26  N   UNL     1      -0.721   1.571  -1.179  0.00  0.00    -0.311 N 
ATOM     27  C   UNL     1      -0.268   1.258  -2.409  0.00  0.00    +0.224 C 
ATOM     28  O   UNL     1       0.726   0.575  -2.534  0.00  0.00    -0.275 OA
ATOM     29  H   UNL     1      -1.623   2.191  -1.066  0.00  0.00    +0.149 HD
BRANCH  26  30
ATOM     30  C   UNL     1      -0.013   1.086   0.008  0.00  0.00    +0.139 C 
BRANCH  30  35
ATOM     31  C   UNL     1      -2.717   2.949   4.763  0.00  0.00    +0.044 C 
ATOM     32  C   UNL     1      -2.012   2.463   3.523  0.00  0.00    -0.050 A 
ATOM     33  C   UNL     1      -2.366   1.254   2.955  0.00  0.00    +0.003 A 
ATOM     34  C   UNL     1      -1.719   0.808   1.818  0.00  0.00    +0.005 A 
ATOM     35  C   UNL     1      -0.718   1.572   1.248  0.00  0.00    -0.030 A 
ATOM     36  C   UNL     1      -0.360   2.779   1.819  0.00  0.00    +0.005 A 
ATOM     37  C   UNL     1      -1.010   3.227   2.953  0.00  0.00    +0.003 A 
ENDBRANCH  30  35
ENDBRANCH  26  30
ENDBRANCH  25  27
ENDBRANCH  24  25
ENDBRANCH   1  24
TORSDOF 11
