REMARK  Name = ZINC66790117
REMARK  6 active torsions:
REMARK  status: ('A' for Active; 'I' for Inactive)
REMARK    1  A    between atoms: C_4  and  C_7
REMARK    2  A    between atoms: C_7  and  C_8
REMARK    3  A    between atoms: N_10  and  N_11
REMARK    4  A    between atoms: C_12  and  C_14
REMARK    5  A    between atoms: C_14  and  N_15
REMARK    6  A    between atoms: N_18  and  C_19
REMARK                            x       y       z     vdW  Elec       q    Type
REMARK                         _______ _______ _______ _____ _____    ______ ____
ROOT
ATOM      1  N   UNL     1       3.721  -4.016  -3.438  0.00  0.00    -0.233 N 
ATOM      2  C   UNL     1       4.322  -4.676  -4.447  0.00  0.00    +0.246 C 
ATOM      3  O   UNL     1       4.760  -4.061  -5.397  0.00  0.00    -0.273 OA
ATOM      4  H   UNL     1       3.371  -4.508  -2.678  0.00  0.00    +0.173 HD
ENDROOT
BRANCH   1   7
ATOM      5  C   UNL     1       2.999  -1.962  -2.475  0.00  0.00    +0.229 C 
ATOM      6  O   UNL     1       2.561  -2.576  -1.526  0.00  0.00    -0.274 OA
ATOM      7  N   UNL     1       3.601  -2.621  -3.485  0.00  0.00    -0.234 N 
ATOM      8  H   UNL     1       3.951  -2.130  -4.245  0.00  0.00    +0.173 HD
BRANCH   5   9
ATOM      9  C   UNL     1       2.870  -0.461  -2.526  0.00  0.00    +0.101 C 
BRANCH   9  13
ATOM     10  C   UNL     1      -0.019   1.526   0.010  0.00  0.00    +0.000 C 
ATOM     11  C   UNL     1       1.417   2.055  -0.000  0.00  0.00    +0.000 C 
ATOM     12  C   UNL     1       2.133   1.562  -1.259  0.00  0.00    +0.004 C 
ATOM     13  C   UNL     1       2.154   0.032  -1.268  0.00  0.00    -0.002 C 
ATOM     14  C   UNL     1       0.718  -0.497  -1.257  0.00  0.00    +0.004 C 
ATOM     15  C   UNL     1       0.002  -0.004   0.002  0.00  0.00    +0.000 C 
ENDBRANCH   9  13
ENDBRANCH   5   9
ENDBRANCH   1   7
BRANCH   2  16
ATOM     16  C   UNL     1       4.452  -6.176  -4.396  0.00  0.00    +0.203 C 
BRANCH  16  17
ATOM     17  N   UNL     1       5.137  -6.649  -5.602  0.00  0.00    -0.291 N 
ATOM     18  C   UNL     1       5.366  -7.966  -5.774  0.00  0.00    +0.300 C 
ATOM     19  O   UNL     1       5.002  -8.762  -4.930  0.00  0.00    -0.253 OA
ATOM     20  N   UNL     1       5.996  -8.400  -6.883  0.00  0.00    -0.297 N 
ATOM     21  H   UNL     1       5.427  -6.014  -6.275  0.00  0.00    +0.151 HD
ATOM     22  H   UNL     1       6.286  -7.765  -7.557  0.00  0.00    +0.151 HD
BRANCH  20  23
ATOM     23  C   UNL     1       6.245  -9.832  -7.071  0.00  0.00    +0.074 C 
ATOM     24  C   UNL     1       7.541 -10.223  -6.359  0.00  0.00    +0.022 C 
ATOM     25  C   UNL     1       7.800 -11.718  -6.555  0.00  0.00    +0.002 C 
ATOM     26  C   UNL     1       7.928 -12.021  -8.049  0.00  0.00    +0.000 C 
ATOM     27  C   UNL     1       6.632 -11.630  -8.762  0.00  0.00    +0.002 C 
ATOM     28  C   UNL     1       6.373 -10.135  -8.566  0.00  0.00    +0.022 C 
ENDBRANCH  20  23
ENDBRANCH  16  17
ENDBRANCH   2  16
TORSDOF 6
