REMARK  Name = ZINC40366444
REMARK  7 active torsions:
REMARK  status: ('A' for Active; 'I' for Inactive)
REMARK    1  A    between atoms: C_1  and  C_2
REMARK    2  A    between atoms: N_8  and  S_9
REMARK    3  A    between atoms: S_9  and  N_12
REMARK    4  A    between atoms: N_12  and  C_13
REMARK    5  A    between atoms: C_13  and  C_20
REMARK    6  A    between atoms: N_16  and  C_19
REMARK    7  A    between atoms: C_20  and  N_22
REMARK                            x       y       z     vdW  Elec       q    Type
REMARK                         _______ _______ _______ _____ _____    ______ ____
ROOT
ATOM      1  C   UNL     1      -0.725  -0.072   4.512  0.00  0.00    +0.082 C 
ATOM      2  C   UNL     1      -1.341  -1.124   3.586  0.00  0.00    +0.012 C 
ATOM      3  C   UNL     1      -2.482  -0.488   2.789  0.00  0.00    -0.077 C 
ATOM      4  N   UNL     1      -3.507   0.015   3.711  0.00  0.00    +0.378 N 
ATOM      5  C   UNL     1      -2.942   1.075   4.555  0.00  0.00    -0.077 C 
ATOM      6  C   UNL     1      -1.818   0.498   5.420  0.00  0.00    +0.012 C 
ATOM      7  C   UNL     1      -4.636   0.554   2.941  0.00  0.00    -0.096 C 
ATOM      8  H   UNL     1      -3.832  -0.741   4.295  0.00  0.00    -0.082 HD
ENDROOT
BRANCH   1   9
ATOM      9  N   UNL     1      -0.141   1.006   3.710  0.00  0.00    -0.168 NA
ATOM     10  H   UNL     1      -0.140   0.944   2.742  0.00  0.00    +0.150 HD
BRANCH   9  11
ATOM     11  S   UNL     1       0.514   2.331   4.456  0.00  0.00    +0.098 S 
ATOM     12  O   UNL     1      -0.461   2.805   5.374  0.00  0.00    -0.141 OA
ATOM     13  O   UNL     1       1.054   3.150   3.428  0.00  0.00    -0.141 OA
BRANCH  11  20
ATOM     14  C   UNL     1       2.995   1.747   3.222  0.00  0.00    +0.026 C 
ATOM     15  C   UNL     1       3.059   1.414   4.715  0.00  0.00    +0.078 C 
ATOM     16  C   UNL     1       4.206   2.192   5.365  0.00  0.00    +0.020 C 
ATOM     17  C   UNL     1       4.179   1.964   6.878  0.00  0.00    +0.003 C 
ATOM     18  C   UNL     1       2.858   2.483   7.450  0.00  0.00    +0.017 C 
ATOM     19  C   UNL     1       1.694   1.708   6.823  0.00  0.00    +0.111 C 
ATOM     20  N   UNL     1       1.796   1.800   5.360  0.00  0.00    -0.164 NA
ENDBRANCH  11  20
ENDBRANCH   9  11
ENDBRANCH   1   9
BRANCH   1  21
ATOM     21  C   UNL     1       0.349  -0.709   5.357  0.00  0.00    +0.068 C 
ATOM     22  S   UNL     1       0.120  -0.906   6.927  0.00  0.00    -0.039 S 
BRANCH  21  23
ATOM     23  N   UNL     1       1.502  -1.113   4.788  0.00  0.00    -0.354 N 
ATOM     24  H   UNL     1       1.670  -0.932   3.850  0.00  0.00    +0.143 HD
ATOM     25  H   UNL     1       2.165  -1.585   5.317  0.00  0.00    +0.143 HD
ENDBRANCH  21  23
ENDBRANCH   1  21
TORSDOF 5
