REMARK  Name = ZINC54731427
REMARK  11 active torsions:
REMARK  status: ('A' for Active; 'I' for Inactive)
REMARK    1  A    between atoms: C_1  and  C_2
REMARK    2  A    between atoms: C_5  and  C_7
REMARK    3  A    between atoms: C_7  and  C_8
REMARK    4  A    between atoms: C_7  and  N_9
REMARK    5  A    between atoms: N_12  and  C_13
REMARK    6  A    between atoms: N_12  and  C_14
REMARK    7  A    between atoms: C_14  and  C_15
REMARK    8  A    between atoms: N_17  and  C_18
REMARK    9  A    between atoms: C_18  and  C_19
REMARK   10  A    between atoms: C_18  and  C_20
REMARK   11  A    between atoms: C_18  and  C_21
REMARK                            x       y       z     vdW  Elec       q    Type
REMARK                         _______ _______ _______ _____ _____    ______ ____
ROOT
ATOM      1  N   UNL     1       2.210  -4.147   0.855  0.00  0.00    -0.292 N 
ATOM      2  C   UNL     1       2.553  -5.328   1.406  0.00  0.00    +0.303 C 
ATOM      3  O   UNL     1       1.894  -6.323   1.171  0.00  0.00    -0.253 OA
ATOM      4  N   UNL     1       3.626  -5.407   2.217  0.00  0.00    -0.280 N 
ATOM      5  C   UNL     1       4.420  -4.209   2.500  0.00  0.00    +0.134 C 
ATOM      6  H   UNL     1       2.735  -3.354   1.042  0.00  0.00    +0.151 HD
ENDROOT
BRANCH   1   7
ATOM      7  C   UNL     1       1.043  -4.062  -0.027  0.00  0.00    +0.108 C 
ATOM      8  C   UNL     1       1.452  -4.441  -1.452  0.00  0.00    +0.033 C 
BRANCH   7  13
ATOM      9  C   UNL     1      -0.018   1.503   0.010  0.00  0.00    +0.051 C 
ATOM     10  C   UNL     1       0.002  -0.004   0.002  0.00  0.00    -0.013 A 
ATOM     11  C   UNL     1      -1.039  -0.872   0.002  0.00  0.00    +0.011 A 
ATOM     12  C   UNL     1      -0.780  -2.230  -0.007  0.00  0.00    +0.013 A 
ATOM     13  C   UNL     1       0.507  -2.653  -0.016  0.00  0.00    +0.010 A 
ATOM     14  S   UNL     1       1.404  -1.109  -0.018  0.00  0.00    -0.097 S 
ENDBRANCH   7  13
ENDBRANCH   1   7
BRANCH   4  15
ATOM     15  C   UNL     1       3.999  -6.691   2.816  0.00  0.00    +0.204 C 
BRANCH  15  16
ATOM     16  C   UNL     1       4.953  -7.414   1.901  0.00  0.00    +0.231 C 
ATOM     17  O   UNL     1       5.289  -6.907   0.852  0.00  0.00    -0.274 OA
ATOM     18  N   UNL     1       5.434  -8.624   2.249  0.00  0.00    -0.309 N 
ATOM     19  H   UNL     1       5.165  -9.030   3.088  0.00  0.00    +0.149 HD
BRANCH  18  20
ATOM     20  C   UNL     1       6.361  -9.327   1.359  0.00  0.00    +0.026 C 
ATOM     21  C   UNL     1       7.616  -8.476   1.155  0.00  0.00    +0.031 C 
ATOM     22  C   UNL     1       6.751 -10.668   1.984  0.00  0.00    +0.031 C 
ATOM     23  C   UNL     1       5.686  -9.572   0.008  0.00  0.00    +0.031 C 
ENDBRANCH  18  20
ENDBRANCH  15  16
ENDBRANCH   4  15
TORSDOF 5
