REMARK  Name = ZINC21788765
REMARK  2 active torsions:
REMARK  status: ('A' for Active; 'I' for Inactive)
REMARK    1  A    between atoms: C_10  and  C_13
REMARK    2  A    between atoms: N_24  and  C_27
REMARK                            x       y       z     vdW  Elec       q    Type
REMARK                         _______ _______ _______ _____ _____    ______ ____
ROOT
ATOM      1  C   UNL     1      -0.022   1.236  -0.949  0.00  0.00    +0.002 A 
ATOM      2  C   UNL     1       1.137   1.979  -0.817  0.00  0.00    +0.001 A 
ATOM      3  C   UNL     1       2.314   1.342  -0.503  0.00  0.00    +0.016 A 
ATOM      4  C   UNL     1       2.372  -0.046  -0.312  0.00  0.00    +0.030 A 
ATOM      5  C   UNL     1       1.212  -0.793  -0.444  0.00  0.00    +0.045 A 
ATOM      6  C   UNL     1       0.018  -0.124  -0.765  0.00  0.00    +0.024 A 
ATOM      7  N   UNL     1       1.084  -2.148  -0.300  0.00  0.00    -0.316 N 
ATOM      8  C   UNL     1       1.717  -3.177   0.142  0.00  0.00    +0.027 C 
ATOM      9  C   UNL     1       3.153  -3.323   0.503  0.00  0.00    +0.071 C 
ATOM     10  C   UNL     1       3.699  -2.100   1.181  0.00  0.00    +0.094 C 
ATOM     11  S   UNL     1       3.939  -0.711   0.083  0.00  0.00    -0.114 S 
ATOM     12  C   UNL     1       0.949  -4.316   0.305  0.00  0.00    +0.116 C 
ATOM     13  C   UNL     1       1.565  -5.651   0.404  0.00  0.00    +0.258 C 
ATOM     14  N   UNL     1       0.754  -6.718   0.562  0.00  0.00    -0.235 N 
ATOM     15  H   UNL     1       1.144  -7.603   0.629  0.00  0.00    +0.159 HD
ATOM     16  C   UNL     1      -0.577  -6.581   0.629  0.00  0.00    +0.316 C 
ATOM     17  O   UNL     1      -1.252  -7.582   0.773  0.00  0.00    -0.252 OA
ATOM     18  N   UNL     1      -1.204  -5.399   0.547  0.00  0.00    -0.218 N 
ATOM     19  C   UNL     1      -0.520  -4.247   0.393  0.00  0.00    +0.261 C 
ATOM     20  O   UNL     1      -1.101  -3.180   0.325  0.00  0.00    -0.269 OA
ATOM     21  O   UNL     1       2.773  -5.788   0.344  0.00  0.00    -0.270 OA
ATOM     22  H   UNL     1       0.223  -2.427  -0.649  0.00  0.00    +0.152 HD
ENDROOT
BRANCH  18  23
ATOM     23  C   UNL     1      -2.667  -5.358   0.632  0.00  0.00    +0.086 C 
ATOM     24  C   UNL     1      -3.116  -5.934   1.976  0.00  0.00    +0.023 C 
ATOM     25  C   UNL     1      -4.643  -5.890   2.065  0.00  0.00    +0.002 C 
ATOM     26  C   UNL     1      -5.244  -6.720   0.928  0.00  0.00    +0.000 C 
ATOM     27  C   UNL     1      -4.794  -6.143  -0.416  0.00  0.00    +0.002 C 
ATOM     28  C   UNL     1      -3.267  -6.187  -0.505  0.00  0.00    +0.023 C 
ENDBRANCH  18  23
BRANCH  10  29
ATOM     29  C   UNL     1       5.025  -2.448   1.807  0.00  0.00    +0.003 A 
ATOM     30  C   UNL     1       5.394  -2.394   3.110  0.00  0.00    +0.012 A 
ATOM     31  C   UNL     1       6.679  -2.767   3.459  0.00  0.00    +0.008 A 
ATOM     32  C   UNL     1       7.531  -3.176   2.488  0.00  0.00    +0.045 A 
ATOM     33  S   UNL     1       6.514  -3.048   1.026  0.00  0.00    -0.100 S 
ENDBRANCH  10  29
TORSDOF 2
