REMARK  Name = ZINC61327085
REMARK  5 active torsions:
REMARK  status: ('A' for Active; 'I' for Inactive)
REMARK    1  A    between atoms: C_1  and  O_2
REMARK    2  A    between atoms: O_2  and  C_3
REMARK    3  A    between atoms: C_6  and  N_20
REMARK    4  A    between atoms: C_8  and  N_9
REMARK    5  A    between atoms: N_9  and  C_10
REMARK                            x       y       z     vdW  Elec       q    Type
REMARK                         _______ _______ _______ _____ _____    ______ ____
ROOT
ATOM      1  C   UNL     1      -1.201  -0.638   0.010  0.00  0.00    +0.141 A 
ATOM      2  C   UNL     1      -2.374   0.099   0.019  0.00  0.00    +0.050 A 
ATOM      3  C   UNL     1      -3.597  -0.547   0.028  0.00  0.00    +0.036 A 
ATOM      4  C   UNL     1      -3.653  -1.928   0.027  0.00  0.00    +0.128 A 
ATOM      5  C   UNL     1      -2.487  -2.671   0.017  0.00  0.00    +0.059 A 
ATOM      6  C   UNL     1      -1.257  -2.030   0.003  0.00  0.00    +0.072 A 
ENDROOT
BRANCH   4   7
ATOM      7  N   UNL     1      -4.965  -2.614   0.036  0.00  0.00    +0.056 N 
ATOM      8  O   UNL     1      -5.986  -1.965   0.045  0.00  0.00    -0.126 OA
ATOM      9  O   UNL     1      -5.016  -3.821   0.035  0.00  0.00    -0.126 OA
ENDBRANCH   4   7
BRANCH   1  11
ATOM     10  C   UNL     1      -0.017   1.425   0.010  0.00  0.00    +0.277 C 
ATOM     11  O   UNL     1       0.002  -0.004   0.002  0.00  0.00    -0.493 OA
ENDBRANCH   1  11
BRANCH   6  12
ATOM     12  N   UNL     1      -0.075  -2.780  -0.012  0.00  0.00    -0.334 N 
ATOM     13  H   UNL     1       0.784  -2.330  -0.018  0.00  0.00    +0.147 HD
BRANCH  12  14
ATOM     14  C   UNL     1      -0.137  -4.243  -0.019  0.00  0.00    +0.102 C 
ATOM     15  C   UNL     1       1.155  -4.813   0.568  0.00  0.00    +0.027 C 
ATOM     16  C   UNL     1       2.334  -4.503  -0.359  0.00  0.00    +0.007 C 
ATOM     17  C   UNL     1       2.196  -5.350  -1.633  0.00  0.00    +0.043 C 
ATOM     18  C   UNL     1       0.791  -5.228  -2.128  0.00  0.00    -0.005 A 
ATOM     19  C   UNL     1      -0.290  -4.742  -1.454  0.00  0.00    -0.017 A 
ATOM     20  C   UNL     1      -1.504  -4.731  -2.139  0.00  0.00    +0.013 A 
ATOM     21  C   UNL     1      -1.569  -5.189  -3.410  0.00  0.00    +0.046 A 
ATOM     22  S   UNL     1       0.133  -5.674  -3.712  0.00  0.00    -0.101 S 
ENDBRANCH  12  14
ENDBRANCH   6  12
TORSDOF 4
