REMARK  Name = ZINC13000136
REMARK  13 active torsions:
REMARK  status: ('A' for Active; 'I' for Inactive)
REMARK    1  A    between atoms: C_1  and  C_2
REMARK    2  A    between atoms: C_2  and  C_3
REMARK    3  A    between atoms: C_3  and  C_4
REMARK    4  A    between atoms: C_4  and  N_5
REMARK    5  A    between atoms: C_6  and  N_32
REMARK    6  A    between atoms: C_7  and  N_14
REMARK    7  A    between atoms: N_14  and  C_15
REMARK    8  A    between atoms: C_15  and  C_16
REMARK    9  A    between atoms: C_16  and  C_17
REMARK   10  A    between atoms: C_18  and  C_20
REMARK   11  A    between atoms: C_20  and  N_21
REMARK   12  A    between atoms: C_24  and  C_28
REMARK   13  A    between atoms: C_24  and  C_29
REMARK                            x       y       z     vdW  Elec       q    Type
REMARK                         _______ _______ _______ _____ _____    ______ ____
ROOT
ATOM      1  N   UNL     1       3.604   1.977   0.020  0.00  0.00    -0.263 N 
ATOM      2  C   UNL     1       3.599   3.320  -0.114  0.00  0.00    +0.238 C 
ATOM      3  O   UNL     1       2.546   3.922  -0.143  0.00  0.00    -0.274 OA
ENDROOT
BRANCH   1   6
ATOM      4  N   UNL     1       0.772  -0.086   1.127  0.00  0.00    -0.280 N 
ATOM      5  C   UNL     1       1.963   0.601   1.156  0.00  0.00    +0.127 A 
ATOM      6  C   UNL     1       2.387   1.263   0.022  0.00  0.00    +0.140 A 
ATOM      7  C   UNL     1       1.584   1.214  -1.133  0.00  0.00    +0.277 A 
ATOM      8  O   UNL     1       1.935   1.790  -2.149  0.00  0.00    -0.266 OA
ATOM      9  N   UNL     1       0.425   0.527  -1.109  0.00  0.00    -0.273 N 
ATOM     10  H   UNL     1      -0.146   0.491  -1.929  0.00  0.00    +0.173 HD
ATOM     11  C   UNL     1       0.028  -0.112   0.006  0.00  0.00    +0.331 A 
ATOM     12  O   UNL     1      -1.022  -0.725   0.001  0.00  0.00    -0.246 OA
BRANCH   5  13
ATOM     13  N   UNL     1       2.722   0.628   2.301  0.00  0.00    -0.343 N 
ATOM     14  H   UNL     1       2.398   0.200   3.108  0.00  0.00    +0.144 HD
ATOM     15  H   UNL     1       3.583   1.076   2.302  0.00  0.00    +0.144 HD
ENDBRANCH   5  13
BRANCH   4  16
ATOM     16  C   UNL     1       0.307  -0.788   2.326  0.00  0.00    +0.128 C 
BRANCH  16  17
ATOM     17  C   UNL     1       0.835  -2.224   2.313  0.00  0.00    +0.021 C 
BRANCH  17  19
ATOM     18  C   UNL     1       0.878  -4.393   3.552  0.00  0.00    +0.004 C 
ATOM     19  C   UNL     1       0.349  -2.957   3.565  0.00  0.00    -0.002 C 
ENDBRANCH  17  19
ENDBRANCH  16  17
ENDBRANCH   4  16
ENDBRANCH   1   6
BRANCH   1  20
ATOM     20  C   UNL     1       4.874   1.260   0.164  0.00  0.00    +0.114 C 
BRANCH  20  21
ATOM     21  C   UNL     1       5.463   0.983  -1.221  0.00  0.00    +0.016 C 
ATOM     22  C   UNL     1       6.789   0.234  -1.070  0.00  0.00    +0.005 C 
ENDBRANCH  20  21
ENDBRANCH   1  20
BRANCH   2  23
ATOM     23  C   UNL     1       4.900   4.071  -0.228  0.00  0.00    +0.214 C 
BRANCH  23  24
ATOM     24  N   UNL     1       4.627   5.503  -0.364  0.00  0.00    -0.215 N 
ATOM     25  C   UNL     1       4.519   6.355   0.675  0.00  0.00    +0.247 C 
ATOM     26  O   UNL     1       4.624   6.090   1.853  0.00  0.00    -0.273 OA
ATOM     27  C   UNL     1       4.237   7.713   0.064  0.00  0.00    +0.113 C 
ATOM     28  N   UNL     1       4.218   7.444  -1.384  0.00  0.00    -0.285 N 
ATOM     29  C   UNL     1       4.460   6.129  -1.534  0.00  0.00    +0.310 C 
ATOM     30  O   UNL     1       4.517   5.572  -2.613  0.00  0.00    -0.252 OA
ATOM     31  C   UNL     1       2.882   8.245   0.535  0.00  0.00    +0.042 C 
ATOM     32  H   UNL     1       4.065   8.090  -2.091  0.00  0.00    +0.151 HD
BRANCH  27  33
ATOM     33  C   UNL     1       5.352   8.702   0.413  0.00  0.00    +0.021 C 
ATOM     34  C   UNL     1       5.039   9.781   1.451  0.00  0.00    +0.006 C 
ATOM     35  C   UNL     1       5.170  10.156  -0.026  0.00  0.00    +0.006 C 
ENDBRANCH  27  33
ENDBRANCH  23  24
ENDBRANCH   2  23
TORSDOF 10
