REMARK  Name = ZINC62153023
REMARK  2 active torsions:
REMARK  status: ('A' for Active; 'I' for Inactive)
REMARK    1  A    between atoms: C_4  and  N_8
REMARK    2  A    between atoms: C_5  and  N_7
REMARK                            x       y       z     vdW  Elec       q    Type
REMARK                         _______ _______ _______ _____ _____    ______ ____
ROOT
ATOM      1  N   UNL     1       3.633  -0.640  -0.037  0.00  0.00    -0.328 N 
ATOM      2  C   UNL     1       4.279  -0.991  -1.310  0.00  0.00    +0.110 C 
ATOM      3  C   UNL     1       4.576  -2.493  -1.315  0.00  0.00    +0.084 C 
ATOM      4  C   UNL     1       5.393  -2.852  -0.073  0.00  0.00    +0.173 C 
ATOM      5  C   UNL     1       4.596  -2.517   1.189  0.00  0.00    +0.084 C 
ATOM      6  C   UNL     1       4.302  -1.009   1.218  0.00  0.00    +0.110 C 
ATOM      7  O   UNL     1       5.703  -4.252  -0.089  0.00  0.00    -0.346 OA
ATOM      8  C   UNL     1       7.140  -4.372  -0.088  0.00  0.00    +0.191 C 
ATOM      9  C   UNL     1       7.605  -3.009   0.482  0.00  0.00    +0.191 C 
ATOM     10  O   UNL     1       6.620  -2.105  -0.076  0.00  0.00    -0.346 OA
ENDROOT
BRANCH   1  14
ATOM     11  C   UNL     1      -0.017   1.379   0.010  0.00  0.00    +0.002 A 
ATOM     12  C   UNL     1       1.169   2.090   0.002  0.00  0.00    +0.002 A 
ATOM     13  C   UNL     1       2.380   1.423  -0.013  0.00  0.00    +0.025 A 
ATOM     14  C   UNL     1       2.408   0.037  -0.021  0.00  0.00    +0.051 A 
ATOM     15  C   UNL     1       1.212  -0.681  -0.013  0.00  0.00    +0.046 A 
ATOM     16  C   UNL     1       0.002  -0.004   0.002  0.00  0.00    +0.024 A 
BRANCH  15  17
ATOM     17  N   UNL     1       1.234  -2.081  -0.021  0.00  0.00    -0.357 N 
ATOM     18  H   UNL     1       2.081  -2.553  -0.033  0.00  0.00    +0.142 HD
ATOM     19  H   UNL     1       0.401  -2.579  -0.016  0.00  0.00    +0.142 HD
ENDBRANCH  15  17
ENDBRANCH   1  14
TORSDOF 2
