REMARK  Name = ZINC33521151
REMARK  9 active torsions:
REMARK  status: ('A' for Active; 'I' for Inactive)
REMARK    1  A    between atoms: C_1  and  C_2
REMARK    2  A    between atoms: C_3  and  C_17
REMARK    3  A    between atoms: C_4  and  C_13
REMARK    4  A    between atoms: C_5  and  N_7
REMARK    5  A    between atoms: C_8  and  C_10
REMARK    6  A    between atoms: C_10  and  C_11
REMARK    7  A    between atoms: C_11  and  N_12
REMARK    8  A    between atoms: C_13  and  O_15
REMARK    9  A    between atoms: O_15  and  C_16
REMARK                            x       y       z     vdW  Elec       q    Type
REMARK                         _______ _______ _______ _____ _____    ______ ____
ROOT
ATOM      1  C   UNL     1      -4.026   3.450   2.256  0.00  0.00    +0.052 C 
ATOM      2  C   UNL     1      -3.130   2.952   1.152  0.00  0.00    -0.003 A 
ATOM      3  C   UNL     1      -1.949   2.291   1.259  0.00  0.00    +0.008 A 
ATOM      4  C   UNL     1      -1.291   1.927   0.019  0.00  0.00    +0.095 A 
ATOM      5  C   UNL     1      -1.929   2.294  -1.159  0.00  0.00    +0.087 A 
ATOM      6  S   UNL     1      -3.365   3.089  -0.608  0.00  0.00    -0.077 S 
ENDROOT
BRANCH   3   7
ATOM      7  C   UNL     1      -1.361   1.958   2.578  0.00  0.00    -0.016 A 
ATOM      8  C   UNL     1      -1.227   0.627   2.968  0.00  0.00    +0.011 A 
ATOM      9  C   UNL     1      -0.674   0.322   4.195  0.00  0.00    +0.039 A 
ATOM     10  C   UNL     1      -0.263   1.337   5.044  0.00  0.00    +0.123 A 
ATOM     11  C   UNL     1      -0.400   2.662   4.663  0.00  0.00    +0.039 A 
ATOM     12  C   UNL     1      -0.946   2.977   3.436  0.00  0.00    +0.011 A 
ATOM     13  F   UNL     1       0.272   1.034   6.247  0.00  0.00    -0.205 F 
ENDBRANCH   3   7
BRANCH   5  14
ATOM     14  N   UNL     1      -1.517   2.074  -2.463  0.00  0.00    -0.279 N 
ATOM     15  C   UNL     1      -2.274   2.506  -3.491  0.00  0.00    +0.216 C 
ATOM     16  O   UNL     1      -3.316   3.087  -3.275  0.00  0.00    -0.276 OA
ATOM     17  H   UNL     1      -0.572   1.547  -2.660  0.00  0.00    +0.155 HD
BRANCH  15  18
ATOM     18  C   UNL     1      -1.825   2.267  -4.910  0.00  0.00    +0.077 C 
BRANCH  18  19
ATOM     19  C   UNL     1      -2.857   2.853  -5.876  0.00  0.00    -0.077 C 
BRANCH  19  20
ATOM     20  N   UNL     1      -2.419   2.620  -7.259  0.00  0.00    +0.378 N 
ATOM     21  H   UNL     1      -3.161   3.041  -7.954  0.00  0.00    -0.090 HD
ATOM     22  H   UNL     1      -2.323   1.538  -7.436  0.00  0.00    -0.090 HD
ATOM     23  H   UNL     1      -1.446   3.106  -7.423  0.00  0.00    -0.090 HD
ENDBRANCH  19  20
ENDBRANCH  18  19
ENDBRANCH  15  18
ENDBRANCH   5  14
BRANCH   4  24
ATOM     24  C   UNL     1      -0.014   1.212   0.009  0.00  0.00    +0.342 C 
ATOM     25  O   UNL     1       0.002  -0.004   0.002  0.00  0.00    -0.245 OA
BRANCH  24  26
ATOM     26  O   UNL     1       1.145   1.903   0.001  0.00  0.00    -0.464 OA
ATOM     27  C   UNL     1       2.373   1.129  -0.015  0.00  0.00    +0.280 C 
ENDBRANCH  24  26
ENDBRANCH   4  24
TORSDOF 7
