REMARK  Name = ZINC58855404
REMARK  9 active torsions:
REMARK  status: ('A' for Active; 'I' for Inactive)
REMARK    1  A    between atoms: C_1  and  C_2
REMARK    2  A    between atoms: C_3  and  C_9
REMARK    3  A    between atoms: C_4  and  C_8
REMARK    4  A    between atoms: N_5  and  C_7
REMARK    5  A    between atoms: C_10  and  C_11
REMARK    6  A    between atoms: N_13  and  C_14
REMARK    7  A    between atoms: C_19  and  C_23
REMARK    8  A    between atoms: C_20  and  C_21
REMARK    9  A    between atoms: C_20  and  C_22
REMARK                            x       y       z     vdW  Elec       q    Type
REMARK                         _______ _______ _______ _____ _____    ______ ____
ROOT
ATOM      1  C   UNL     1      -2.046   0.578  -4.418  0.00  0.00    +0.237 C 
ATOM      2  O   UNL     1      -2.245  -0.222  -5.314  0.00  0.00    -0.271 OA
ATOM      3  N   UNL     1      -1.837   1.877  -4.709  0.00  0.00    -0.308 N 
ATOM      4  H   UNL     1      -1.678   2.515  -3.995  0.00  0.00    +0.149 HD
ENDROOT
BRANCH   3   5
ATOM      5  C   UNL     1      -1.850   2.327  -6.103  0.00  0.00    +0.080 C 
ATOM      6  C   UNL     1      -1.033   3.631  -6.256  0.00  0.00    +0.027 C 
ATOM      7  C   UNL     1      -2.063   4.684  -6.766  0.00  0.00    -0.003 C 
ATOM      8  C   UNL     1      -2.994   4.944  -5.543  0.00  0.00    +0.005 C 
ATOM      9  C   UNL     1      -3.811   3.641  -5.390  0.00  0.00    +0.009 C 
ATOM     10  C   UNL     1      -3.297   2.716  -6.535  0.00  0.00    -0.008 C 
ATOM     11  C   UNL     1      -2.991   3.778  -7.650  0.00  0.00    -0.025 C 
ATOM     12  C   UNL     1      -4.253   4.516  -8.101  0.00  0.00    +0.012 C 
ATOM     13  C   UNL     1      -2.239   3.167  -8.833  0.00  0.00    +0.012 C 
ATOM     14  C   UNL     1      -4.215   1.554  -6.920  0.00  0.00    +0.013 C 
ENDBRANCH   3   5
BRANCH   1  16
ATOM     15  C   UNL     1      -2.242  -1.159  -2.777  0.00  0.00    +0.016 C 
ATOM     16  C   UNL     1      -2.033   0.142  -3.068  0.00  0.00    +0.068 C 
BRANCH  15  19
ATOM     17  C   UNL     1       0.017  -0.520  -0.643  0.00  0.00    +0.068 C 
ATOM     18  C   UNL     1      -1.230  -1.334  -0.416  0.00  0.00    +0.067 A 
ATOM     19  C   UNL     1      -2.229  -1.611  -1.378  0.00  0.00    +0.018 A 
ATOM     20  C   UNL     1      -3.191  -2.385  -0.756  0.00  0.00    +0.043 A 
ATOM     21  N   UNL     1      -2.797  -2.568   0.516  0.00  0.00    -0.271 N 
ATOM     22  N   UNL     1      -1.576  -1.912   0.702  0.00  0.00    -0.176 NA
ATOM     23  C   UNL     1      -3.522  -3.332   1.534  0.00  0.00    +0.172 C 
ATOM     24  C   UNL     1      -4.449  -2.923  -1.387  0.00  0.00    +0.066 C 
ENDBRANCH  15  19
ENDBRANCH   1  16
TORSDOF 3
