REMARK  Name = ZINC67576323
REMARK  7 active torsions:
REMARK  status: ('A' for Active; 'I' for Inactive)
REMARK    1  A    between atoms: C_1  and  C_2
REMARK    2  A    between atoms: C_10  and  C_11
REMARK    3  A    between atoms: C_11  and  C_13
REMARK    4  A    between atoms: C_11  and  N_14
REMARK    5  A    between atoms: N_17  and  C_18
REMARK    6  A    between atoms: C_21  and  N_25
REMARK    7  A    between atoms: C_26  and  C_28
REMARK                            x       y       z     vdW  Elec       q    Type
REMARK                         _______ _______ _______ _____ _____    ______ ____
ROOT
ATOM      1  N   UNL     1       1.021  -1.127   3.265  0.00  0.00    -0.290 N 
ATOM      2  C   UNL     1       1.566  -0.605   4.381  0.00  0.00    +0.304 C 
ATOM      3  O   UNL     1       1.237   0.503   4.758  0.00  0.00    -0.252 OA
ATOM      4  N   UNL     1       2.477  -1.311   5.080  0.00  0.00    -0.268 N 
ATOM      5  H   UNL     1       1.284  -2.011   2.964  0.00  0.00    +0.151 HD
ATOM      6  H   UNL     1       2.680  -2.225   4.827  0.00  0.00    +0.156 HD
ENDROOT
BRANCH   4   7
ATOM      7  C   UNL     1       3.132  -0.724   6.171  0.00  0.00    +0.053 A 
ATOM      8  C   UNL     1       3.263   0.656   6.242  0.00  0.00    +0.026 A 
ATOM      9  C   UNL     1       3.908   1.235   7.317  0.00  0.00    +0.025 A 
ATOM     10  C   UNL     1       4.426   0.436   8.328  0.00  0.00    +0.035 A 
ATOM     11  C   UNL     1       4.296  -0.945   8.258  0.00  0.00    +0.045 A 
ATOM     12  C   UNL     1       3.645  -1.523   7.185  0.00  0.00    +0.064 A 
ATOM     13 CL   UNL     1       3.475  -3.249   7.101  0.00  0.00    -0.082 Cl
BRANCH  10  14
ATOM     14  N   UNL     1       5.081   1.023   9.418  0.00  0.00    -0.286 N 
ATOM     15  C   UNL     1       6.133   0.402   9.988  0.00  0.00    +0.214 C 
ATOM     16  O   UNL     1       6.459  -0.705   9.612  0.00  0.00    -0.276 OA
ATOM     17  C   UNL     1       6.903   1.081  11.090  0.00  0.00    +0.109 C 
ATOM     18  H   UNL     1       4.777   1.877   9.764  0.00  0.00    +0.155 HD
ENDBRANCH  10  14
ENDBRANCH   4   7
BRANCH   1  19
ATOM     19  C   UNL     1       0.030  -0.359   2.506  0.00  0.00    +0.138 C 
ATOM     20  C   UNL     1      -1.358  -0.578   3.110  0.00  0.00    +0.036 C 
BRANCH  19  30
ATOM     21  C   UNL     1      -0.004   1.500   0.015  0.00  0.00    +0.048 C 
ATOM     22  C   UNL     1       0.016  -0.007   0.005  0.00  0.00    +0.000 A 
ATOM     23  C   UNL     1       0.030  -0.880  -1.175  0.00  0.00    +0.023 A 
ATOM     24  C   UNL     1       0.029  -0.659  -2.552  0.00  0.00    +0.012 A 
ATOM     25  C   UNL     1       0.045  -1.723  -3.409  0.00  0.00    +0.001 A 
ATOM     26  C   UNL     1       0.062  -3.021  -2.918  0.00  0.00    +0.004 A 
ATOM     27  C   UNL     1       0.063  -3.259  -1.560  0.00  0.00    +0.047 A 
ATOM     28  C   UNL     1       0.047  -2.191  -0.671  0.00  0.00    +0.136 A 
ATOM     29  O   UNL     1       0.044  -2.104   0.674  0.00  0.00    -0.458 OA
ATOM     30  C   UNL     1       0.031  -0.819   1.070  0.00  0.00    +0.129 A 
ENDBRANCH  19  30
ENDBRANCH   1  19
TORSDOF 4
