REMARK  Name = ZINC52770182
REMARK  8 active torsions:
REMARK  status: ('A' for Active; 'I' for Inactive)
REMARK    1  A    between atoms: C_4  and  C_22
REMARK    2  A    between atoms: C_5  and  C_7
REMARK    3  A    between atoms: C_7  and  N_8
REMARK    4  A    between atoms: C_9  and  C_11
REMARK    5  A    between atoms: C_16  and  S_17
REMARK    6  A    between atoms: S_17  and  C_18
REMARK    7  A    between atoms: C_18  and  C_19
REMARK    8  A    between atoms: C_22  and  N_23
REMARK                            x       y       z     vdW  Elec       q    Type
REMARK                         _______ _______ _______ _____ _____    ______ ____
ROOT
ATOM      1  N   UNL     1       1.180  -2.539   1.311  0.00  0.00    -0.307 N 
ATOM      2  C   UNL     1       1.186  -3.876   1.476  0.00  0.00    +0.245 C 
ATOM      3  O   UNL     1       1.055  -4.608   0.513  0.00  0.00    -0.270 OA
ATOM      4  H   UNL     1       1.285  -1.955   2.079  0.00  0.00    +0.149 HD
ENDROOT
BRANCH   2   5
ATOM      5  C   UNL     1       1.352  -4.453   2.822  0.00  0.00    +0.050 A 
ATOM      6  C   UNL     1       1.498  -3.617   3.932  0.00  0.00    +0.014 A 
ATOM      7  C   UNL     1       1.653  -4.162   5.187  0.00  0.00    +0.001 A 
ATOM      8  C   UNL     1       1.665  -5.538   5.357  0.00  0.00    +0.001 A 
ATOM      9  C   UNL     1       1.524  -6.377   4.272  0.00  0.00    +0.015 A 
ATOM     10  C   UNL     1       1.359  -5.846   2.998  0.00  0.00    +0.020 A 
BRANCH  10  11
ATOM     11  S   UNL     1       1.169  -6.915   1.610  0.00  0.00    -0.115 S 
BRANCH  11  12
ATOM     12  C   UNL     1       1.243  -8.581   2.326  0.00  0.00    +0.169 C 
BRANCH  12  13
ATOM     13  C   UNL     1       1.091  -9.605   1.232  0.00  0.00    +0.221 C 
ATOM     14  O   UNL     1       0.947  -9.247   0.082  0.00  0.00    -0.275 OA
ATOM     15  N   UNL     1       1.114 -10.919   1.531  0.00  0.00    -0.329 N 
ATOM     16  H   UNL     1       1.229 -11.205   2.450  0.00  0.00    +0.145 HD
ATOM     17  H   UNL     1       1.016 -11.579   0.826  0.00  0.00    +0.145 HD
ENDBRANCH  12  13
ENDBRANCH  11  12
ENDBRANCH  10  11
ENDBRANCH   2   5
BRANCH   1  18
ATOM     18  C   UNL     1       1.015  -1.966  -0.027  0.00  0.00    +0.140 C 
BRANCH  18  23
ATOM     19  C   UNL     1       0.206   1.717   0.164  0.00  0.00    +0.000 A 
ATOM     20  C   UNL     1       1.470   2.277   0.173  0.00  0.00    +0.000 A 
ATOM     21  C   UNL     1       2.586   1.464   0.117  0.00  0.00    +0.002 A 
ATOM     22  C   UNL     1       2.439   0.091   0.053  0.00  0.00    -0.059 A 
ATOM     23  C   UNL     1       1.176  -0.469   0.045  0.00  0.00    -0.029 A 
ATOM     24  C   UNL     1       0.059   0.344   0.099  0.00  0.00    +0.005 A 
BRANCH  22  25
ATOM     25  C   UNL     1       3.656  -0.795  -0.009  0.00  0.00    -0.043 C 
BRANCH  25  26
ATOM     26  N   UNL     1       3.950  -1.318   1.332  0.00  0.00    +0.382 N 
ATOM     27  C   UNL     1       4.333  -0.209   2.215  0.00  0.00    -0.078 C 
ATOM     28  C   UNL     1       4.561  -0.737   3.633  0.00  0.00    -0.019 C 
ATOM     29  C   UNL     1       5.681  -1.782   3.609  0.00  0.00    -0.004 C 
ATOM     30  C   UNL     1       5.304  -2.896   2.628  0.00  0.00    -0.019 C 
ATOM     31  C   UNL     1       5.048  -2.289   1.248  0.00  0.00    -0.078 C 
ATOM     32  H   UNL     1       3.129  -1.772   1.702  0.00  0.00    -0.081 HD
ENDBRANCH  25  26
ENDBRANCH  22  25
ENDBRANCH  18  23
ENDBRANCH   1  18
TORSDOF 8
