REMARK  Name = ZINC39926579
REMARK  5 active torsions:
REMARK  status: ('A' for Active; 'I' for Inactive)
REMARK    1  A    between atoms: C_1  and  C_2
REMARK    2  A    between atoms: C_6  and  C_8
REMARK    3  A    between atoms: C_12  and  S_26
REMARK    4  A    between atoms: N_14  and  N_15
REMARK    5  A    between atoms: C_16  and  C_17
REMARK                            x       y       z     vdW  Elec       q    Type
REMARK                         _______ _______ _______ _____ _____    ______ ____
ROOT
ATOM      1  C   UNL     1      -0.061  -2.955   2.664  0.00  0.00    +0.206 C 
ATOM      2  N   UNL     1       0.497  -2.339   3.890  0.00  0.00    -0.229 NA
ATOM      3  N   UNL     1       1.048  -3.473   4.649  0.00  0.00    -0.225 NA
ATOM      4  C   UNL     1       1.615  -4.343   3.586  0.00  0.00    +0.231 C 
ATOM      5  N   UNL     1       0.651  -4.230   2.471  0.00  0.00    -0.205 N 
ATOM      6  H   UNL     1       1.218  -1.671   3.663  0.00  0.00    +0.143 HD
ATOM      7  H   UNL     1       1.768  -3.165   5.286  0.00  0.00    +0.143 HD
ENDROOT
BRANCH   1  13
ATOM      8  C   UNL     1       0.405   1.647   0.752  0.00  0.00    +0.044 C 
ATOM      9  C   UNL     1       0.393   0.151   0.566  0.00  0.00    -0.050 A 
ATOM     10  C   UNL     1       0.593  -0.391  -0.690  0.00  0.00    +0.003 A 
ATOM     11  C   UNL     1       0.582  -1.762  -0.860  0.00  0.00    +0.001 A 
ATOM     12  C   UNL     1       0.370  -2.592   0.225  0.00  0.00    +0.007 A 
ATOM     13  C   UNL     1       0.170  -2.050   1.481  0.00  0.00    -0.010 A 
ATOM     14  C   UNL     1       0.186  -0.678   1.652  0.00  0.00    +0.010 A 
ENDBRANCH   1  13
BRANCH   5  15
ATOM     15  N   UNL     1       0.469  -5.080   1.517  0.00  0.00    -0.188 NA
ATOM     16  C   UNL     1       1.262  -6.118   1.403  0.00  0.00    +0.136 C 
BRANCH  16  17
ATOM     17  C   UNL     1       0.984  -7.110   0.459  0.00  0.00    +0.000 C 
ATOM     18  C   UNL     1       1.718  -8.272   0.214  0.00  0.00    +0.004 A 
ATOM     19  C   UNL     1       2.894  -8.796   0.791  0.00  0.00    +0.010 A 
ATOM     20  C   UNL     1       3.395  -9.977   0.345  0.00  0.00    +0.001 A 
ATOM     21  C   UNL     1       2.773 -10.695  -0.679  0.00  0.00    +0.002 A 
ATOM     22  C   UNL     1       1.641 -10.251  -1.278  0.00  0.00    +0.026 A 
ATOM     23  C   UNL     1       1.058  -9.025  -0.865  0.00  0.00    +0.043 A 
ATOM     24  N   UNL     1      -0.019  -8.388  -1.280  0.00  0.00    -0.380 N 
ATOM     25  C   UNL     1      -0.179  -7.152  -0.508  0.00  0.00    +0.150 C 
ATOM     26  H   UNL     1      -0.615  -8.691  -1.983  0.00  0.00    +0.160 HD
ENDBRANCH  16  17
ENDBRANCH   5  15
BRANCH   4  27
ATOM     27  S   UNL     1       1.725  -6.059   4.162  0.00  0.00    -0.138 S 
ATOM     28  H   UNL     1       2.561  -5.997   5.213  0.00  0.00    +0.105 HD
ENDBRANCH   4  27
TORSDOF 4
