REMARK  Name = ZINC47057100
REMARK  5 active torsions:
REMARK  status: ('A' for Active; 'I' for Inactive)
REMARK    1  A    between atoms: C_3  and  C_6
REMARK    2  A    between atoms: C_6  and  N_7
REMARK    3  A    between atoms: N_16  and  C_17
REMARK    4  A    between atoms: C_17  and  C_18
REMARK    5  A    between atoms: C_18  and  N_19
REMARK                            x       y       z     vdW  Elec       q    Type
REMARK                         _______ _______ _______ _____ _____    ______ ____
ROOT
ATOM      1  N   UNL     1       4.226   2.001   1.366  0.00  0.00    +0.384 N 
ATOM      2  C   UNL     1       5.496   2.722   1.331  0.00  0.00    -0.077 C 
ATOM      3  C   UNL     1       5.656   3.515   2.609  0.00  0.00    +0.000 C 
ATOM      4  C   UNL     1       6.448   2.681   3.633  0.00  0.00    +0.107 C 
ATOM      5  N   UNL     1       6.040   1.262   3.592  0.00  0.00    -0.287 N 
ATOM      6  C   UNL     1       4.655   0.857   3.465  0.00  0.00    +0.091 C 
ATOM      7  C   UNL     1       4.282   0.726   1.970  0.00  0.00    -0.059 C 
ATOM      8  C   UNL     1       6.990   0.310   3.675  0.00  0.00    +0.302 C 
ATOM      9  O   UNL     1       8.165   0.624   3.693  0.00  0.00    -0.253 OA
ATOM     10  N   UNL     1       6.638  -0.990   3.738  0.00  0.00    -0.298 N 
ATOM     11  H   UNL     1       5.707  -1.245   3.648  0.00  0.00    +0.150 HD
ATOM     12  H   UNL     1       3.557   2.563   1.871  0.00  0.00    -0.081 HD
ENDROOT
BRANCH   1  13
ATOM     13  C   UNL     1       3.745   1.841  -0.013  0.00  0.00    -0.036 C 
BRANCH  13  16
ATOM     14  C   UNL     1      -0.032   1.348   0.038  0.00  0.00    +0.008 A 
ATOM     15  C   UNL     1       1.168   2.034   0.024  0.00  0.00    +0.009 A 
ATOM     16  C   UNL     1       2.327   1.331   0.005  0.00  0.00    -0.027 A 
ATOM     17  S   UNL     1       1.738  -0.354   0.007  0.00  0.00    -0.103 S 
ATOM     18  C   UNL     1      -0.013  -0.008   0.032  0.00  0.00    +0.045 A 
ENDBRANCH  13  16
ENDBRANCH   1  13
BRANCH  10  19
ATOM     19  C   UNL     1       7.663  -2.017   3.941  0.00  0.00    +0.124 C 
BRANCH  19  20
ATOM     20  C   UNL     1       7.002  -3.396   3.974  0.00  0.00    +0.123 C 
BRANCH  20  21
ATOM     21  N   UNL     1       8.027  -4.424   4.177  0.00  0.00    -0.312 N 
ATOM     22  C   UNL     1       7.666  -5.758   4.242  0.00  0.00    +0.215 A 
ATOM     23  N   UNL     1       6.390  -6.090   4.112  0.00  0.00    -0.223 NA
ATOM     24  C   UNL     1       6.011  -7.356   4.168  0.00  0.00    +0.116 A 
ATOM     25  C   UNL     1       6.967  -8.339   4.365  0.00  0.00    +0.039 A 
ATOM     26  C   UNL     1       8.293  -7.958   4.497  0.00  0.00    +0.116 A 
ATOM     27  N   UNL     1       8.605  -6.674   4.426  0.00  0.00    -0.223 NA
ATOM     28  H   UNL     1       8.959  -4.168   4.267  0.00  0.00    +0.149 HD
ENDBRANCH  20  21
ENDBRANCH  19  20
ENDBRANCH  10  19
TORSDOF 5
