REMARK  Name = ZINC20407280
REMARK  10 active torsions:
REMARK  status: ('A' for Active; 'I' for Inactive)
REMARK    1  A    between atoms: C_1  and  C_2
REMARK    2  A    between atoms: C_5  and  C_7
REMARK    3  A    between atoms: N_8  and  N_9
REMARK    4  A    between atoms: C_12  and  S_15
REMARK    5  A    between atoms: S_15  and  C_16
REMARK    6  A    between atoms: C_16  and  C_17
REMARK    7  A    between atoms: N_19  and  C_20
REMARK    8  A    between atoms: C_20  and  C_21
REMARK    9  A    between atoms: C_20  and  C_22
REMARK   10  A    between atoms: C_20  and  C_23
REMARK                            x       y       z     vdW  Elec       q    Type
REMARK                         _______ _______ _______ _____ _____    ______ ____
ROOT
ATOM      1  N   UNL     1       1.123   5.496   0.021  0.00  0.00    -0.205 N 
ATOM      2  C   UNL     1       0.157   6.490   0.036  0.00  0.00    +0.232 A 
ATOM      3  N   UNL     1       0.389   7.838   0.042  0.00  0.00    -0.186 NA
ATOM      4  C   UNL     1      -0.819   8.475   0.057  0.00  0.00    +0.211 A 
ATOM      5  N   UNL     1      -1.759   7.561   0.061  0.00  0.00    -0.144 NA
ATOM      6  N   UNL     1      -1.141   6.304   0.043  0.00  0.00    -0.245 N 
ATOM      7  H   UNL     1       2.190   5.766   0.012  0.00  0.00    +0.177 HD
ATOM      8  H   UNL     1      -1.550   5.282   0.033  0.00  0.00    +0.192 HD
ENDROOT
BRANCH   1  10
ATOM      9  C   UNL     1       1.649   3.215   0.004  0.00  0.00    +0.176 C 
ATOM     10  N   UNL     1       0.742   4.148   0.018  0.00  0.00    -0.184 NA
BRANCH   9  15
ATOM     11  C   UNL     1      -1.211  -0.898   0.009  0.00  0.00    +0.086 C 
ATOM     12  C   UNL     1       0.002  -0.004   0.002  0.00  0.00    +0.103 A 
ATOM     13  C   UNL     1       1.284  -0.420  -0.013  0.00  0.00    +0.045 A 
ATOM     14  C   UNL     1       2.093   0.732  -0.014  0.00  0.00    +0.051 A 
ATOM     15  C   UNL     1       1.249   1.804  -0.000  0.00  0.00    +0.148 A 
ATOM     16  O   UNL     1      -0.016   1.339   0.009  0.00  0.00    -0.459 OA
ENDBRANCH   9  15
ENDBRANCH   1  10
BRANCH   4  17
ATOM     17  S   UNL     1      -1.070  10.219   0.069  0.00  0.00    -0.075 S 
BRANCH  17  18
ATOM     18  C   UNL     1      -2.874  10.403   0.088  0.00  0.00    +0.173 C 
BRANCH  18  19
ATOM     19  C   UNL     1      -3.230  11.867   0.100  0.00  0.00    +0.224 C 
ATOM     20  O   UNL     1      -2.353  12.704   0.096  0.00  0.00    -0.275 OA
ATOM     21  N   UNL     1      -4.523  12.246   0.115  0.00  0.00    -0.310 N 
ATOM     22  H   UNL     1      -5.319  11.487   0.118  0.00  0.00    +0.149 HD
BRANCH  21  23
ATOM     23  C   UNL     1      -4.869  13.670   0.126  0.00  0.00    +0.026 C 
ATOM     24  C   UNL     1      -4.301  14.342  -1.125  0.00  0.00    +0.031 C 
ATOM     25  C   UNL     1      -6.391  13.825   0.142  0.00  0.00    +0.031 C 
ATOM     26  C   UNL     1      -4.276  14.329   1.373  0.00  0.00    +0.031 C 
ENDBRANCH  21  23
ENDBRANCH  18  19
ENDBRANCH  17  18
ENDBRANCH   4  17
TORSDOF 6
