REMARK  Name = ZINC04607646
REMARK  4 active torsions:
REMARK  status: ('A' for Active; 'I' for Inactive)
REMARK    1  A    between atoms: C_1  and  C_2
REMARK    2  A    between atoms: C_2  and  C_3
REMARK    3  A    between atoms: C_8  and  N_9
REMARK    4  A    between atoms: C_22  and  C_24
REMARK                            x       y       z     vdW  Elec       q    Type
REMARK                         _______ _______ _______ _____ _____    ______ ____
ROOT
ATOM      1  N   UNL     1       5.356  -3.026   0.472  0.00  0.00    -0.269 N 
ATOM      2  C   UNL     1       5.076  -2.280  -0.615  0.00  0.00    +0.306 C 
ATOM      3  O   UNL     1       5.229  -2.746  -1.727  0.00  0.00    -0.252 OA
ATOM      4  N   UNL     1       4.627  -1.018  -0.468  0.00  0.00    -0.285 N 
ATOM      5  C   UNL     1       4.559  -0.399   0.863  0.00  0.00    +0.112 C 
ATOM      6  C   UNL     1       5.332   0.925   0.829  0.00  0.00    +0.056 C 
ATOM      7  C   UNL     1       4.814   1.786  -0.313  0.00  0.00    +0.087 C 
ATOM      8  C   UNL     1       4.973   1.086  -1.655  0.00  0.00    +0.056 C 
ATOM      9  C   UNL     1       4.198  -0.237  -1.636  0.00  0.00    +0.112 C 
ATOM     10  N   UNL     1       3.420   2.186  -0.086  0.00  0.00    -0.282 N 
ATOM     11  C   UNL     1       3.158   3.624  -0.098  0.00  0.00    +0.120 C 
ATOM     12  C   UNL     1       4.395   4.414   0.432  0.00  0.00    +0.090 C 
ATOM     13  S   UNL     1       5.723   3.384  -0.341  0.00  0.00    -0.133 S 
ATOM     14  C   UNL     1       2.441   1.282   0.117  0.00  0.00    +0.254 C 
ATOM     15  O   UNL     1       2.662   0.097  -0.050  0.00  0.00    -0.269 OA
ATOM     16  H   UNL     1       5.316  -2.630   1.357  0.00  0.00    +0.156 HD
ENDROOT
BRANCH   1  22
ATOM     17  C   UNL     1       5.806  -5.192   1.442  0.00  0.00    -0.026 A 
ATOM     18  C   UNL     1       6.150  -6.522   1.294  0.00  0.00    +0.005 A 
ATOM     19  C   UNL     1       6.394  -7.037   0.034  0.00  0.00    +0.000 A 
ATOM     20  C   UNL     1       6.295  -6.225  -1.080  0.00  0.00    +0.002 A 
ATOM     21  C   UNL     1       5.946  -4.896  -0.939  0.00  0.00    +0.023 A 
ATOM     22  C   UNL     1       5.705  -4.374   0.325  0.00  0.00    +0.038 A 
BRANCH  17  24
ATOM     23  C   UNL     1       4.037  -4.674   3.101  0.00  0.00    +0.009 C 
ATOM     24  C   UNL     1       5.539  -4.631   2.815  0.00  0.00    +0.033 C 
ENDBRANCH  17  24
ENDBRANCH   1  22
BRANCH  14  25
ATOM     25  C   UNL     1       1.109   1.726   0.538  0.00  0.00    +0.074 A 
ATOM     26  C   UNL     1      -0.055   0.986   0.681  0.00  0.00    +0.021 A 
ATOM     27  C   UNL     1      -1.178   1.661   1.090  0.00  0.00    +0.008 A 
ATOM     28  C   UNL     1      -1.097   2.994   1.341  0.00  0.00    +0.046 A 
ATOM     29  S   UNL     1       0.562   3.361   1.000  0.00  0.00    -0.092 S 
ENDBRANCH  14  25
TORSDOF 3
