REMARK  Name = ZINC09243459
REMARK  4 active torsions:
REMARK  status: ('A' for Active; 'I' for Inactive)
REMARK    1  A    between atoms: C_1  and  C_2
REMARK    2  A    between atoms: C_7  and  C_12
REMARK    3  A    between atoms: C_12  and  C_13
REMARK    4  A    between atoms: C_14  and  C_26
REMARK                            x       y       z     vdW  Elec       q    Type
REMARK                         _______ _______ _______ _____ _____    ______ ____
ROOT
ATOM      1  C   UNL     1       4.869  -0.031  -0.116  0.00  0.00    +0.077 C 
ATOM      2  C   UNL     1       6.255  -0.621  -0.241  0.00  0.00    +0.152 C 
ATOM      3  N   UNL     1       7.186   0.508  -0.327  0.00  0.00    -0.232 N 
ATOM      4  C   UNL     1       6.488   1.654  -0.265  0.00  0.00    +0.293 C 
ATOM      5  O   UNL     1       6.972   2.767  -0.311  0.00  0.00    -0.266 OA
ATOM      6  C   UNL     1       5.035   1.362  -0.139  0.00  0.00    +0.250 C 
ATOM      7  O   UNL     1       4.144   2.189  -0.065  0.00  0.00    -0.282 OA
ATOM      8  C   UNL     1       8.564   0.409  -0.452  0.00  0.00    +0.168 A 
ATOM      9  N   UNL     1       9.315  -0.674  -0.513  0.00  0.00    -0.233 NA
ATOM     10  C   UNL     1      10.625  -0.591  -0.636  0.00  0.00    +0.120 A 
ATOM     11  C   UNL     1      11.192   0.640  -0.690  0.00  0.00    +0.068 A 
ATOM     12  S   UNL     1       9.744   1.679  -0.560  0.00  0.00    -0.060 S 
ENDROOT
BRANCH   2  13
ATOM     13  C   UNL     1       6.348  -1.462  -1.488  0.00  0.00    -0.022 A 
ATOM     14  C   UNL     1       6.534  -0.857  -2.717  0.00  0.00    +0.008 A 
ATOM     15  C   UNL     1       6.625  -1.628  -3.861  0.00  0.00    +0.038 A 
ATOM     16  C   UNL     1       6.517  -3.006  -3.777  0.00  0.00    +0.123 A 
ATOM     17  C   UNL     1       6.325  -3.610  -2.546  0.00  0.00    +0.038 A 
ATOM     18  C   UNL     1       6.240  -2.838  -1.403  0.00  0.00    +0.008 A 
ATOM     19  F   UNL     1       6.599  -3.759  -4.895  0.00  0.00    -0.205 F 
ENDBRANCH   2  13
BRANCH   1  20
ATOM     20  C   UNL     1       3.679  -0.723  -0.008  0.00  0.00    +0.195 C 
ATOM     21  O   UNL     1       3.682  -2.074  -0.001  0.00  0.00    -0.287 OA
BRANCH  20  27
ATOM     22  C   UNL     1      -1.561   4.100   2.009  0.00  0.00    +0.052 C 
ATOM     23  C   UNL     1      -0.980   2.688   1.904  0.00  0.00    +0.175 C 
ATOM     24  C   UNL     1       0.544   2.702   2.167  0.00  0.00    +0.083 C 
ATOM     25  C   UNL     1       1.039   1.646   1.198  0.00  0.00    -0.002 A 
ATOM     26  C   UNL     1       2.228   0.966   1.107  0.00  0.00    +0.019 A 
ATOM     27  C   UNL     1       2.409   0.010   0.099  0.00  0.00    +0.023 A 
ATOM     28  C   UNL     1       1.370  -0.240  -0.806  0.00  0.00    +0.015 A 
ATOM     29  C   UNL     1       0.186   0.449  -0.707  0.00  0.00    +0.046 A 
ATOM     30  C   UNL     1       0.005   1.406   0.295  0.00  0.00    +0.124 A 
ATOM     31  O   UNL     1      -1.067   2.201   0.555  0.00  0.00    -0.488 OA
ENDBRANCH  20  27
ENDBRANCH   1  20
TORSDOF 3
