REMARK  Name = ZINC52908158
REMARK  3 active torsions:
REMARK  status: ('A' for Active; 'I' for Inactive)
REMARK    1  A    between atoms: C_3  and  S_11
REMARK    2  A    between atoms: C_4  and  C_8
REMARK    3  A    between atoms: S_11  and  C_12
REMARK                            x       y       z     vdW  Elec       q    Type
REMARK                         _______ _______ _______ _____ _____    ______ ____
ROOT
ATOM      1  C   UNL     1      -0.016   1.381  -0.119  0.00  0.00    +0.003 A 
ATOM      2  C   UNL     1       1.166   2.095  -0.126  0.00  0.00    +0.016 A 
ATOM      3  C   UNL     1       2.381   1.431  -0.014  0.00  0.00    +0.026 A 
ATOM      4  C   UNL     1       2.400   0.033   0.105  0.00  0.00    +0.044 A 
ATOM      5  C   UNL     1       1.196  -0.676   0.111  0.00  0.00    +0.052 A 
ATOM      6  C   UNL     1      -0.001   0.002  -0.001  0.00  0.00    +0.021 A 
ATOM      7 CL   UNL     1       1.206  -2.405   0.258  0.00  0.00    -0.083 Cl
ENDROOT
BRANCH   4   8
ATOM      8  C   UNL     1       3.684  -0.684   0.224  0.00  0.00    +0.097 C 
ATOM      9  N   UNL     1       4.071  -1.521  -0.739  0.00  0.00    -0.387 N 
ATOM     10  N   UNL     1       4.457  -0.495   1.293  0.00  0.00    -0.344 N 
ATOM     11  H   UNL     1       3.509  -1.659  -1.518  0.00  0.00    +0.157 HD
ATOM     12  H   UNL     1       4.175   0.114   1.994  0.00  0.00    +0.144 HD
ATOM     13  H   UNL     1       5.301  -0.967   1.371  0.00  0.00    +0.144 HD
ATOM     14  H   UNL     1       4.915  -1.993  -0.661  0.00  0.00    +0.157 HD
ENDBRANCH   4   8
BRANCH   3  15
ATOM     15  S   UNL     1       3.890   2.340  -0.024  0.00  0.00    -0.067 S 
BRANCH  15  16
ATOM     16  C   UNL     1       4.541   2.068  -1.639  0.00  0.00    +0.130 A 
ATOM     17  C   UNL     1       5.803   2.552  -1.991  0.00  0.00    +0.118 A 
ATOM     18  C   UNL     1       6.278   2.310  -3.290  0.00  0.00    +0.182 A 
ATOM     19  N   UNL     1       7.499   2.872  -3.370  0.00  0.00    -0.216 NA
ATOM     20  H   UNL     1       6.769   3.587  -0.434  0.00  0.00    +0.167 HD
ATOM     21  C   UNL     1       7.802   3.433  -2.233  0.00  0.00    +0.199 A 
ATOM     22  N   UNL     1       6.792   3.265  -1.349  0.00  0.00    -0.341 N 
ATOM     23  N   UNL     1       5.504   1.626  -4.139  0.00  0.00    -0.214 NA
ATOM     24  C   UNL     1       4.322   1.190  -3.763  0.00  0.00    +0.224 A 
ATOM     25  N   UNL     1       3.844   1.392  -2.549  0.00  0.00    -0.227 NA
ENDBRANCH  15  16
ENDBRANCH   3  15
TORSDOF 3
