REMARK  Name = ZINC39231591
REMARK  8 active torsions:
REMARK  status: ('A' for Active; 'I' for Inactive)
REMARK    1  A    between atoms: C_1  and  C_2
REMARK    2  A    between atoms: C_2  and  C_28
REMARK    3  A    between atoms: N_14  and  C_15
REMARK    4  A    between atoms: C_15  and  C_17
REMARK    5  A    between atoms: C_17  and  S_18
REMARK    6  A    between atoms: S_18  and  C_19
REMARK    7  A    between atoms: C_24  and  O_26
REMARK    8  A    between atoms: O_26  and  C_27
REMARK                            x       y       z     vdW  Elec       q    Type
REMARK                         _______ _______ _______ _____ _____    ______ ____
ROOT
ATOM      1  C   UNL     1       0.004   1.495   0.309  0.00  0.00    +0.011 C 
ATOM      2  C   UNL     1       0.002  -0.004   0.002  0.00  0.00    -0.026 C 
ATOM      3  C   UNL     1       0.543  -0.217  -1.422  0.00  0.00    +0.030 C 
ATOM      4  C   UNL     1       0.501  -1.721  -1.677  0.00  0.00    +0.093 C 
ATOM      5  C   UNL     1       1.601  -2.294  -0.728  0.00  0.00    +0.140 C 
ATOM      6  C   UNL     1       1.103  -2.184   0.649  0.00  0.00    +0.149 C 
ATOM      7  O   UNL     1       0.948  -3.139   1.373  0.00  0.00    -0.296 OA
ATOM      8  C   UNL     1       0.819  -0.724   1.071  0.00  0.00    +0.082 C 
ATOM      9  S   UNL     1       1.866  -3.893  -1.514  0.00  0.00    -0.080 S 
ATOM     10  C   UNL     1       1.094  -3.581  -2.989  0.00  0.00    +0.147 C 
ATOM     11  N   UNL     1       0.865  -2.211  -2.998  0.00  0.00    -0.321 N 
ATOM     12  N   UNL     1       0.774  -4.458  -3.934  0.00  0.00    -0.159 NA
ATOM     13  C   UNL     1      -1.439  -0.514   0.059  0.00  0.00    +0.011 C 
ATOM     14  H   UNL     1       0.940  -1.651  -3.786  0.00  0.00    +0.148 HD
ENDROOT
BRANCH  12  15
ATOM     15  C   UNL     1       0.166  -4.048  -5.044  0.00  0.00    +0.248 C 
ATOM     16  O   UNL     1      -0.098  -2.870  -5.193  0.00  0.00    -0.273 OA
BRANCH  15  17
ATOM     17  C   UNL     1      -0.197  -5.042  -6.116  0.00  0.00    +0.175 C 
BRANCH  17  18
ATOM     18  S   UNL     1      -1.008  -4.181  -7.491  0.00  0.00    -0.076 S 
BRANCH  18  19
ATOM     19  C   UNL     1      -1.365  -5.462  -8.646  0.00  0.00    +0.195 A 
ATOM     20  N   UNL     1      -1.021  -6.708  -8.355  0.00  0.00    -0.183 NA
ATOM     21  C   UNL     1      -1.274  -7.700  -9.203  0.00  0.00    +0.278 A 
ATOM     22  O   UNL     1      -0.920  -8.972  -8.898  0.00  0.00    -0.266 OA
ATOM     23  C   UNL     1      -1.909  -7.416 -10.407  0.00  0.00    +0.139 A 
ATOM     24  C   UNL     1      -2.256  -6.096 -10.678  0.00  0.00    +0.222 A 
ATOM     25  N   UNL     1      -1.976  -5.156  -9.782  0.00  0.00    -0.187 NA
BRANCH  24  26
ATOM     26  O   UNL     1      -2.875  -5.775 -11.840  0.00  0.00    -0.479 OA
ATOM     27  C   UNL     1      -3.198  -4.397 -12.043  0.00  0.00    +0.279 C 
ENDBRANCH  24  26
ENDBRANCH  18  19
ENDBRANCH  17  18
ENDBRANCH  15  17
ENDBRANCH  12  15
TORSDOF 5
