REMARK  Name = ZINC22450257
REMARK  7 active torsions:
REMARK  status: ('A' for Active; 'I' for Inactive)
REMARK    1  A    between atoms: C_1  and  C_2
REMARK    2  A    between atoms: C_2  and  C_3
REMARK    3  A    between atoms: C_3  and  C_4
REMARK    4  A    between atoms: C_5  and  C_20
REMARK    5  A    between atoms: C_16  and  C_19
REMARK    6  A    between atoms: C_20  and  O_21
REMARK    7  A    between atoms: O_21  and  C_22
REMARK                            x       y       z     vdW  Elec       q    Type
REMARK                         _______ _______ _______ _____ _____    ______ ____
ROOT
ATOM      1  C   UNL     1       1.887   2.563  -1.115  0.00  0.00    +0.041 A 
ATOM      2  C   UNL     1       1.359   2.067   0.042  0.00  0.00    +0.079 A 
ATOM      3  N   UNL     1       2.129   1.920   1.117  0.00  0.00    -0.218 NA
ATOM      4  C   UNL     1       3.405   2.249   1.097  0.00  0.00    +0.199 A 
ATOM      5  N   UNL     1       3.985   2.753  -0.026  0.00  0.00    -0.295 N 
ATOM      6  H   UNL     1       5.052   3.021  -0.021  0.00  0.00    +0.172 HD
ATOM      7  C   UNL     1       3.246   2.921  -1.143  0.00  0.00    +0.256 A 
ATOM      8  O   UNL     1       3.750   3.371  -2.159  0.00  0.00    -0.267 OA
ATOM      9  N   UNL     1       4.161   2.081   2.227  0.00  0.00    -0.301 N 
ATOM     10  C   UNL     1       4.891   3.311   2.559  0.00  0.00    +0.108 C 
ATOM     11  C   UNL     1       5.833   3.045   3.736  0.00  0.00    +0.019 C 
ATOM     12  C   UNL     1       5.015   2.573   4.941  0.00  0.00    +0.006 C 
ATOM     13  C   UNL     1       4.227   1.319   4.554  0.00  0.00    +0.003 C 
ATOM     14  C   UNL     1       3.332   1.635   3.353  0.00  0.00    +0.111 C 
ATOM     15  C   UNL     1       3.361   0.874   5.734  0.00  0.00    +0.009 C 
ENDROOT
BRANCH   1  16
ATOM     16  C   UNL     1       1.026   2.727  -2.341  0.00  0.00    +0.042 C 
BRANCH  16  18
ATOM     17  C   UNL     1      -0.409   4.317  -3.627  0.00  0.00    +0.004 C 
ATOM     18  C   UNL     1       0.465   4.150  -2.383  0.00  0.00    +0.001 C 
ENDBRANCH  16  18
ENDBRANCH   1  16
BRANCH   2  19
ATOM     19  C   UNL     1      -0.096   1.680   0.100  0.00  0.00    +0.215 C 
BRANCH  19  20
ATOM     20  O   UNL     1      -0.206   0.267   0.278  0.00  0.00    -0.377 OA
ATOM     21  C   UNL     1      -1.553  -0.207   0.346  0.00  0.00    +0.194 C 
ENDBRANCH  19  20
ENDBRANCH   2  19
TORSDOF 4
