REMARK  Name = ZINC33630623
REMARK  12 active torsions:
REMARK  status: ('A' for Active; 'I' for Inactive)
REMARK    1  A    between atoms: C_1  and  C_2
REMARK    2  A    between atoms: C_2  and  C_3
REMARK    3  A    between atoms: C_7  and  C_36
REMARK    4  A    between atoms: C_8  and  N_9
REMARK    5  A    between atoms: C_14  and  C_27
REMARK    6  A    between atoms: C_17  and  C_22
REMARK    7  A    between atoms: C_17  and  C_24
REMARK    8  A    between atoms: C_22  and  O_23
REMARK    9  A    between atoms: C_31  and  O_34
REMARK   10  A    between atoms: C_32  and  O_33
REMARK   11  A    between atoms: O_34  and  C_35
REMARK   12  A    between atoms: C_36  and  C_37
REMARK                            x       y       z     vdW  Elec       q    Type
REMARK                         _______ _______ _______ _____ _____    ______ ____
ROOT
ATOM      1  N   UNL     1      -1.240   2.070   0.019  0.00  0.00    -0.209 N 
ATOM      2  C   UNL     1      -1.904   2.453  -1.119  0.00  0.00    +0.229 C 
ATOM      3  O   UNL     1      -1.675   2.105  -2.258  0.00  0.00    -0.275 OA
ATOM      4  C   UNL     1      -2.933   3.353  -0.671  0.00  0.00    +0.077 C 
ATOM      5  C   UNL     1      -4.166   4.027  -1.102  0.00  0.00    -0.023 C 
ATOM      6  N   UNL     1      -4.813   4.510   0.162  0.00  0.00    +0.397 N 
ATOM      7  C   UNL     1      -3.975   4.035   1.310  0.00  0.00    +0.071 C 
ATOM      8  C   UNL     1      -3.284   2.797   0.756  0.00  0.00    +0.088 C 
ATOM      9  C   UNL     1      -1.893   2.433   1.162  0.00  0.00    +0.229 C 
ATOM     10  O   UNL     1      -1.435   2.457   2.285  0.00  0.00    -0.275 OA
ATOM     11  H   UNL     1      -4.863   5.609   0.151  0.00  0.00    -0.083 HD
ATOM     12  H   UNL     1      -5.830   4.097   0.233  0.00  0.00    -0.083 HD
ENDROOT
BRANCH   1  18
ATOM     13  C   UNL     1       1.178   2.092   0.002  0.00  0.00    -0.026 A 
ATOM     14  C   UNL     1       2.381   1.413  -0.013  0.00  0.00    +0.005 A 
ATOM     15  C   UNL     1       2.396   0.031  -0.020  0.00  0.00    +0.001 A 
ATOM     16  C   UNL     1       1.208  -0.677  -0.013  0.00  0.00    +0.005 A 
ATOM     17  C   UNL     1       0.002  -0.004   0.002  0.00  0.00    -0.026 A 
ATOM     18  C   UNL     1      -0.017   1.384   0.010  0.00  0.00    +0.050 A 
BRANCH  13  20
ATOM     19  C   UNL     1       1.044   4.099   1.451  0.00  0.00    +0.009 C 
ATOM     20  C   UNL     1       1.161   3.599   0.010  0.00  0.00    +0.033 C 
ENDBRANCH  13  20
BRANCH  17  21
ATOM     21  C   UNL     1      -1.292  -0.776   0.011  0.00  0.00    +0.033 C 
ATOM     22  C   UNL     1      -1.809  -0.922  -1.422  0.00  0.00    +0.009 C 
ENDBRANCH  17  21
ENDBRANCH   1  18
BRANCH   5  23
ATOM     23  C   UNL     1      -5.062   3.042  -1.808  0.00  0.00    -0.015 A 
ATOM     24  C   UNL     1      -6.081   2.415  -1.115  0.00  0.00    +0.006 A 
ATOM     25  C   UNL     1      -6.909   1.516  -1.761  0.00  0.00    +0.004 A 
ATOM     26  C   UNL     1      -6.715   1.231  -3.100  0.00  0.00    +0.049 A 
ATOM     27  C   UNL     1      -5.692   1.852  -3.798  0.00  0.00    +0.161 A 
ATOM     28  C   UNL     1      -4.862   2.762  -3.150  0.00  0.00    +0.160 A 
BRANCH  28  29
ATOM     29  O   UNL     1      -3.857   3.374  -3.831  0.00  0.00    -0.503 OA
ATOM     30  H   UNL     1      -3.699   3.150  -4.897  0.00  0.00    +0.292 HD
ENDBRANCH  28  29
BRANCH  27  31
ATOM     31  O   UNL     1      -5.500   1.573  -5.116  0.00  0.00    -0.491 OA
ATOM     32  C   UNL     1      -6.390   0.630  -5.716  0.00  0.00    +0.277 C 
ENDBRANCH  27  31
ENDBRANCH   5  23
BRANCH   7  33
ATOM     33  C   UNL     1      -4.840   3.677   2.491  0.00  0.00    +0.348 C 
ATOM     34  O   UNL     1      -4.590   2.694   3.147  0.00  0.00    -0.248 OA
ATOM     35  O   UNL     1      -5.889   4.450   2.814  0.00  0.00    -0.248 OA
ENDBRANCH   7  33
BRANCH   7  36
ATOM     36  C   UNL     1      -2.946   5.098   1.701  0.00  0.00    +0.155 C 
BRANCH  36  37
ATOM     37  O   UNL     1      -3.620   6.247   2.217  0.00  0.00    -0.396 OA
ATOM     38  H   UNL     1      -3.041   7.120   2.552  0.00  0.00    +0.209 HD
ENDBRANCH  36  37
ENDBRANCH   7  36
TORSDOF 9
