REMARK  Name = ZINC44980467
REMARK  6 active torsions:
REMARK  status: ('A' for Active; 'I' for Inactive)
REMARK    1  A    between atoms: C_8  and  O_27
REMARK    2  A    between atoms: C_10  and  N_12
REMARK    3  A    between atoms: N_15  and  C_16
REMARK    4  A    between atoms: C_16  and  C_17
REMARK    5  A    between atoms: C_17  and  N_18
REMARK    6  A    between atoms: C_20  and  C_25
REMARK                            x       y       z     vdW  Elec       q    Type
REMARK                         _______ _______ _______ _____ _____    ______ ____
ROOT
ATOM      1  N   UNL     1       4.147  -1.058   1.302  0.00  0.00    -0.290 N 
ATOM      2  C   UNL     1       5.090  -0.183   1.704  0.00  0.00    +0.300 C 
ATOM      3  O   UNL     1       5.457   0.702   0.956  0.00  0.00    -0.253 OA
ATOM      4  N   UNL     1       5.626  -0.289   2.936  0.00  0.00    -0.298 N 
ATOM      5  H   UNL     1       3.854  -1.764   1.899  0.00  0.00    +0.151 HD
ATOM      6  H   UNL     1       5.333  -0.996   3.533  0.00  0.00    +0.150 HD
ENDROOT
BRANCH   1  15
ATOM      7  C   UNL     1      -0.017   1.377   0.010  0.00  0.00    +0.000 A 
ATOM      8  C   UNL     1       1.172   2.083   0.002  0.00  0.00    +0.000 A 
ATOM      9  C   UNL     1       2.376   1.406  -0.013  0.00  0.00    +0.006 A 
ATOM     10  C   UNL     1       2.396   0.021  -0.021  0.00  0.00    -0.021 A 
ATOM     11  C   UNL     1       1.208  -0.685  -0.013  0.00  0.00    -0.040 A 
ATOM     12  C   UNL     1       0.002  -0.004   0.002  0.00  0.00    +0.004 A 
ATOM     13  C   UNL     1       1.496  -2.171  -0.025  0.00  0.00    +0.069 C 
ATOM     14  C   UNL     1       2.966  -2.294  -0.480  0.00  0.00    +0.143 C 
ATOM     15  C   UNL     1       3.564  -0.942  -0.037  0.00  0.00    +0.134 C 
BRANCH  14  16
ATOM     16  O   UNL     1       3.613  -3.382   0.184  0.00  0.00    -0.389 OA
ATOM     17  H   UNL     1       3.217  -4.245   0.002  0.00  0.00    +0.210 HD
ENDBRANCH  14  16
ENDBRANCH   1  15
BRANCH   4  18
ATOM     18  C   UNL     1       6.651   0.662   3.373  0.00  0.00    +0.124 C 
BRANCH  18  19
ATOM     19  C   UNL     1       7.088   0.321   4.800  0.00  0.00    +0.121 C 
BRANCH  19  20
ATOM     20  N   UNL     1       8.113   1.272   5.237  0.00  0.00    -0.327 N 
ATOM     21  C   UNL     1       8.663   1.162   6.502  0.00  0.00    +0.136 A 
ATOM     22  C   UNL     1       9.642   2.080   6.920  0.00  0.00    +0.091 A 
ATOM     23  C   UNL     1      10.184   1.950   8.204  0.00  0.00    +0.024 A 
ATOM     24  C   UNL     1       9.729   0.918   9.008  0.00  0.00    +0.021 A 
ATOM     25  C   UNL     1       8.763   0.055   8.525  0.00  0.00    +0.113 A 
ATOM     26  N   UNL     1       8.261   0.197   7.314  0.00  0.00    -0.239 NA
ATOM     27  H   UNL     1       8.405   1.978   4.640  0.00  0.00    +0.148 HD
BRANCH  22  28
ATOM     28  C   UNL     1      10.078   3.130   6.048  0.00  0.00    +0.103 C 
ATOM     29  N   UNL     1      10.423   3.962   5.357  0.00  0.00    -0.191 NA
ENDBRANCH  22  28
ENDBRANCH  19  20
ENDBRANCH  18  19
ENDBRANCH   4  18
TORSDOF 6
