REMARK  Name = ZINC38065068
REMARK  7 active torsions:
REMARK  status: ('A' for Active; 'I' for Inactive)
REMARK    1  A    between atoms: C_1  and  C_2
REMARK    2  A    between atoms: C_2  and  C_3
REMARK    3  A    between atoms: C_3  and  C_5
REMARK    4  A    between atoms: C_3  and  N_6
REMARK    5  A    between atoms: N_6  and  C_7
REMARK    6  A    between atoms: C_7  and  C_9
REMARK    7  A    between atoms: C_7  and  C_19
REMARK                            x       y       z     vdW  Elec       q    Type
REMARK                         _______ _______ _______ _____ _____    ______ ____
ROOT
ATOM      1  C   UNL     1      -3.495  -0.564   1.238  0.00  0.00    +0.047 C 
ENDROOT
BRANCH   1   2
ATOM      2  C   UNL     1      -4.131  -0.293   2.578  0.00  0.00    -0.048 A 
ATOM      3  C   UNL     1      -5.022  -1.205   3.115  0.00  0.00    +0.052 A 
ATOM      4  C   UNL     1      -5.608  -0.959   4.346  0.00  0.00    +0.168 A 
ATOM      5  C   UNL     1      -5.298   0.208   5.040  0.00  0.00    +0.180 A 
ATOM      6  C   UNL     1      -4.405   1.118   4.495  0.00  0.00    +0.063 A 
ATOM      7  C   UNL     1      -3.819   0.862   3.268  0.00  0.00    +0.021 A 
ATOM      8 BR   UNL     1      -3.981   2.704   5.434  0.00  0.00    -0.046 Br
ATOM      9  O   UNL     1      -5.997   0.217   6.213  0.00  0.00    -0.451 OA
ATOM     10  C   UNL     1      -7.045  -0.755   6.043  0.00  0.00    +0.466 C 
ATOM     11  O   UNL     1      -6.500  -1.681   5.084  0.00  0.00    -0.453 OA
ENDBRANCH   1   2
BRANCH   1  12
ATOM     12  C   UNL     1      -4.214   0.223   0.173  0.00  0.00    +0.201 C 
ATOM     13  O   UNL     1      -3.609   1.040  -0.489  0.00  0.00    -0.277 OA
ATOM     14  N   UNL     1      -5.529   0.020  -0.044  0.00  0.00    -0.330 N 
ATOM     15  H   UNL     1      -6.012  -0.633   0.486  0.00  0.00    +0.145 HD
ATOM     16  H   UNL     1      -5.991   0.526  -0.730  0.00  0.00    +0.145 HD
ENDBRANCH   1  12
BRANCH   1  17
ATOM     17  N   UNL     1      -2.083  -0.161   1.276  0.00  0.00    +0.391 N 
ATOM     18  H   UNL     1      -1.621  -0.627   2.043  0.00  0.00    -0.084 HD
ATOM     19  H   UNL     1      -2.022   0.838   1.404  0.00  0.00    -0.084 HD
BRANCH  17  20
ATOM     20  C   UNL     1      -1.433  -0.534   0.013  0.00  0.00    -0.074 C 
ATOM     21  C   UNL     1      -1.416  -2.058  -0.121  0.00  0.00    -0.014 C 
BRANCH  20  23
ATOM     22  C   UNL     1      -0.019   1.526   0.010  0.00  0.00    +0.002 C 
ATOM     23  C   UNL     1       0.002  -0.004   0.002  0.00  0.00    -0.019 C 
ENDBRANCH  20  23
ENDBRANCH  17  20
ENDBRANCH   1  17
TORSDOF 5
