REMARK  Name = ZINC20900947
REMARK  5 active torsions:
REMARK  status: ('A' for Active; 'I' for Inactive)
REMARK    1  A    between atoms: C_1  and  C_2
REMARK    2  A    between atoms: C_3  and  C_13
REMARK    3  A    between atoms: N_9  and  C_10
REMARK    4  A    between atoms: C_10  and  C_11
REMARK    5  A    between atoms: C_10  and  C_12
REMARK                            x       y       z     vdW  Elec       q    Type
REMARK                         _______ _______ _______ _____ _____    ______ ____
ROOT
ATOM      1  C   UNL     1       1.409  -2.183  -0.023  0.00  0.00    +0.049 C 
ATOM      2  C   UNL     1       1.284  -0.681  -0.014  0.00  0.00    +0.018 C 
ATOM      3  C   UNL     1       2.359   0.140  -0.020  0.00  0.00    +0.126 C 
ATOM      4  S   UNL     1       1.596   1.749  -0.004  0.00  0.00    +0.101 S 
ATOM      5  O   UNL     1       1.864   2.368  -1.255  0.00  0.00    -0.146 OA
ATOM      6  O   UNL     1       1.887   2.354   1.248  0.00  0.00    -0.146 OA
ATOM      7  N   UNL     1      -0.016   1.299   0.009  0.00  0.00    -0.113 NA
ATOM      8  C   UNL     1       0.002  -0.004   0.002  0.00  0.00    +0.146 C 
ATOM      9  N   UNL     1      -1.176  -0.725   0.009  0.00  0.00    -0.325 N 
ATOM     10  H   UNL     1      -1.147  -1.825   0.002  0.00  0.00    +0.148 HD
ENDROOT
BRANCH   3  11
ATOM     11  C   UNL     1       3.790  -0.207  -0.036  0.00  0.00    +0.002 A 
ATOM     12  C   UNL     1       4.188  -1.548  -0.042  0.00  0.00    +0.011 A 
ATOM     13  C   UNL     1       5.529  -1.866  -0.063  0.00  0.00    +0.020 A 
ATOM     14  C   UNL     1       6.482  -0.861  -0.066  0.00  0.00    +0.041 A 
ATOM     15  C   UNL     1       6.096   0.469  -0.055  0.00  0.00    +0.020 A 
ATOM     16  C   UNL     1       4.758   0.802  -0.040  0.00  0.00    +0.011 A 
ATOM     17 CL   UNL     1       8.169  -1.270  -0.085  0.00  0.00    -0.084 Cl
ENDBRANCH   3  11
BRANCH   9  18
ATOM     18  C   UNL     1      -2.463  -0.025   0.025  0.00  0.00    +0.066 C 
ATOM     19  C   UNL     1      -3.541  -0.927  -0.580  0.00  0.00    +0.027 C 
ATOM     20  C   UNL     1      -2.837   0.320   1.468  0.00  0.00    +0.027 C 
ENDBRANCH   9  18
TORSDOF 2
