REMARK  Name = ZINC05184011
REMARK  7 active torsions:
REMARK  status: ('A' for Active; 'I' for Inactive)
REMARK    1  A    between atoms: C_1  and  C_2
REMARK    2  A    between atoms: C_4  and  C_23
REMARK    3  A    between atoms: C_6  and  N_8
REMARK    4  A    between atoms: C_9  and  C_11
REMARK    5  A    between atoms: N_13  and  C_14
REMARK    6  A    between atoms: C_14  and  C_15
REMARK    7  A    between atoms: C_15  and  C_16
REMARK                            x       y       z     vdW  Elec       q    Type
REMARK                         _______ _______ _______ _____ _____    ______ ____
ROOT
ATOM      1  C   UNL     1       0.002  -0.004   0.009  0.00  0.00    +0.299 C 
ATOM      2  O   UNL     1       1.062  -0.597   0.004  0.00  0.00    -0.265 OA
ATOM      3  N   UNL     1      -1.155  -0.694   0.014  0.00  0.00    -0.307 N 
ATOM      4  H   UNL     1      -2.002  -0.221   0.018  0.00  0.00    +0.149 HD
ENDROOT
BRANCH   1   6
ATOM      5  N   UNL     1       1.140   2.179   0.003  0.00  0.00    -0.278 N 
ATOM      6  C   UNL     1      -0.018   1.489   0.009  0.00  0.00    +0.303 C 
ATOM      7  O   UNL     1      -1.077   2.082   0.008  0.00  0.00    -0.265 OA
ATOM      8  H   UNL     1       1.985   1.708   0.067  0.00  0.00    +0.155 HD
BRANCH   5  14
ATOM      9  C   UNL     1       3.184   6.330  -1.656  0.00  0.00    +0.044 C 
ATOM     10  C   UNL     1       2.101   5.612  -0.893  0.00  0.00    -0.048 A 
ATOM     11  C   UNL     1       1.087   6.333  -0.289  0.00  0.00    +0.006 A 
ATOM     12  C   UNL     1       0.091   5.678   0.411  0.00  0.00    -0.048 A 
ATOM     13  C   UNL     1       0.105   4.300   0.510  0.00  0.00    +0.026 A 
ATOM     14  C   UNL     1       1.122   3.573  -0.095  0.00  0.00    +0.034 A 
ATOM     15  C   UNL     1       2.125   4.234  -0.793  0.00  0.00    +0.026 A 
ATOM     16  C   UNL     1      -1.012   6.468   1.068  0.00  0.00    +0.044 C 
ENDBRANCH   5  14
ENDBRANCH   1   6
BRANCH   3  17
ATOM     17  C   UNL     1      -1.135  -2.159   0.015  0.00  0.00    +0.109 C 
BRANCH  17  18
ATOM     18  C   UNL     1      -2.571  -2.689   0.021  0.00  0.00    +0.054 C 
BRANCH  18  19
ATOM     19  C   UNL     1      -2.550  -4.196   0.022  0.00  0.00    -0.046 A 
ATOM     20  C   UNL     1      -2.552  -4.887  -1.175  0.00  0.00    +0.005 A 
ATOM     21  C   UNL     1      -2.527  -6.269  -1.176  0.00  0.00    +0.020 A 
ATOM     22  C   UNL     1      -2.512  -6.960   0.022  0.00  0.00    +0.041 A 
ATOM     23  C   UNL     1      -2.516  -6.268   1.220  0.00  0.00    +0.020 A 
ATOM     24  C   UNL     1      -2.535  -4.886   1.219  0.00  0.00    +0.005 A 
ATOM     25 CL   UNL     1      -2.488  -8.696   0.023  0.00  0.00    -0.084 Cl
ENDBRANCH  18  19
ENDBRANCH  17  18
ENDBRANCH   3  17
TORSDOF 5
