REMARK  Name = ZINC05018920
REMARK  5 active torsions:
REMARK  status: ('A' for Active; 'I' for Inactive)
REMARK    1  A    between atoms: C_1  and  C_2
REMARK    2  A    between atoms: C_5  and  O_19
REMARK    3  A    between atoms: N_8  and  C_9
REMARK    4  A    between atoms: C_10  and  C_12
REMARK    5  A    between atoms: C_17  and  O_18
REMARK                            x       y       z     vdW  Elec       q    Type
REMARK                         _______ _______ _______ _____ _____    ______ ____
ROOT
ATOM      1  C   UNL     1       1.306   4.293  -2.275  0.00  0.00    +0.026 C 
ATOM      2  C   UNL     1       0.795   3.817  -0.914  0.00  0.00    +0.077 C 
ATOM      3  C   UNL     1      -0.406   2.846  -1.080  0.00  0.00    +0.073 C 
ATOM      4  C   UNL     1      -0.275   1.986   0.200  0.00  0.00    +0.222 C 
ATOM      5  N   UNL     1       1.115   2.161   0.649  0.00  0.00    -0.202 N 
ATOM      6  N   UNL     1       1.797   2.948  -0.244  0.00  0.00    -0.222 NA
ATOM      7  C   UNL     1       2.820   3.752   0.436  0.00  0.00    +0.128 C 
ATOM      8  C   UNL     1       1.641   1.629   1.770  0.00  0.00    +0.266 C 
ATOM      9  O   UNL     1       2.826   1.757   2.006  0.00  0.00    -0.268 OA
ENDROOT
BRANCH   8  10
ATOM     10  C   UNL     1       0.777   0.890   2.711  0.00  0.00    +0.080 A 
ATOM     11  C   UNL     1      -0.400   0.288   2.259  0.00  0.00    +0.017 A 
ATOM     12  C   UNL     1      -1.202  -0.401   3.142  0.00  0.00    +0.001 A 
ATOM     13  C   UNL     1      -0.848  -0.499   4.478  0.00  0.00    +0.004 A 
ATOM     14  C   UNL     1       0.312   0.092   4.938  0.00  0.00    +0.046 A 
ATOM     15  C   UNL     1       1.134   0.784   4.061  0.00  0.00    +0.129 A 
BRANCH  15  16
ATOM     16  O   UNL     1       2.277   1.360   4.511  0.00  0.00    -0.506 OA
ATOM     17  H   UNL     1       2.165   2.271   4.817  0.00  0.00    +0.292 HD
ENDBRANCH  15  16
ENDBRANCH   8  10
BRANCH   4  18
ATOM     18  O   UNL     1      -1.181   2.447   1.204  0.00  0.00    -0.373 OA
ATOM     19  H   UNL     1      -1.032   2.060   2.077  0.00  0.00    +0.212 HD
ENDBRANCH   4  18
TORSDOF 3
