REMARK  Name = ZINC00482922
REMARK  4 active torsions:
REMARK  status: ('A' for Active; 'I' for Inactive)
REMARK    1  A    between atoms: C_1  and  C_2
REMARK    2  A    between atoms: C_2  and  C_12
REMARK    3  A    between atoms: N_3  and  N_4
REMARK    4  A    between atoms: C_5  and  C_7
REMARK                            x       y       z     vdW  Elec       q    Type
REMARK                         _______ _______ _______ _____ _____    ______ ____
ROOT
ATOM      1  C   UNL     1       4.768   1.143  -0.379  0.00  0.00    +0.068 C 
ATOM      2  C   UNL     1       3.481   1.882  -0.119  0.00  0.00    +0.070 C 
ATOM      3  N   UNL     1       2.383   1.219   0.098  0.00  0.00    -0.184 NA
ENDROOT
BRANCH   2   4
ATOM      4  C   UNL     1       3.466   3.348  -0.112  0.00  0.00    +0.036 A 
ATOM      5  C   UNL     1       4.273   4.232  -0.805  0.00  0.00    +0.018 A 
ATOM      6  C   UNL     1       4.062   5.581  -0.636  0.00  0.00    +0.023 A 
ATOM      7  C   UNL     1       3.083   6.000   0.210  0.00  0.00    +0.055 A 
ATOM      8  S   UNL     1       2.406   4.457   0.801  0.00  0.00    -0.080 S 
ATOM      9 BR   UNL     1       2.569   7.766   0.648  0.00  0.00    -0.043 Br
ENDBRANCH   2   4
BRANCH   3  10
ATOM     10  N   UNL     1       1.160   1.898   0.185  0.00  0.00    -0.200 N 
ATOM     11  C   UNL     1       0.040   1.228   0.520  0.00  0.00    +0.299 C 
ATOM     12  O   UNL     1       0.090   0.033   0.747  0.00  0.00    -0.265 OA
ATOM     13  H   UNL     1       1.120   2.850   0.004  0.00  0.00    +0.178 HD
BRANCH  11  14
ATOM     14  C   UNL     1      -1.241   1.937   0.605  0.00  0.00    +0.191 A 
ATOM     15  C   UNL     1      -2.446   1.381   0.927  0.00  0.00    +0.054 A 
ATOM     16  C   UNL     1      -3.391   2.418   0.889  0.00  0.00    +0.042 A 
ATOM     17  C   UNL     1      -2.730   3.547   0.551  0.00  0.00    +0.196 A 
ATOM     18  O   UNL     1      -1.434   3.254   0.385  0.00  0.00    -0.458 OA
ENDBRANCH  11  14
ENDBRANCH   3  10
TORSDOF 3
