REMARK  Name = ZINC23296123
REMARK  7 active torsions:
REMARK  status: ('A' for Active; 'I' for Inactive)
REMARK    1  A    between atoms: C_10  and  N_14
REMARK    2  A    between atoms: N_14  and  C_15
REMARK    3  A    between atoms: C_15  and  C_16
REMARK    4  A    between atoms: C_16  and  C_17
REMARK    5  A    between atoms: C_17  and  C_18
REMARK    6  A    between atoms: C_19  and  C_25
REMARK    7  A    between atoms: C_20  and  N_24
REMARK                            x       y       z     vdW  Elec       q    Type
REMARK                         _______ _______ _______ _____ _____    ______ ____
ROOT
ATOM      1  N   UNL     1      -0.011   0.966   0.007  0.00  0.00    -0.326 N 
ATOM      2  H   UNL     1       0.004  -0.134   0.006  0.00  0.00    +0.148 HD
ENDROOT
BRANCH   1  12
ATOM      3  C   UNL     1       6.864  -0.191  -0.061  0.00  0.00    +0.001 A 
ATOM      4  C   UNL     1       6.279  -1.448  -0.062  0.00  0.00    +0.004 A 
ATOM      5  C   UNL     1       4.907  -1.583  -0.051  0.00  0.00    +0.047 A 
ATOM      6  C   UNL     1       4.096  -0.454  -0.038  0.00  0.00    +0.138 A 
ATOM      7  C   UNL     1       4.690   0.817  -0.036  0.00  0.00    +0.046 A 
ATOM      8  C   UNL     1       6.077   0.940  -0.048  0.00  0.00    +0.014 A 
ATOM      9  C   UNL     1       3.576   1.779  -0.022  0.00  0.00    +0.122 A 
ATOM     10  C   UNL     1       2.409   1.005  -0.010  0.00  0.00    +0.194 A 
ATOM     11  O   UNL     1       2.753  -0.298  -0.025  0.00  0.00    -0.450 OA
ATOM     12  C   UNL     1       1.180   1.675  -0.000  0.00  0.00    +0.165 A 
ATOM     13  N   UNL     1       1.177   3.004   0.007  0.00  0.00    -0.217 NA
ATOM     14  C   UNL     1       2.303   3.693   0.000  0.00  0.00    +0.224 A 
ATOM     15  N   UNL     1       3.481   3.106  -0.014  0.00  0.00    -0.231 NA
ENDBRANCH   1  12
BRANCH   1  16
ATOM     16  C   UNL     1      -1.290   1.681   0.017  0.00  0.00    +0.103 C 
BRANCH  16  17
ATOM     17  C   UNL     1      -2.439   0.671   0.017  0.00  0.00    +0.025 C 
BRANCH  17  18
ATOM     18  C   UNL     1      -3.774   1.418   0.028  0.00  0.00    +0.060 C 
BRANCH  18  19
ATOM     19  C   UNL     1      -4.906   0.423   0.028  0.00  0.00    +0.082 A 
ATOM     20  C   UNL     1      -5.524  -0.130   1.173  0.00  0.00    +0.113 A 
ATOM     21  C   UNL     1      -6.516  -0.997   0.722  0.00  0.00    +0.129 A 
ATOM     22  N   UNL     1      -6.491  -0.961  -0.626  0.00  0.00    -0.263 N 
ATOM     23  H   UNL     1      -7.194  -1.577  -1.206  0.00  0.00    +0.190 HD
ATOM     24  N   UNL     1      -5.489  -0.071  -1.028  0.00  0.00    -0.176 NA
BRANCH  21  25
ATOM     25  N   UNL     1      -7.366  -1.751   1.508  0.00  0.00    -0.342 N 
ATOM     26  H   UNL     1      -8.115  -2.404   1.037  0.00  0.00    +0.144 HD
ATOM     27  H   UNL     1      -7.293  -1.699   2.604  0.00  0.00    +0.144 HD
ENDBRANCH  21  25
BRANCH  20  28
ATOM     28  C   UNL     1      -5.192   0.148   2.538  0.00  0.00    +0.104 C 
ATOM     29  N   UNL     1      -4.928   0.368   3.621  0.00  0.00    -0.191 NA
ENDBRANCH  20  28
ENDBRANCH  18  19
ENDBRANCH  17  18
ENDBRANCH  16  17
ENDBRANCH   1  16
TORSDOF 7
