REMARK  Name = ZINC62242963
REMARK  4 active torsions:
REMARK  status: ('A' for Active; 'I' for Inactive)
REMARK    1  A    between atoms: C_1  and  C_2
REMARK    2  A    between atoms: C_3  and  C_18
REMARK    3  A    between atoms: N_6  and  C_7
REMARK    4  A    between atoms: C_16  and  O_17
REMARK                            x       y       z     vdW  Elec       q    Type
REMARK                         _______ _______ _______ _____ _____    ______ ____
ROOT
ATOM      1  C   UNL     1       0.176  -0.276   2.373  0.00  0.00    +0.075 A 
ATOM      2  C   UNL     1       0.060   1.072   2.632  0.00  0.00    +0.028 A 
ATOM      3  C   UNL     1       0.146   1.556   3.935  0.00  0.00    +0.003 A 
ATOM      4  C   UNL     1       0.346   0.713   4.986  0.00  0.00    +0.012 A 
ATOM      5  C   UNL     1       0.470  -0.668   4.763  0.00  0.00    +0.026 A 
ATOM      6  C   UNL     1       0.379  -1.172   3.443  0.00  0.00    +0.011 A 
ATOM      7  C   UNL     1       0.497  -2.554   3.222  0.00  0.00    +0.011 A 
ATOM      8  C   UNL     1       0.693  -3.393   4.277  0.00  0.00    +0.004 A 
ATOM      9  C   UNL     1       0.777  -2.903   5.577  0.00  0.00    +0.046 A 
ATOM     10  C   UNL     1       0.678  -1.564   5.831  0.00  0.00    +0.125 A 
ENDROOT
BRANCH   1  16
ATOM     11  C   UNL     1      -2.027   0.496   0.352  0.00  0.00    +0.069 C 
ATOM     12  C   UNL     1      -0.860  -0.436   0.149  0.00  0.00    +0.080 A 
ATOM     13  C   UNL     1      -0.553  -1.121  -0.993  0.00  0.00    +0.185 A 
ATOM     14  N   UNL     1       0.559  -1.842  -0.772  0.00  0.00    -0.118 NA
ATOM     15  N   UNL     1       0.965  -1.650   0.435  0.00  0.00    -0.059 NA
ATOM     16  N   UNL     1       0.088  -0.752   1.060  0.00  0.00    -0.215 N 
BRANCH  13  17
ATOM     17  C   UNL     1      -1.292  -1.078  -2.219  0.00  0.00    +0.123 C 
ATOM     18  N   UNL     1      -1.879  -1.044  -3.192  0.00  0.00    -0.189 NA
ENDBRANCH  13  17
ENDBRANCH   1  16
BRANCH  10  19
ATOM     19  O   UNL     1       0.763  -1.102   7.105  0.00  0.00    -0.506 OA
ATOM     20  H   UNL     1      -0.085  -1.061   7.566  0.00  0.00    +0.292 HD
ENDBRANCH  10  19
TORSDOF 3
