REMARK  Name = ZINC08904947
REMARK  8 active torsions:
REMARK  status: ('A' for Active; 'I' for Inactive)
REMARK    1  A    between atoms: C_1  and  C_2
REMARK    2  A    between atoms: C_7  and  N_8
REMARK    3  A    between atoms: C_10  and  C_15
REMARK    4  A    between atoms: C_21  and  S_23
REMARK    5  A    between atoms: S_23  and  C_24
REMARK    6  A    between atoms: C_24  and  C_25
REMARK    7  A    between atoms: N_27  and  C_28
REMARK    8  A    between atoms: C_31  and  C_34
REMARK                            x       y       z     vdW  Elec       q    Type
REMARK                         _______ _______ _______ _____ _____    ______ ____
ROOT
ATOM      1  C   UNL     1       3.339 -11.475  -0.887  0.00  0.00    +0.224 C 
ATOM      2  O   UNL     1       2.195 -11.085  -0.794  0.00  0.00    -0.275 OA
ATOM      3  N   UNL     1       4.356 -10.591  -0.872  0.00  0.00    -0.263 N 
ATOM      4  C   UNL     1       4.093  -9.229  -0.749  0.00  0.00    +0.189 A 
ATOM      5  N   UNL     1       2.939  -8.593  -0.635  0.00  0.00    -0.125 NA
ATOM      6  N   UNL     1       2.875  -7.338  -0.526  0.00  0.00    -0.133 NA
ATOM      7  C   UNL     1       3.960  -6.578  -0.530  0.00  0.00    +0.160 A 
ATOM      8  S   UNL     1       5.220  -7.838  -0.700  0.00  0.00    -0.024 S 
ATOM      9  H   UNL     1       5.272 -10.903  -0.947  0.00  0.00    +0.157 HD
ENDROOT
BRANCH   1  12
ATOM     10  N   UNL     1       2.537 -14.869  -1.959  0.00  0.00    -0.270 N 
ATOM     11  C   UNL     1       2.314 -13.768  -1.014  0.00  0.00    +0.127 C 
ATOM     12  C   UNL     1       3.624 -12.949  -1.020  0.00  0.00    +0.102 C 
ATOM     13  C   UNL     1       4.196 -13.278  -2.419  0.00  0.00    +0.110 C 
ATOM     14  C   UNL     1       3.584 -14.618  -2.763  0.00  0.00    +0.221 C 
ATOM     15  O   UNL     1       3.981 -15.358  -3.638  0.00  0.00    -0.275 OA
BRANCH  10  22
ATOM     16  C   UNL     1       3.330 -17.093  -0.372  0.00  0.00    +0.045 C 
ATOM     17  C   UNL     1       2.110 -17.140  -1.256  0.00  0.00    -0.029 A 
ATOM     18  C   UNL     1       1.337 -18.283  -1.308  0.00  0.00    +0.005 A 
ATOM     19  C   UNL     1       0.221 -18.328  -2.123  0.00  0.00    +0.000 A 
ATOM     20  C   UNL     1      -0.128 -17.228  -2.884  0.00  0.00    +0.002 A 
ATOM     21  C   UNL     1       0.638 -16.079  -2.832  0.00  0.00    +0.024 A 
ATOM     22  C   UNL     1       1.759 -16.031  -2.014  0.00  0.00    +0.039 A 
ENDBRANCH  10  22
ENDBRANCH   1  12
BRANCH   7  23
ATOM     23  S   UNL     1       4.119  -4.828  -0.398  0.00  0.00    -0.088 S 
BRANCH  23  24
ATOM     24  C   UNL     1       2.408  -4.242  -0.258  0.00  0.00    +0.172 C 
BRANCH  24  25
ATOM     25  C   UNL     1       2.400  -2.740  -0.137  0.00  0.00    +0.227 C 
ATOM     26  O   UNL     1       3.445  -2.125  -0.144  0.00  0.00    -0.275 OA
ATOM     27  N   UNL     1       1.231  -2.079  -0.020  0.00  0.00    -0.285 N 
ATOM     28  H   UNL     1       0.399  -2.574   0.052  0.00  0.00    +0.155 HD
BRANCH  27  29
ATOM     29  C   UNL     1       1.216  -0.685  -0.004  0.00  0.00    +0.033 A 
ATOM     30  C   UNL     1       2.255   0.013   0.603  0.00  0.00    +0.024 A 
ATOM     31  C   UNL     1       2.244   1.390   0.620  0.00  0.00    +0.015 A 
ATOM     32  C   UNL     1       1.188   2.086   0.026  0.00  0.00    +0.037 A 
ATOM     33  C   UNL     1       0.146   1.382  -0.583  0.00  0.00    +0.015 A 
ATOM     34  C   UNL     1       0.163   0.005  -0.596  0.00  0.00    +0.024 A 
BRANCH  32  35
ATOM     35  C   UNL     1       1.173   3.562   0.043  0.00  0.00    +0.242 C 
ATOM     36  O   UNL     1       2.080   4.173   0.574  0.00  0.00    -0.270 OA
ATOM     37  N   UNL     1       0.153   4.232  -0.530  0.00  0.00    -0.325 N 
ATOM     38  H   UNL     1      -0.571   3.744  -0.953  0.00  0.00    +0.145 HD
ATOM     39  H   UNL     1       0.143   5.202  -0.519  0.00  0.00    +0.145 HD
ENDBRANCH  32  35
ENDBRANCH  27  29
ENDBRANCH  24  25
ENDBRANCH  23  24
ENDBRANCH   7  23
TORSDOF 7
