REMARK  Name = ZINC45861227
REMARK  9 active torsions:
REMARK  status: ('A' for Active; 'I' for Inactive)
REMARK    1  A    between atoms: C_1  and  C_2
REMARK    2  A    between atoms: C_5  and  S_25
REMARK    3  A    between atoms: C_7  and  C_8
REMARK    4  A    between atoms: N_10  and  C_11
REMARK    5  A    between atoms: C_11  and  C_12
REMARK    6  A    between atoms: C_12  and  C_14
REMARK    7  A    between atoms: C_12  and  N_19
REMARK    8  A    between atoms: S_25  and  N_28
REMARK    9  A    between atoms: N_28  and  C_29
REMARK                            x       y       z     vdW  Elec       q    Type
REMARK                         _______ _______ _______ _____ _____    ______ ____
ROOT
ATOM      1  C   UNL     1      -0.367  -0.014   2.650  0.00  0.00    +0.244 C 
ATOM      2  O   UNL     1      -0.693   1.153   2.753  0.00  0.00    -0.270 OA
ATOM      3  N   UNL     1       0.135  -0.669   3.715  0.00  0.00    -0.312 N 
ATOM      4  H   UNL     1       0.395  -1.600   3.633  0.00  0.00    +0.149 HD
ENDROOT
BRANCH   1  11
ATOM      5  C   UNL     1      -1.706   1.315   0.456  0.00  0.00    +0.044 C 
ATOM      6  C   UNL     1      -1.166  -0.082   0.292  0.00  0.00    -0.038 A 
ATOM      7  C   UNL     1      -1.302  -0.739  -0.914  0.00  0.00    +0.006 A 
ATOM      8  C   UNL     1      -0.807  -2.021  -1.067  0.00  0.00    +0.029 A 
ATOM      9  C   UNL     1      -0.173  -2.655  -0.013  0.00  0.00    +0.106 A 
ATOM     10  C   UNL     1      -0.030  -2.010   1.198  0.00  0.00    +0.041 A 
ATOM     11  C   UNL     1      -0.522  -0.713   1.357  0.00  0.00    +0.041 A 
BRANCH   9  12
ATOM     12  S   UNL     1       0.453  -4.289  -0.218  0.00  0.00    +0.059 S 
ATOM     13  O   UNL     1       0.519  -4.864   1.080  0.00  0.00    -0.153 OA
ATOM     14  O   UNL     1      -0.290  -4.879  -1.276  0.00  0.00    -0.153 OA
BRANCH  12  15
ATOM     15  N   UNL     1       2.014  -4.152  -0.754  0.00  0.00    -0.187 NA
ATOM     16  H   UNL     1       2.252  -4.470  -1.639  0.00  0.00    +0.148 HD
BRANCH  15  17
ATOM     17  C   UNL     1       3.034  -3.550   0.108  0.00  0.00    +0.077 C 
ATOM     18  C   UNL     1       4.144  -2.743  -0.569  0.00  0.00    +0.022 C 
ATOM     19  C   UNL     1       4.453  -4.119   0.026  0.00  0.00    +0.022 C 
ENDBRANCH  15  17
ENDBRANCH  12  15
ENDBRANCH   9  12
ENDBRANCH   1  11
BRANCH   3  20
ATOM     20  C   UNL     1       0.288   0.024   4.997  0.00  0.00    +0.097 C 
BRANCH  20  21
ATOM     21  C   UNL     1       0.952  -0.914   6.008  0.00  0.00    +0.016 C 
BRANCH  21  22
ATOM     22  N   UNL     1       0.185  -2.164   6.092  0.00  0.00    +0.387 N 
ATOM     23  C   UNL     1      -1.214  -1.857   6.415  0.00  0.00    -0.078 C 
ATOM     24  C   UNL     1      -2.034  -3.149   6.425  0.00  0.00    -0.019 C 
ATOM     25  C   UNL     1      -1.462  -4.103   7.478  0.00  0.00    -0.004 C 
ATOM     26  C   UNL     1       0.017  -4.356   7.174  0.00  0.00    -0.019 C 
ATOM     27  C   UNL     1       0.761  -3.020   7.136  0.00  0.00    -0.078 C 
ATOM     28  H   UNL     1       0.226  -2.643   5.205  0.00  0.00    -0.081 HD
ENDBRANCH  21  22
BRANCH  21  29
ATOM     29  C   UNL     1       0.984  -0.252   7.361  0.00  0.00    +0.093 A 
ATOM     30  C   UNL     1       2.080   0.224   7.978  0.00  0.00    +0.043 A 
ATOM     31  C   UNL     1       1.655   0.757   9.217  0.00  0.00    +0.041 A 
ATOM     32  C   UNL     1       0.324   0.575   9.282  0.00  0.00    +0.195 A 
ATOM     33  O   UNL     1      -0.078  -0.031   8.153  0.00  0.00    -0.469 OA
ENDBRANCH  21  29
ENDBRANCH  20  21
ENDBRANCH   3  20
TORSDOF 8
