REMARK  Name = ZINC60346580
REMARK  10 active torsions:
REMARK  status: ('A' for Active; 'I' for Inactive)
REMARK    1  A    between atoms: C_1  and  C_2
REMARK    2  A    between atoms: C_2  and  C_28
REMARK    3  A    between atoms: N_5  and  C_9
REMARK    4  A    between atoms: C_9  and  C_10
REMARK    5  A    between atoms: N_12  and  C_13
REMARK    6  A    between atoms: C_15  and  C_24
REMARK    7  A    between atoms: N_17  and  C_18
REMARK    8  A    between atoms: C_24  and  C_25
REMARK    9  A    between atoms: C_24  and  C_26
REMARK   10  A    between atoms: C_24  and  C_27
REMARK                            x       y       z     vdW  Elec       q    Type
REMARK                         _______ _______ _______ _____ _____    ______ ____
ROOT
ATOM      1  C   UNL     1       4.020  -0.950  -1.644  0.00  0.00    +0.236 C 
ATOM      2  O   UNL     1       3.975   0.180  -1.206  0.00  0.00    -0.274 OA
ATOM      3  N   UNL     1       5.097  -1.360  -2.343  0.00  0.00    -0.269 N 
ATOM      4  H   UNL     1       5.133  -2.264  -2.693  0.00  0.00    +0.156 HD
ENDROOT
BRANCH   3   5
ATOM      5  C   UNL     1       6.160  -0.484  -2.563  0.00  0.00    +0.129 A 
ATOM      6  C   UNL     1       6.246   0.803  -2.127  0.00  0.00    +0.069 A 
ATOM      7  C   UNL     1       7.469   1.321  -2.563  0.00  0.00    +0.071 A 
ATOM      8  N   UNL     1       8.099   0.391  -3.234  0.00  0.00    -0.169 NA
ATOM      9  N   UNL     1       7.303  -0.761  -3.247  0.00  0.00    -0.218 N 
BRANCH   9  10
ATOM     10  C   UNL     1       7.625  -1.981  -3.858  0.00  0.00    +0.067 A 
ATOM     11  C   UNL     1       7.218  -3.177  -3.281  0.00  0.00    +0.028 A 
ATOM     12  C   UNL     1       7.537  -4.377  -3.886  0.00  0.00    +0.002 A 
ATOM     13  C   UNL     1       8.260  -4.388  -5.065  0.00  0.00    +0.000 A 
ATOM     14  C   UNL     1       8.666  -3.199  -5.642  0.00  0.00    +0.002 A 
ATOM     15  C   UNL     1       8.346  -1.995  -5.045  0.00  0.00    +0.028 A 
ENDBRANCH   9  10
BRANCH   7  16
ATOM     16  C   UNL     1       7.976   2.717  -2.304  0.00  0.00    +0.006 C 
ATOM     17  C   UNL     1       8.440   2.829  -0.850  0.00  0.00    +0.017 C 
ATOM     18  C   UNL     1       9.150   3.015  -3.239  0.00  0.00    +0.017 C 
ATOM     19  C   UNL     1       6.852   3.723  -2.559  0.00  0.00    +0.017 C 
ENDBRANCH   7  16
ENDBRANCH   3   5
BRANCH   1  20
ATOM     20  C   UNL     1       2.871  -1.896  -1.406  0.00  0.00    +0.214 C 
BRANCH  20  25
ATOM     21  C   UNL     1      -0.019   1.526   0.010  0.00  0.00    +0.047 C 
ATOM     22  C   UNL     1       0.002  -0.004   0.002  0.00  0.00    +0.136 C 
ATOM     23  C   UNL     1       0.815  -0.520  -1.169  0.00  0.00    +0.251 C 
ATOM     24  O   UNL     1       0.595  -0.342  -2.348  0.00  0.00    -0.272 OA
ATOM     25  N   UNL     1       1.833  -1.217  -0.627  0.00  0.00    -0.215 N 
ATOM     26  C   UNL     1       1.777  -1.214   0.710  0.00  0.00    +0.310 C 
ATOM     27  O   UNL     1       2.586  -1.776   1.421  0.00  0.00    -0.252 OA
ATOM     28  N   UNL     1       0.724  -0.519   1.178  0.00  0.00    -0.281 N 
ATOM     29  H   UNL     1       0.487  -0.383   2.109  0.00  0.00    +0.152 HD
BRANCH  22  30
ATOM     30  C   UNL     1      -1.401  -0.551  -0.040  0.00  0.00    -0.009 A 
ATOM     31  C   UNL     1      -2.095  -0.795   1.131  0.00  0.00    +0.014 A 
ATOM     32  C   UNL     1      -3.355  -1.288   1.058  0.00  0.00    +0.045 A 
ATOM     33  S   UNL     1      -3.598  -1.422  -0.706  0.00  0.00    -0.105 S 
ATOM     34  C   UNL     1      -2.005  -0.807  -1.226  0.00  0.00    +0.051 A 
ENDBRANCH  22  30
ENDBRANCH  20  25
ENDBRANCH   1  20
TORSDOF 6
