REMARK  Name = ZINC12207423
REMARK  9 active torsions:
REMARK  status: ('A' for Active; 'I' for Inactive)
REMARK    1  A    between atoms: C_1  and  N_2
REMARK    2  A    between atoms: C_6  and  S_7
REMARK    3  A    between atoms: S_7  and  C_8
REMARK    4  A    between atoms: C_8  and  C_9
REMARK    5  A    between atoms: C_9  and  N_10
REMARK    6  A    between atoms: C_11  and  C_13
REMARK    7  A    between atoms: C_13  and  C_14
REMARK    8  A    between atoms: C_21  and  C_22
REMARK    9  A    between atoms: C_21  and  N_52
REMARK                            x       y       z     vdW  Elec       q    Type
REMARK                         _______ _______ _______ _____ _____    ______ ____
ROOT
ATOM      1  C   UNL     1       4.066   5.049  -1.520  0.00  0.00    +0.028 C 
ATOM      2  C   UNL     1       4.585   5.512  -2.853  0.00  0.00    +0.200 C 
ATOM      3  O   UNL     1       5.581   6.202  -2.880  0.00  0.00    -0.278 OA
ATOM      4  N   UNL     1       3.993   5.194  -4.009  0.00  0.00    -0.318 N 
ATOM      5  C   UNL     1       2.812   4.340  -4.088  0.00  0.00    +0.085 C 
ATOM      6  C   UNL     1       2.128   4.263  -2.721  0.00  0.00    -0.058 C 
ATOM      7  H   UNL     1       4.366   5.546  -4.832  0.00  0.00    +0.149 HD
ATOM      8  N   UNL     1       3.151   3.909  -1.717  0.00  0.00    +0.391 N 
ATOM      9  H   UNL     1       3.688   3.102  -2.056  0.00  0.00    -0.080 HD
ENDROOT
BRANCH   1  10
ATOM     10  C   UNL     1       5.240   4.600  -0.647  0.00  0.00    +0.089 C 
BRANCH  10  12
ATOM     11  N   UNL     1       6.948   2.811  -0.663  0.00  0.00    -0.315 N 
ATOM     12  C   UNL     1       5.915   3.413  -1.284  0.00  0.00    +0.212 C 
ATOM     13  O   UNL     1       5.528   2.999  -2.357  0.00  0.00    -0.276 OA
ATOM     14  H   UNL     1       7.257   3.142   0.195  0.00  0.00    +0.149 HD
BRANCH  11  15
ATOM     15  C   UNL     1       7.604   1.657  -1.282  0.00  0.00    +0.115 C 
BRANCH  15  16
ATOM     16  C   UNL     1       8.737   1.168  -0.377  0.00  0.00    +0.096 C 
BRANCH  16  17
ATOM     17  S   UNL     1       9.548  -0.258  -1.143  0.00  0.00    -0.086 S 
BRANCH  17  23
ATOM     18  C   UNL     1      11.839  -2.593  -1.054  0.00  0.00    +0.151 C 
ATOM     19  N   UNL     1      11.689  -1.609   0.021  0.00  0.00    -0.329 N 
ATOM     20  C   UNL     1      12.450  -1.523   1.164  0.00  0.00    +0.107 A 
ATOM     21  C   UNL     1      11.974  -0.486   1.875  0.00  0.00    +0.131 A 
ATOM     22  N   UNL     1      10.952   0.059   1.194  0.00  0.00    -0.230 NA
ATOM     23  C   UNL     1      10.772  -0.604   0.076  0.00  0.00    +0.169 A 
ENDBRANCH  17  23
ENDBRANCH  16  17
ENDBRANCH  15  16
ENDBRANCH  11  15
ENDBRANCH  10  12
ENDBRANCH   1  10
BRANCH   8  24
ATOM     24  C   UNL     1       2.503   3.552  -0.435  0.00  0.00    -0.040 C 
BRANCH  24  25
ATOM     25  C   UNL     1       1.488   2.465  -0.680  0.00  0.00    -0.045 A 
ATOM     26  C   UNL     1       0.145   2.781  -0.766  0.00  0.00    +0.006 A 
ATOM     27  C   UNL     1      -0.786   1.785  -0.991  0.00  0.00    +0.038 A 
ATOM     28  C   UNL     1      -0.374   0.471  -1.137  0.00  0.00    +0.125 A 
ATOM     29  C   UNL     1       0.971   0.154  -1.045  0.00  0.00    +0.058 A 
ATOM     30  C   UNL     1       1.902   1.152  -0.820  0.00  0.00    +0.045 A 
ATOM     31 CL   UNL     1       3.588   0.757  -0.711  0.00  0.00    -0.083 Cl
ATOM     32  F   UNL     1      -1.284  -0.502  -1.363  0.00  0.00    -0.205 F 
ENDBRANCH  24  25
ENDBRANCH   8  24
TORSDOF 8
