REMARK  Name = ZINC60168642
REMARK  4 active torsions:
REMARK  status: ('A' for Active; 'I' for Inactive)
REMARK    1  A    between atoms: C_3  and  C_6
REMARK    2  A    between atoms: C_7  and  C_8
REMARK    3  A    between atoms: C_14  and  S_21
REMARK    4  A    between atoms: S_21  and  N_24
REMARK                            x       y       z     vdW  Elec       q    Type
REMARK                         _______ _______ _______ _____ _____    ______ ____
ROOT
ATOM      1  C   UNL     1       5.711  -0.586  -0.056  0.00  0.00    +0.184 C 
ATOM      2  N   UNL     1       6.195  -1.299   1.124  0.00  0.00    -0.323 N 
ATOM      3  C   UNL     1       6.041  -2.671   1.306  0.00  0.00    +0.057 A 
ATOM      4  C   UNL     1       6.103  -3.188   2.599  0.00  0.00    +0.047 A 
ATOM      5  C   UNL     1       5.971  -4.545   2.811  0.00  0.00    +0.069 A 
ATOM      6  C   UNL     1       5.778  -5.402   1.741  0.00  0.00    +0.125 A 
ATOM      7  C   UNL     1       5.709  -4.895   0.457  0.00  0.00    +0.060 A 
ATOM      8  C   UNL     1       5.833  -3.538   0.242  0.00  0.00    +0.128 A 
ATOM      9  S   UNL     1       5.705  -2.891  -1.398  0.00  0.00    +0.062 S 
ATOM     10  O   UNL     1       6.689  -3.551  -2.182  0.00  0.00    -0.153 OA
ATOM     11  O   UNL     1       4.325  -2.890  -1.737  0.00  0.00    -0.153 OA
ATOM     12  N   UNL     1       6.178  -1.294  -1.265  0.00  0.00    -0.166 NA
ATOM     13 CL   UNL     1       6.048  -5.180   4.425  0.00  0.00    -0.081 Cl
ATOM     14  H   UNL     1       6.647  -0.790   1.815  0.00  0.00    +0.148 HD
ATOM     15  H   UNL     1       6.725  -0.859  -1.937  0.00  0.00    +0.150 HD
ENDROOT
BRANCH   6  16
ATOM     16  S   UNL     1       5.620  -7.136   2.016  0.00  0.00    +0.057 S 
ATOM     17  O   UNL     1       4.667  -7.297   3.057  0.00  0.00    -0.153 OA
ATOM     18  O   UNL     1       5.462  -7.737   0.738  0.00  0.00    -0.153 OA
BRANCH  16  19
ATOM     19  N   UNL     1       7.069  -7.670   2.614  0.00  0.00    -0.203 NA
ATOM     20  H   UNL     1       7.799  -7.046   2.746  0.00  0.00    +0.144 HD
ATOM     21  H   UNL     1       7.187  -8.608   2.832  0.00  0.00    +0.144 HD
ENDBRANCH  16  19
ENDBRANCH   6  16
BRANCH   1  23
ATOM     22  C   UNL     1       3.567   0.618  -0.029  0.00  0.00    +0.045 C 
ATOM     23  C   UNL     1       4.204  -0.549  -0.041  0.00  0.00    +0.016 C 
BRANCH  22  26
ATOM     24  C   UNL     1      -0.016   1.344   0.009  0.00  0.00    +0.042 A 
ATOM     25  C   UNL     1       1.324   1.775  -0.001  0.00  0.00    +0.049 A 
ATOM     26  C   UNL     1       2.097   0.654  -0.015  0.00  0.00    +0.127 A 
ATOM     27  O   UNL     1       1.280  -0.418  -0.012  0.00  0.00    -0.464 OA
ATOM     28  C   UNL     1       0.002  -0.004   0.002  0.00  0.00    +0.195 A 
ENDBRANCH  22  26
ENDBRANCH   1  23
TORSDOF 4
