REMARK  Name = ZINC20467303
REMARK  11 active torsions:
REMARK  status: ('A' for Active; 'I' for Inactive)
REMARK    1  A    between atoms: C_1  and  C_2
REMARK    2  A    between atoms: C_2  and  N_3
REMARK    3  A    between atoms: N_6  and  C_7
REMARK    4  A    between atoms: C_11  and  C_36
REMARK    5  A    between atoms: C_14  and  C_24
REMARK    6  A    between atoms: C_16  and  O_23
REMARK    7  A    between atoms: C_20  and  C_22
REMARK    8  A    between atoms: C_24  and  C_26
REMARK    9  A    between atoms: C_24  and  C_27
REMARK   10  A    between atoms: N_29  and  C_30
REMARK   11  A    between atoms: C_30  and  C_31
REMARK                            x       y       z     vdW  Elec       q    Type
REMARK                         _______ _______ _______ _____ _____    ______ ____
ROOT
ATOM      1  C   UNL     1       5.624   1.861   2.429  0.00  0.00    +0.078 C 
ATOM      2  C   UNL     1       6.370   1.186   1.276  0.00  0.00    +0.023 C 
ATOM      3  C   UNL     1       5.564   1.345  -0.015  0.00  0.00    +0.009 C 
ATOM      4  C   UNL     1       4.192   0.691   0.157  0.00  0.00    -0.027 C 
ATOM      5  C   UNL     1       3.386   0.849  -1.134  0.00  0.00    +0.007 C 
ATOM      6  C   UNL     1       2.014   0.195  -0.962  0.00  0.00    +0.007 C 
ATOM      7  C   UNL     1       1.268   0.869   0.191  0.00  0.00    +0.029 C 
ATOM      8  C   UNL     1       2.074   0.710   1.482  0.00  0.00    +0.122 C 
ATOM      9  C   UNL     1       3.446   1.365   1.310  0.00  0.00    +0.028 C 
ATOM     10  C   UNL     1       4.252   1.206   2.601  0.00  0.00    +0.012 C 
ATOM     11  C   UNL     1       3.506   1.880   3.754  0.00  0.00    +0.010 C 
ATOM     12  C   UNL     1       4.372  -0.797   0.466  0.00  0.00    +0.011 C 
ENDROOT
BRANCH   1  16
ATOM     13  N   UNL     1       8.088   2.445   5.095  0.00  0.00    -0.300 N 
ATOM     14  C   UNL     1       7.378   2.584   3.958  0.00  0.00    +0.300 C 
ATOM     15  O   UNL     1       7.623   3.501   3.197  0.00  0.00    -0.253 OA
ATOM     16  N   UNL     1       6.396   1.709   3.665  0.00  0.00    -0.296 N 
ATOM     17  H   UNL     1       7.866   1.616   5.784  0.00  0.00    +0.150 HD
ATOM     18  H   UNL     1       6.175   0.880   4.353  0.00  0.00    +0.151 HD
BRANCH  13  20
ATOM     19  C   UNL     1       9.797   3.014   6.749  0.00  0.00    +0.024 C 
ATOM     20  C   UNL     1       9.155   3.397   5.414  0.00  0.00    +0.102 C 
ENDBRANCH  13  20
ENDBRANCH   1  16
BRANCH   8  21
ATOM     21  O   UNL     1       1.377   1.340   2.559  0.00  0.00    -0.391 OA
ATOM     22  H   UNL     1       1.806   1.329   3.572  0.00  0.00    +0.210 HD
ENDBRANCH   8  21
BRANCH   7  23
ATOM     23  C   UNL     1      -0.104   0.214   0.363  0.00  0.00    +0.077 C 
ATOM     24  C   UNL     1       0.068  -1.297   0.527  0.00  0.00    +0.017 C 
BRANCH  23  25
ATOM     25  C   UNL     1      -0.950   0.494  -0.852  0.00  0.00    +0.217 C 
ATOM     26  O   UNL     1      -0.490   1.126  -1.779  0.00  0.00    -0.276 OA
ATOM     27  N   UNL     1      -2.219   0.043  -0.908  0.00  0.00    -0.308 N 
ATOM     28  H   UNL     1      -2.637  -0.530  -0.068  0.00  0.00    +0.149 HD
BRANCH  27  29
ATOM     29  C   UNL     1      -3.042   0.315  -2.090  0.00  0.00    +0.178 C 
BRANCH  29  30
ATOM     30  C   UNL     1      -4.407  -0.293  -1.902  0.00  0.00    +0.122 A 
ATOM     31  C   UNL     1      -5.470   0.316  -1.347  0.00  0.00    +0.046 A 
ATOM     32  C   UNL     1      -6.535  -0.614  -1.373  0.00  0.00    +0.041 A 
ATOM     33  C   UNL     1      -6.059  -1.735  -1.942  0.00  0.00    +0.195 A 
ATOM     34  O   UNL     1      -4.771  -1.534  -2.266  0.00  0.00    -0.466 OA
ENDBRANCH  29  30
ENDBRANCH  27  29
ENDBRANCH  23  25
ENDBRANCH   7  23
TORSDOF 7
