REMARK  Name = ZINC39464892
REMARK  6 active torsions:
REMARK  status: ('A' for Active; 'I' for Inactive)
REMARK    1  A    between atoms: C_1  and  S_2
REMARK    2  A    between atoms: S_2  and  C_3
REMARK    3  A    between atoms: C_8  and  C_9
REMARK    4  A    between atoms: C_14  and  O_15
REMARK    5  A    between atoms: P_23  and  S_26
REMARK    6  A    between atoms: S_26  and  C_27
REMARK                            x       y       z     vdW  Elec       q    Type
REMARK                         _______ _______ _______ _____ _____    ______ ____
ROOT
ATOM      1  C   UNL     1      -1.702  -0.454   0.016  0.00  0.00    +0.016 A 
ATOM      2  C   UNL     1      -2.681   0.527   0.025  0.00  0.00    +0.021 A 
ATOM      3  C   UNL     1      -4.024   0.180   0.036  0.00  0.00    -0.022 A 
ATOM      4  C   UNL     1      -4.391  -1.151   0.038  0.00  0.00    -0.041 A 
ATOM      5  C   UNL     1      -3.424  -2.141   0.029  0.00  0.00    +0.013 A 
ATOM      6  C   UNL     1      -2.074  -1.804   0.012  0.00  0.00    -0.001 A 
ATOM      7  C   UNL     1      -5.841  -1.566   0.047  0.00  0.00    +0.052 C 
ATOM      8  C   UNL     1      -6.708  -0.397   0.515  0.00  0.00    +0.108 C 
ATOM      9  N   UNL     1      -6.375   0.790  -0.288  0.00  0.00    -0.225 NA
ATOM     10  C   UNL     1      -5.043   1.291   0.046  0.00  0.00    +0.129 C 
ATOM     11  C   UNL     1      -4.602   2.380  -0.936  0.00  0.00    +0.195 C 
ATOM     12  O   UNL     1      -5.517   3.490  -0.836  0.00  0.00    -0.307 OA
ATOM     13  P   UNL     1      -7.112   3.183  -0.917  0.00  0.00    +0.341 P 
ATOM     14  O   UNL     1      -7.533   3.037  -2.328  0.00  0.00    -0.259 OA
ATOM     15  N   UNL     1      -7.334   1.761  -0.102  0.00  0.00    -0.170 NA
ATOM     16  H   UNL     1      -8.100   1.618   0.476  0.00  0.00    +0.152 HD
ENDROOT
BRANCH   6  17
ATOM     17  C   UNL     1      -1.039  -2.865  -0.005  0.00  0.00    +0.025 A 
ATOM     18  C   UNL     1      -0.922  -3.711  -1.105  0.00  0.00    +0.012 A 
ATOM     19  C   UNL     1       0.043  -4.697  -1.116  0.00  0.00    +0.001 A 
ATOM     20  C   UNL     1       0.897  -4.848  -0.038  0.00  0.00    +0.004 A 
ATOM     21  C   UNL     1       0.790  -4.014   1.059  0.00  0.00    +0.046 A 
ATOM     22  C   UNL     1      -0.171  -3.017   1.081  0.00  0.00    +0.125 A 
BRANCH  22  23
ATOM     23  O   UNL     1      -0.274  -2.192   2.156  0.00  0.00    -0.506 OA
ATOM     24  H   UNL     1      -0.872  -2.515   2.844  0.00  0.00    +0.292 HD
ENDBRANCH  22  23
ENDBRANCH   6  17
BRANCH   1  26
ATOM     25  C   UNL     1      -0.022   1.810   0.012  0.00  0.00    +0.090 C 
ATOM     26  S   UNL     1       0.002  -0.004   0.002  0.00  0.00    -0.128 S 
ENDBRANCH   1  26
BRANCH  13  27
ATOM     27  S   UNL     1      -8.205   4.743   0.015  0.00  0.00    -0.056 S 
ATOM     28  C   UNL     1      -7.754   6.222  -0.933  0.00  0.00    +0.096 C 
ENDBRANCH  13  27
TORSDOF 4
