REMARK  Name = ZINC38056890
REMARK  6 active torsions:
REMARK  status: ('A' for Active; 'I' for Inactive)
REMARK    1  A    between atoms: C_1  and  N_2
REMARK    2  A    between atoms: N_2  and  C_3
REMARK    3  A    between atoms: C_6  and  O_9
REMARK    4  A    between atoms: O_9  and  C_10
REMARK    5  A    between atoms: C_10  and  C_11
REMARK    6  A    between atoms: C_13  and  C_16
REMARK                            x       y       z     vdW  Elec       q    Type
REMARK                         _______ _______ _______ _____ _____    ______ ____
ROOT
ATOM      1  C   UNL     1       2.372  -4.141  -4.127  0.00  0.00    +0.327 C 
ENDROOT
BRANCH   1   2
ATOM      2  C   UNL     1       3.066  -4.701  -5.342  0.00  0.00    +0.265 A 
ATOM      3  N   UNL     1       4.334  -4.982  -5.431  0.00  0.00    -0.188 NA
ATOM      4  C   UNL     1       4.614  -5.465  -6.657  0.00  0.00    +0.209 A 
ATOM      5  N   UNL     1       3.506  -5.490  -7.359  0.00  0.00    -0.055 NA
ATOM      6  O   UNL     1       2.481  -4.997  -6.509  0.00  0.00    -0.334 OA
BRANCH   4   7
ATOM      7  C   UNL     1       5.946  -5.893  -7.131  0.00  0.00    +0.060 A 
ATOM      8  C   UNL     1       6.309  -6.385  -8.357  0.00  0.00    +0.019 A 
ATOM      9  C   UNL     1       7.626  -6.721  -8.573  0.00  0.00    +0.008 A 
ATOM     10  C   UNL     1       8.524  -6.556  -7.567  0.00  0.00    +0.046 A 
ATOM     11  S   UNL     1       7.504  -5.897  -6.259  0.00  0.00    -0.093 S 
ENDBRANCH   4   7
ENDBRANCH   1   2
BRANCH   1  12
ATOM     12  O   UNL     1       2.395  -2.713  -4.181  0.00  0.00    -0.483 OA
BRANCH  12  16
ATOM     13  C   UNL     1       0.607  -0.690  -1.057  0.00  0.00    +0.027 A 
ATOM     14  C   UNL     1       1.194   0.018  -2.098  0.00  0.00    +0.026 A 
ATOM     15  C   UNL     1       1.792  -0.660  -3.142  0.00  0.00    +0.047 A 
ATOM     16  C   UNL     1       1.806  -2.047  -3.152  0.00  0.00    +0.121 A 
ATOM     17  C   UNL     1       1.220  -2.754  -2.113  0.00  0.00    +0.047 A 
ATOM     18  C   UNL     1       0.626  -2.078  -1.065  0.00  0.00    +0.026 A 
BRANCH  13  20
ATOM     19  C   UNL     1      -0.018   1.461   0.010  0.00  0.00    +0.125 C 
ATOM     20  N   UNL     1       0.002  -0.004   0.002  0.00  0.00    -0.347 N 
ATOM     21  H   UNL     1      -0.404  -0.499   0.731  0.00  0.00    +0.146 HD
ENDBRANCH  13  20
ENDBRANCH  12  16
ENDBRANCH   1  12
TORSDOF 5
