REMARK  Name = ZINC43771768
REMARK  5 active torsions:
REMARK  status: ('A' for Active; 'I' for Inactive)
REMARK    1  A    between atoms: C_1  and  C_2
REMARK    2  A    between atoms: N_4  and  C1*_10
REMARK    3  A    between atoms: C3*_13  and  O3*_20
REMARK    4  A    between atoms: C4*_15  and  C5*_18
REMARK    5  A    between atoms: C5*_18  and  O5*_19
REMARK                            x       y       z     vdW  Elec       q    Type
REMARK                         _______ _______ _______ _____ _____    ______ ____
ROOT
ATOM      1  C   UNL     1      -0.018   1.503   0.010  0.00  0.00    +0.051 C 
ATOM      2  C   UNL     1       0.002  -0.004   0.002  0.00  0.00    +0.032 A 
ATOM      3  C   UNL     1      -1.151  -0.706   0.004  0.00  0.00    +0.100 A 
ATOM      4  N   UNL     1      -1.103  -2.070  -0.004  0.00  0.00    -0.293 N 
ATOM      5  C   UNL     1       0.093  -2.716  -0.013  0.00  0.00    +0.198 A 
ATOM      6  N   UNL     1       1.228  -2.049  -0.014  0.00  0.00    -0.177 NA
ATOM      7  C   UNL     1       1.233  -0.708  -0.013  0.00  0.00    +0.277 A 
ATOM      8  O   UNL     1       2.291  -0.097  -0.020  0.00  0.00    -0.265 OA
ATOM      9  N   UNL     1       0.117  -4.085  -0.019  0.00  0.00    -0.329 N 
ATOM     10  H   UNL     1      -0.714  -4.585  -0.018  0.00  0.00    +0.145 HD
ATOM     11  H   UNL     1       0.966  -4.555  -0.025  0.00  0.00    +0.145 HD
ENDROOT
BRANCH   4  12
ATOM     12  C1* UNL     1      -2.348  -2.843  -0.002  0.00  0.00    +0.224 C 
ATOM     13  C2* UNL     1      -2.470  -3.669  -1.302  0.00  0.00    +0.088 C 
ATOM     14  C3* UNL     1      -3.117  -4.995  -0.844  0.00  0.00    +0.150 C 
ATOM     15  C4* UNL     1      -3.310  -4.813   0.678  0.00  0.00    +0.175 C 
ATOM     16  O4* UNL     1      -2.331  -3.821   1.060  0.00  0.00    -0.348 OA
BRANCH  14  17
ATOM     17  O3* UNL     1      -2.247  -6.096  -1.113  0.00  0.00    -0.389 OA
ATOM     18  H3* UNL     1      -2.046  -6.218  -2.050  0.00  0.00    +0.210 HD
ENDBRANCH  14  17
BRANCH  15  19
ATOM     19  C5* UNL     1      -3.051  -6.131   1.409  0.00  0.00    +0.190 C 
BRANCH  19  20
ATOM     20  O5* UNL     1      -3.346  -5.972   2.798  0.00  0.00    -0.392 OA
ATOM     21  H5* UNL     1      -3.204  -6.770   3.325  0.00  0.00    +0.210 HD
ENDBRANCH  19  20
ENDBRANCH  15  19
ENDBRANCH   4  12
TORSDOF 4
