REMARK  Name = ZINC40372257
REMARK  5 active torsions:
REMARK  status: ('A' for Active; 'I' for Inactive)
REMARK    1  A    between atoms: C_1  and  C_2
REMARK    2  A    between atoms: C_5  and  C_7
REMARK    3  A    between atoms: N_9  and  C_10
REMARK    4  A    between atoms: C_10  and  C_16
REMARK    5  A    between atoms: N_17  and  O_18
REMARK                            x       y       z     vdW  Elec       q    Type
REMARK                         _______ _______ _______ _____ _____    ______ ____
ROOT
ATOM      1  C   UNL     1       2.512   0.366   4.413  0.00  0.00    +0.093 C 
ATOM      2  C   UNL     1       1.501   1.149   5.253  0.00  0.00    +0.033 C 
ATOM      3  C   UNL     1       0.445   0.190   5.805  0.00  0.00    +0.002 C 
ATOM      4  C   UNL     1       1.123  -0.868   6.678  0.00  0.00    +0.000 C 
ATOM      5  C   UNL     1       2.134  -1.651   5.839  0.00  0.00    +0.002 C 
ATOM      6  C   UNL     1       3.191  -0.692   5.286  0.00  0.00    +0.033 C 
ENDROOT
BRANCH   1   7
ATOM      7  C   UNL     1       3.553   1.311   3.869  0.00  0.00    +0.155 C 
ATOM      8  N   UNL     1       4.795   1.156   4.186  0.00  0.00    -0.075 NA
ATOM      9  N   UNL     1       3.179   2.339   3.033  0.00  0.00    -0.342 N 
ATOM     10  H   UNL     1       2.261   2.406   2.726  0.00  0.00    +0.144 HD
ATOM     11  H   UNL     1       3.833   2.997   2.750  0.00  0.00    +0.144 HD
BRANCH   8  12
ATOM     12  O   UNL     1       5.773   2.044   3.675  0.00  0.00    -0.408 OA
ATOM     13  H   UNL     1       6.673   1.848   3.968  0.00  0.00    +0.328 HD
ENDBRANCH   8  12
ENDBRANCH   1   7
BRANCH   1  16
ATOM     14  C   UNL     1       2.519  -1.008   2.400  0.00  0.00    +0.217 C 
ATOM     15  O   UNL     1       3.731  -1.037   2.458  0.00  0.00    -0.275 OA
ATOM     16  N   UNL     1       1.819  -0.290   3.301  0.00  0.00    -0.303 N 
ATOM     17  H   UNL     1       0.857  -0.208   3.213  0.00  0.00    +0.150 HD
BRANCH  14  21
ATOM     18  C   UNL     1       4.167  -2.526   0.508  0.00  0.00    +0.008 C 
ATOM     19  C   UNL     1       2.648  -2.570   0.330  0.00  0.00    -0.002 C 
ATOM     20  C   UNL     1       1.952  -1.283  -0.119  0.00  0.00    +0.017 C 
ATOM     21  C   UNL     1       1.797  -1.774   1.322  0.00  0.00    +0.078 C 
ENDBRANCH  14  21
ENDBRANCH   1  16
TORSDOF 4
