REMARK  Name = ZINC08468061
REMARK  9 active torsions:
REMARK  status: ('A' for Active; 'I' for Inactive)
REMARK    1  A    between atoms: C_1  and  C_2
REMARK    2  A    between atoms: C_5  and  C_7
REMARK    3  A    between atoms: C_10  and  C_11
REMARK    4  A    between atoms: C_10  and  O_20
REMARK    5  A    between atoms: N_25  and  C_26
REMARK    6  A    between atoms: C_26  and  C_27
REMARK    7  A    between atoms: C_27  and  N_51
REMARK    8  A    between atoms: C_28  and  N_51
REMARK    9  A    between atoms: C_29  and  N_51
REMARK                            x       y       z     vdW  Elec       q    Type
REMARK                         _______ _______ _______ _____ _____    ______ ____
ROOT
ATOM      1  C   UNL     1      -0.235   3.758  -1.643  0.00  0.00    +0.180 C 
ATOM      2  C   UNL     1       0.861   4.698  -2.092  0.00  0.00    +0.077 C 
ATOM      3  C   UNL     1       2.141   4.353  -2.493  0.00  0.00    +0.168 C 
ATOM      4  C   UNL     1       0.321   5.989  -2.020  0.00  0.00    +0.249 C 
ATOM      5  O   UNL     1       0.901   7.022  -2.302  0.00  0.00    -0.282 OA
ATOM      6  C   UNL     1      -1.082   5.880  -1.538  0.00  0.00    +0.288 C 
ATOM      7  O   UNL     1      -1.833   6.819  -1.365  0.00  0.00    -0.266 OA
ATOM      8  N   UNL     1      -1.397   4.592  -1.323  0.00  0.00    -0.282 N 
ENDROOT
BRANCH   3   9
ATOM      9  C   UNL     1       2.593   2.967  -2.381  0.00  0.00    +0.171 A 
ATOM     10  C   UNL     1       3.232   2.266  -3.360  0.00  0.00    +0.061 A 
ATOM     11  C   UNL     1       3.492   0.974  -2.837  0.00  0.00    +0.021 A 
ATOM     12  C   UNL     1       4.109  -0.172  -3.351  0.00  0.00    +0.011 A 
ATOM     13  C   UNL     1       4.202  -1.295  -2.580  0.00  0.00    +0.001 A 
ATOM     14  C   UNL     1       3.688  -1.309  -1.290  0.00  0.00    +0.004 A 
ATOM     15  C   UNL     1       3.076  -0.191  -0.764  0.00  0.00    +0.047 A 
ATOM     16  C   UNL     1       2.969   0.963  -1.530  0.00  0.00    +0.136 A 
ATOM     17  O   UNL     1       2.438   2.180  -1.294  0.00  0.00    -0.452 OA
ENDBRANCH   3   9
BRANCH   1  22
ATOM     18  C   UNL     1      -0.464  -0.456  -4.406  0.00  0.00    +0.086 C 
ATOM     19  C   UNL     1      -0.678   0.966  -3.955  0.00  0.00    +0.102 A 
ATOM     20  C   UNL     1      -1.397   1.899  -4.606  0.00  0.00    +0.045 A 
ATOM     21  C   UNL     1      -1.335   3.079  -3.829  0.00  0.00    +0.047 A 
ATOM     22  C   UNL     1      -0.578   2.799  -2.754  0.00  0.00    +0.130 A 
ATOM     23  O   UNL     1      -0.180   1.519  -2.836  0.00  0.00    -0.463 OA
ENDBRANCH   1  22
BRANCH   3  24
ATOM     24  O   UNL     1       2.971   5.297  -2.988  0.00  0.00    -0.503 OA
ATOM     25  H   UNL     1       3.848   4.878  -3.226  0.00  0.00    +0.292 HD
ENDBRANCH   3  24
BRANCH   8  26
ATOM     26  C   UNL     1      -2.692   4.100  -0.846  0.00  0.00    +0.091 C 
BRANCH  26  27
ATOM     27  C   UNL     1      -2.684   4.045   0.683  0.00  0.00    -0.060 C 
BRANCH  27  30
ATOM     28  C   UNL     1      -4.195   2.154   0.763  0.00  0.00    -0.097 C 
ATOM     29  C   UNL     1      -4.100   3.707   2.618  0.00  0.00    -0.097 C 
ATOM     30  N   UNL     1      -4.003   3.568   1.150  0.00  0.00    +0.377 N 
ATOM     31  H   UNL     1      -4.737   4.136   0.712  0.00  0.00    -0.083 HD
ENDBRANCH  27  30
ENDBRANCH  26  27
ENDBRANCH   8  26
TORSDOF 6
