REMARK  Name = ZINC00558950
REMARK  5 active torsions:
REMARK  status: ('A' for Active; 'I' for Inactive)
REMARK    1  A    between atoms: C_1  and  C_2
REMARK    2  A    between atoms: C_5  and  C_8
REMARK    3  A    between atoms: C_8  and  N_9
REMARK    4  A    between atoms: C_13  and  C_14
REMARK    5  A    between atoms: C_17  and  C_19
REMARK                            x       y       z     vdW  Elec       q    Type
REMARK                         _______ _______ _______ _____ _____    ______ ____
ROOT
ATOM      1  N   UNL     1      -1.076   1.976  -0.509  0.00  0.00    -0.216 N 
ATOM      2  C   UNL     1       0.022   1.200  -0.418  0.00  0.00    +0.269 C 
ATOM      3  O   UNL     1       0.064  -0.012  -0.531  0.00  0.00    -0.268 OA
ATOM      4  C   UNL     1       1.123   2.064  -0.169  0.00  0.00    +0.099 C 
ATOM      5  C   UNL     1       2.429   1.705  -0.013  0.00  0.00    +0.043 C 
ATOM      6  N   UNL     1       0.592   3.360  -0.119  0.00  0.00    -0.265 N 
ATOM      7  C   UNL     1      -0.735   3.263  -0.325  0.00  0.00    +0.313 C 
ATOM      8  O   UNL     1      -1.509   4.200  -0.346  0.00  0.00    -0.252 OA
ATOM      9  H   UNL     1       1.090   4.178   0.036  0.00  0.00    +0.157 HD
ENDROOT
BRANCH   5  10
ATOM     10  C   UNL     1       2.780   0.338   0.083  0.00  0.00    +0.014 A 
ATOM     11  C   UNL     1       3.930  -0.304  -0.364  0.00  0.00    +0.016 A 
ATOM     12  C   UNL     1       4.015  -1.656  -0.138  0.00  0.00    +0.011 A 
ATOM     13  C   UNL     1       2.994  -2.289   0.498  0.00  0.00    -0.013 A 
ATOM     14  S   UNL     1       1.867  -1.009   0.813  0.00  0.00    -0.094 S 
ATOM     15  C   UNL     1       2.872  -3.749   0.848  0.00  0.00    +0.051 C 
ENDBRANCH   5  10
BRANCH   1  16
ATOM     16  C   UNL     1      -2.434   1.491  -0.766  0.00  0.00    +0.153 C 
BRANCH  16  21
ATOM     17  C   UNL     1      -5.044   0.319   4.255  0.00  0.00    +0.044 C 
ATOM     18  C   UNL     1      -4.363   0.624   2.946  0.00  0.00    -0.050 A 
ATOM     19  C   UNL     1      -4.461   1.888   2.394  0.00  0.00    +0.003 A 
ATOM     20  C   UNL     1      -3.837   2.168   1.193  0.00  0.00    +0.005 A 
ATOM     21  C   UNL     1      -3.114   1.185   0.544  0.00  0.00    -0.030 A 
ATOM     22  C   UNL     1      -3.020  -0.080   1.093  0.00  0.00    +0.005 A 
ATOM     23  C   UNL     1      -3.640  -0.359   2.296  0.00  0.00    +0.003 A 
ENDBRANCH  16  21
ENDBRANCH   1  16
TORSDOF 3
