REMARK  Name = ZINC67259746
REMARK  6 active torsions:
REMARK  status: ('A' for Active; 'I' for Inactive)
REMARK    1  A    between atoms: C_1  and  C_2
REMARK    2  A    between atoms: C_4  and  N_11
REMARK    3  A    between atoms: C_7  and  N_8
REMARK    4  A    between atoms: N_8  and  C_9
REMARK    5  A    between atoms: N_8  and  C_10
REMARK    6  A    between atoms: C_18  and  C_21
REMARK                            x       y       z     vdW  Elec       q    Type
REMARK                         _______ _______ _______ _____ _____    ______ ____
ROOT
ATOM      1  N   UNL     1      -0.033  -2.777  -2.425  0.00  0.00    -0.269 N 
ATOM      2  C   UNL     1       0.148  -4.113  -2.434  0.00  0.00    +0.307 C 
ATOM      3  O   UNL     1       0.216  -4.724  -1.385  0.00  0.00    -0.252 OA
ATOM      4  N   UNL     1       0.253  -4.771  -3.605  0.00  0.00    -0.280 N 
ATOM      5  C   UNL     1       0.354  -4.040  -4.878  0.00  0.00    +0.137 C 
ATOM      6  C   UNL     1       1.552  -4.593  -5.659  0.00  0.00    +0.179 C 
ATOM      7  O   UNL     1       1.439  -6.015  -5.750  0.00  0.00    -0.369 OA
ATOM      8  C   UNL     1       1.471  -6.687  -4.489  0.00  0.00    +0.166 C 
ATOM      9  C   UNL     1       0.275  -6.242  -3.648  0.00  0.00    +0.145 C 
ATOM     10  H   UNL     1      -0.217  -2.307  -3.253  0.00  0.00    +0.156 HD
ENDROOT
BRANCH   8  11
ATOM     11  C   UNL     1       1.408  -8.176  -4.711  0.00  0.00    -0.016 A 
ATOM     12  C   UNL     1       0.659  -8.688  -5.754  0.00  0.00    +0.009 A 
ATOM     13  C   UNL     1       0.600 -10.053  -5.959  0.00  0.00    +0.040 A 
ATOM     14  C   UNL     1       1.291 -10.910  -5.119  0.00  0.00    +0.142 A 
ATOM     15  C   UNL     1       2.041 -10.396  -4.073  0.00  0.00    +0.076 A 
ATOM     16  C   UNL     1       2.103  -9.029  -3.874  0.00  0.00    +0.029 A 
ATOM     17 CL   UNL     1       2.909 -11.468  -3.018  0.00  0.00    -0.081 Cl
ATOM     18  F   UNL     1       1.234 -12.245  -5.318  0.00  0.00    -0.204 F 
ENDBRANCH   8  11
BRANCH   1  22
ATOM     19  C   UNL     1       0.723   1.466  -0.056  0.00  0.00    +0.046 C 
ATOM     20  C   UNL     1       0.411  -0.009  -0.043  0.00  0.00    -0.028 A 
ATOM     21  C   UNL     1       0.334  -0.709  -1.231  0.00  0.00    +0.028 A 
ATOM     22  C   UNL     1       0.047  -2.067  -1.219  0.00  0.00    +0.035 A 
ATOM     23  C   UNL     1      -0.162  -2.722  -0.013  0.00  0.00    +0.025 A 
ATOM     24  C   UNL     1      -0.085  -2.023   1.175  0.00  0.00    +0.025 A 
ATOM     25  C   UNL     1       0.208  -0.665   1.164  0.00  0.00    +0.032 A 
BRANCH  25  26
ATOM     26  N   UNL     1       0.292   0.043   2.368  0.00  0.00    -0.336 N 
ATOM     27  C   UNL     1       1.576   0.152   3.065  0.00  0.00    +0.129 C 
ATOM     28  C   UNL     1      -0.903   0.675   2.932  0.00  0.00    +0.129 C 
ENDBRANCH  25  26
ENDBRANCH   1  22
TORSDOF 3
