REMARK  Name = ZINC61697329
REMARK  6 active torsions:
REMARK  status: ('A' for Active; 'I' for Inactive)
REMARK    1  A    between atoms: C_1  and  C_2
REMARK    2  A    between atoms: C_2  and  C_4
REMARK    3  A    between atoms: C_2  and  O_22
REMARK    4  A    between atoms: C_7  and  O_11
REMARK    5  A    between atoms: O_11  and  C_12
REMARK    6  A    between atoms: C_17  and  N_18
REMARK                            x       y       z     vdW  Elec       q    Type
REMARK                         _______ _______ _______ _____ _____    ______ ____
ROOT
ATOM      1  C   UNL     1       0.768  -0.514   1.197  0.00  0.00    -0.018 A 
ATOM      2  C   UNL     1       0.085  -0.628   2.393  0.00  0.00    +0.010 A 
ATOM      3  C   UNL     1       0.737  -1.082   3.523  0.00  0.00    +0.048 A 
ATOM      4  C   UNL     1       2.080  -1.424   3.457  0.00  0.00    +0.147 A 
ATOM      5  C   UNL     1       2.764  -1.310   2.254  0.00  0.00    +0.083 A 
ATOM      6  C   UNL     1       2.105  -0.859   1.125  0.00  0.00    +0.029 A 
ATOM      7 CL   UNL     1       4.445  -1.736   2.166  0.00  0.00    -0.080 Cl
ENDROOT
BRANCH   1   9
ATOM      8  C   UNL     1       0.071   1.511  -0.053  0.00  0.00    +0.043 C 
ATOM      9  C   UNL     1       0.053  -0.019  -0.034  0.00  0.00    +0.141 C 
BRANCH   9  10
ATOM     10  O   UNL     1      -1.300  -0.479  -0.016  0.00  0.00    -0.387 OA
ATOM     11  H   UNL     1      -1.821  -0.197  -0.780  0.00  0.00    +0.210 HD
ENDBRANCH   9  10
ENDBRANCH   1   9
BRANCH   4  12
ATOM     12  O   UNL     1       2.724  -1.871   4.567  0.00  0.00    -0.452 OA
BRANCH  12  13
ATOM     13  C   UNL     1       3.478  -0.983   5.268  0.00  0.00    +0.159 A 
ATOM     14  C   UNL     1       3.477   0.359   4.915  0.00  0.00    +0.050 A 
ATOM     15  C   UNL     1       4.243   1.260   5.630  0.00  0.00    +0.024 A 
ATOM     16  C   UNL     1       5.010   0.825   6.696  0.00  0.00    +0.043 A 
ATOM     17  C   UNL     1       5.012  -0.513   7.049  0.00  0.00    +0.056 A 
ATOM     18  C   UNL     1       4.243  -1.416   6.341  0.00  0.00    +0.170 A 
ATOM     19 CL   UNL     1       5.972   1.959   7.592  0.00  0.00    -0.083 Cl
BRANCH  18  20
ATOM     20  N   UNL     1       4.241  -2.846   6.722  0.00  0.00    +0.060 N 
ATOM     21  O   UNL     1       4.908  -3.224   7.657  0.00  0.00    -0.126 OA
ATOM     22  O   UNL     1       3.572  -3.638   6.099  0.00  0.00    -0.126 OA
ENDBRANCH  18  20
ENDBRANCH  12  13
ENDBRANCH   4  12
TORSDOF 5
