REMARK  Name = ZINC32971114
REMARK  7 active torsions:
REMARK  status: ('A' for Active; 'I' for Inactive)
REMARK    1  A    between atoms: C_3  and  S_6
REMARK    2  A    between atoms: S_6  and  N_9
REMARK    3  A    between atoms: N_9  and  C_10
REMARK    4  A    between atoms: C_12  and  C_31
REMARK    5  A    between atoms: C_15  and  N_16
REMARK    6  A    between atoms: C_19  and  C_22
REMARK    7  A    between atoms: C_19  and  N_25
REMARK                            x       y       z     vdW  Elec       q    Type
REMARK                         _______ _______ _______ _____ _____    ______ ____
ROOT
ATOM      1  C   UNL     1       6.778  -0.324   5.438  0.00  0.00    +0.070 A 
ATOM      2  C   UNL     1       7.528  -0.978   6.396  0.00  0.00    +0.041 A 
ATOM      3  C   UNL     1       6.898  -1.827   7.312  0.00  0.00    +0.065 A 
ATOM      4  C   UNL     1       5.513  -2.010   7.255  0.00  0.00    +0.017 A 
ATOM      5  C   UNL     1       4.769  -1.351   6.302  0.00  0.00    +0.026 A 
ATOM      6  C   UNL     1       5.394  -0.511   5.386  0.00  0.00    +0.052 A 
ENDROOT
BRANCH   6   7
ATOM      7  N   UNL     1       4.638   0.149   4.420  0.00  0.00    -0.329 N 
ATOM      8  C   UNL     1       4.963  -0.339   3.074  0.00  0.00    +0.104 C 
ATOM      9  C   UNL     1       4.225   0.504   2.032  0.00  0.00    +0.016 C 
ATOM     10  C   UNL     1       2.717   0.407   2.279  0.00  0.00    +0.015 C 
ATOM     11  C   UNL     1       2.409   0.875   3.704  0.00  0.00    +0.016 C 
ATOM     12  C   UNL     1       3.202   0.021   4.698  0.00  0.00    +0.104 C 
BRANCH  10  13
ATOM     13  N   UNL     1       2.006   1.262   1.318  0.00  0.00    +0.389 N 
ATOM     14  C   UNL     1       0.552   1.122   1.466  0.00  0.00    -0.077 C 
ATOM     15  C   UNL     1      -0.152   1.910   0.359  0.00  0.00    -0.019 C 
ATOM     16  C   UNL     1       0.250   3.384   0.453  0.00  0.00    -0.004 C 
ATOM     17  C   UNL     1       1.773   3.497   0.345  0.00  0.00    -0.019 C 
ATOM     18  C   UNL     1       2.422   2.664   1.453  0.00  0.00    -0.077 C 
ATOM     19  H   UNL     1       2.274   0.928   0.305  0.00  0.00    -0.080 HD
ENDBRANCH  10  13
BRANCH  10  20
ATOM     20  C   UNL     1       2.270  -1.022   2.110  0.00  0.00    +0.200 C 
ATOM     21  O   UNL     1       2.107  -1.725   3.084  0.00  0.00    -0.278 OA
ATOM     22  N   UNL     1       2.051  -1.518   0.876  0.00  0.00    -0.330 N 
ATOM     23  H   UNL     1       1.724  -2.561   0.753  0.00  0.00    +0.145 HD
ATOM     24  H   UNL     1       2.199  -0.879  -0.007  0.00  0.00    +0.145 HD
ENDBRANCH  10  20
ENDBRANCH   6   7
BRANCH   3  25
ATOM     25  C   UNL     1       7.694  -2.528   8.336  0.00  0.00    +0.387 C 
ATOM     26  O   UNL     1       8.897  -2.368   8.385  0.00  0.00    -0.241 OA
ATOM     27  O   UNL     1       7.086  -3.345   9.219  0.00  0.00    -0.241 OA
ENDBRANCH   3  25
BRANCH   1  28
ATOM     28  N   UNL     1       7.404   0.526   4.518  0.00  0.00    -0.214 N 
ATOM     29  H   UNL     1       6.893   1.438   4.175  0.00  0.00    +0.174 HD
BRANCH  28  30
ATOM     30  S   UNL     1       8.915   0.159   3.946  0.00  0.00    +0.079 S 
ATOM     31  O   UNL     1       9.217   1.124   2.948  0.00  0.00    -0.149 OA
ATOM     32  O   UNL     1       9.741  -0.044   5.084  0.00  0.00    -0.149 OA
BRANCH  30  35
ATOM     33  C   UNL     1       8.479  -2.969   1.397  0.00  0.00    +0.010 A 
ATOM     34  C   UNL     1       8.519  -1.655   1.825  0.00  0.00    +0.036 A 
ATOM     35  C   UNL     1       8.797  -1.396   3.126  0.00  0.00    +0.146 A 
ATOM     36  S   UNL     1       9.022  -3.037   3.790  0.00  0.00    -0.077 S 
ATOM     37  C   UNL     1       8.721  -3.959   2.291  0.00  0.00    +0.047 A 
ENDBRANCH  30  35
ENDBRANCH  28  30
ENDBRANCH   1  28
TORSDOF 7
