REMARK  Name = ZINC61678081
REMARK  5 active torsions:
REMARK  status: ('A' for Active; 'I' for Inactive)
REMARK    1  A    between atoms: C_1  and  C_2
REMARK    2  A    between atoms: C_2  and  C_3
REMARK    3  A    between atoms: C_3  and  C_5
REMARK    4  A    between atoms: C_3  and  N_8
REMARK    5  A    between atoms: C_16  and  N_20
REMARK                            x       y       z     vdW  Elec       q    Type
REMARK                         _______ _______ _______ _____ _____    ______ ____
ROOT
ATOM      1  N   UNL     1       2.125  -0.091  -1.209  0.00  0.00    -0.257 N 
ATOM      2  C   UNL     1       2.756   0.647  -2.212  0.00  0.00    +0.056 A 
ATOM      3  C   UNL     1       4.085   0.874  -1.877  0.00  0.00    +0.001 A 
ATOM      4  C   UNL     1       4.912   1.584  -2.717  0.00  0.00    +0.007 A 
ATOM      5  C   UNL     1       4.421   2.082  -3.912  0.00  0.00    +0.002 A 
ATOM      6  C   UNL     1       3.100   1.864  -4.257  0.00  0.00    +0.017 A 
ATOM      7  C   UNL     1       2.268   1.152  -3.416  0.00  0.00    +0.040 A 
ATOM      8 BR   UNL     1       0.463   0.860  -3.900  0.00  0.00    -0.048 Br
ATOM      9  C   UNL     1       4.304   0.213  -0.536  0.00  0.00    +0.171 C 
ATOM     10  C   UNL     1       2.955  -0.382  -0.193  0.00  0.00    +0.242 C 
ATOM     11  O   UNL     1       2.676  -1.005   0.809  0.00  0.00    -0.273 OA
ENDROOT
BRANCH   9  12
ATOM     12  N   UNL     1       4.697   1.208   0.470  0.00  0.00    -0.316 NA
ATOM     13  H   UNL     1       4.846   0.774   1.369  0.00  0.00    +0.119 HD
ATOM     14  H   UNL     1       5.516   1.717   0.175  0.00  0.00    +0.119 HD
ENDBRANCH   9  12
BRANCH   1  15
ATOM     15  C   UNL     1       0.718  -0.497  -1.257  0.00  0.00    +0.167 C 
BRANCH  15  16
ATOM     16  C   UNL     1       0.632  -1.999  -1.351  0.00  0.00    +0.231 C 
ATOM     17  O   UNL     1       1.646  -2.664  -1.376  0.00  0.00    -0.274 OA
ATOM     18  N   UNL     1      -0.572  -2.603  -1.407  0.00  0.00    -0.328 N 
ATOM     19  H   UNL     1      -1.382  -2.071  -1.387  0.00  0.00    +0.145 HD
ATOM     20  H   UNL     1      -0.627  -3.569  -1.468  0.00  0.00    +0.145 HD
ENDBRANCH  15  16
BRANCH  15  22
ATOM     21  C   UNL     1      -0.014   1.505   0.046  0.00  0.00    +0.006 C 
ATOM     22  C   UNL     1       0.008  -0.025   0.013  0.00  0.00    +0.029 C 
ENDBRANCH  15  22
ENDBRANCH   1  15
TORSDOF 4
