REMARK  Name = ZINC39147128
REMARK  8 active torsions:
REMARK  status: ('A' for Active; 'I' for Inactive)
REMARK    1  A    between atoms: C_1  and  C_2
REMARK    2  A    between atoms: C_2  and  C_3
REMARK    3  A    between atoms: C_7  and  N_10
REMARK    4  A    between atoms: C_11  and  C_13
REMARK    5  A    between atoms: N_18  and  C_20
REMARK    6  A    between atoms: C_20  and  C_21
REMARK    7  A    between atoms: C_21  and  C_22
REMARK    8  A    between atoms: C_25  and  C_31
REMARK                            x       y       z     vdW  Elec       q    Type
REMARK                         _______ _______ _______ _____ _____    ______ ____
ROOT
ATOM      1  C   UNL     1      -4.080  -2.734  -5.191  0.00  0.00    +0.101 C 
ATOM      2  C   UNL     1      -2.692  -2.602  -5.861  0.00  0.00    +0.110 C 
ATOM      3  C   UNL     1      -3.004  -2.468  -7.335  0.00  0.00    +0.216 C 
ATOM      4  O   UNL     1      -2.201  -2.621  -8.231  0.00  0.00    -0.276 OA
ATOM      5  N   UNL     1      -4.300  -2.156  -7.508  0.00  0.00    -0.300 N 
ATOM      6  C   UNL     1      -4.995  -2.036  -6.221  0.00  0.00    +0.121 C 
ENDROOT
BRANCH   1   8
ATOM      7  N   UNL     1      -3.326  -2.434  -2.854  0.00  0.00    -0.290 N 
ATOM      8  C   UNL     1      -4.110  -2.014  -3.867  0.00  0.00    +0.220 C 
ATOM      9  O   UNL     1      -4.840  -1.058  -3.713  0.00  0.00    -0.275 OA
ATOM     10  H   UNL     1      -2.743  -3.199  -2.977  0.00  0.00    +0.151 HD
BRANCH   7  14
ATOM     11  C   UNL     1      -1.433  -0.534   0.013  0.00  0.00    +0.129 C 
ATOM     12  N   UNL     1      -1.468  -2.029   0.013  0.00  0.00    -0.241 NA
ATOM     13  N   UNL     1      -2.715  -2.549  -0.507  0.00  0.00    -0.227 NA
ATOM     14  C   UNL     1      -3.356  -1.735  -1.567  0.00  0.00    +0.216 C 
ATOM     15  S   UNL     1      -2.280  -0.236  -1.604  0.00  0.00    -0.102 S 
ATOM     16  H   UNL     1      -1.280  -2.394   0.935  0.00  0.00    +0.142 HD
ATOM     17  H   UNL     1      -3.364  -2.746   0.240  0.00  0.00    +0.143 HD
BRANCH  11  19
ATOM     18  C   UNL     1      -0.019   1.526   0.010  0.00  0.00    +0.006 C 
ATOM     19  C   UNL     1       0.002  -0.004   0.002  0.00  0.00    +0.027 C 
ENDBRANCH  11  19
ENDBRANCH   7  14
ENDBRANCH   1   8
BRANCH   5  20
ATOM     20  C   UNL     1      -4.936  -1.962  -8.813  0.00  0.00    +0.112 C 
BRANCH  20  21
ATOM     21  C   UNL     1      -5.490  -3.298  -9.314  0.00  0.00    +0.056 C 
BRANCH  21  22
ATOM     22  C   UNL     1      -6.146  -3.098 -10.656  0.00  0.00    -0.021 A 
ATOM     23  C   UNL     1      -5.479  -3.107 -11.961  0.00  0.00    +0.003 A 
ATOM     24  C   UNL     1      -4.158  -3.283 -12.374  0.00  0.00    +0.013 A 
ATOM     25  C   UNL     1      -3.851  -3.234 -13.705  0.00  0.00    -0.050 A 
ATOM     26  C   UNL     1      -4.843  -3.010 -14.649  0.00  0.00    +0.005 A 
ATOM     27  C   UNL     1      -6.154  -2.834 -14.263  0.00  0.00    +0.026 A 
ATOM     28  C   UNL     1      -6.489  -2.880 -12.914  0.00  0.00    +0.047 A 
ATOM     29  N   UNL     1      -7.674  -2.745 -12.226  0.00  0.00    -0.360 N 
ATOM     30  C   UNL     1      -7.451  -2.884 -10.883  0.00  0.00    +0.087 A 
ATOM     31  C   UNL     1      -2.424  -3.424 -14.151  0.00  0.00    +0.044 C 
ATOM     32  H   UNL     1      -8.539  -2.581 -12.633  0.00  0.00    +0.165 HD
ENDBRANCH  21  22
ENDBRANCH  20  21
ENDBRANCH   5  20
TORSDOF 6
