REMARK  Name = ZINC63279972
REMARK  9 active torsions:
REMARK  status: ('A' for Active; 'I' for Inactive)
REMARK    1  A    between atoms: C_1  and  C_2
REMARK    2  A    between atoms: C_2  and  C_3
REMARK    3  A    between atoms: C_3  and  C_5
REMARK    4  A    between atoms: C_3  and  C_6
REMARK    5  A    between atoms: C_6  and  C_8
REMARK    6  A    between atoms: C_6  and  N_17
REMARK    7  A    between atoms: N_10  and  C_11
REMARK    8  A    between atoms: C_11  and  C_12
REMARK    9  A    between atoms: C_26  and  C_28
REMARK                            x       y       z     vdW  Elec       q    Type
REMARK                         _______ _______ _______ _____ _____    ______ ____
ROOT
ATOM      1  N   UNL     1       3.319  -0.946   1.932  0.00  0.00    -0.288 N 
ATOM      2  C   UNL     1       3.631  -2.212   1.593  0.00  0.00    +0.303 C 
ATOM      3  O   UNL     1       3.167  -2.704   0.583  0.00  0.00    -0.253 OA
ATOM      4  N   UNL     1       4.459  -2.934   2.375  0.00  0.00    -0.283 N 
ATOM      5  C   UNL     1       4.908  -4.269   1.955  0.00  0.00    +0.128 C 
ATOM      6  C   UNL     1       6.442  -4.296   1.967  0.00  0.00    +0.127 C 
ATOM      7  N   UNL     1       6.911  -3.763   3.253  0.00  0.00    -0.297 N 
ATOM      8  C   UNL     1       6.462  -2.428   3.673  0.00  0.00    +0.127 C 
ATOM      9  C   UNL     1       4.933  -2.398   3.658  0.00  0.00    +0.128 C 
ATOM     10  C   UNL     1       7.739  -4.485   4.035  0.00  0.00    +0.242 C 
ATOM     11  O   UNL     1       8.102  -5.585   3.678  0.00  0.00    -0.273 OA
ATOM     12  H   UNL     1       3.747  -0.529   2.696  0.00  0.00    +0.151 HD
ENDROOT
BRANCH  10  13
ATOM     13  C   UNL     1       8.211  -3.924   5.351  0.00  0.00    +0.190 C 
ATOM     14  C   UNL     1       9.022  -2.668   5.122  0.00  0.00    +0.016 C 
ATOM     15  C   UNL     1      10.255  -2.922   5.614  0.00  0.00    -0.004 A 
ATOM     16  C   UNL     1      11.480  -2.118   5.692  0.00  0.00    +0.010 A 
ATOM     17  C   UNL     1      12.586  -2.658   6.254  0.00  0.00    +0.001 A 
ATOM     18  C   UNL     1      12.591  -3.964   6.763  0.00  0.00    +0.002 A 
ATOM     19  C   UNL     1      11.504  -4.765   6.727  0.00  0.00    +0.026 A 
ATOM     20  C   UNL     1      10.287  -4.299   6.158  0.00  0.00    +0.043 A 
ATOM     21  N   UNL     1       9.116  -4.874   6.009  0.00  0.00    -0.370 N 
ATOM     22  H   UNL     1       8.887  -5.775   6.286  0.00  0.00    +0.161 HD
ENDBRANCH  10  13
BRANCH   1  23
ATOM     23  C   UNL     1       2.333  -0.199   1.146  0.00  0.00    +0.163 C 
BRANCH  23  24
ATOM     24  C   UNL     1       2.589   1.278   1.293  0.00  0.00    +0.234 C 
ATOM     25  O   UNL     1       3.233   1.692   2.234  0.00  0.00    -0.274 OA
ATOM     26  N   UNL     1       2.102   2.141   0.379  0.00  0.00    -0.307 N 
ATOM     27  H   UNL     1       1.527   1.819  -0.333  0.00  0.00    +0.149 HD
BRANCH  26  28
ATOM     28  C   UNL     1       2.442   3.563   0.459  0.00  0.00    +0.178 C 
BRANCH  28  29
ATOM     29  C   UNL     1       1.776   4.304  -0.672  0.00  0.00    +0.122 A 
ATOM     30  C   UNL     1       0.556   4.869  -0.631  0.00  0.00    +0.046 A 
ATOM     31  C   UNL     1       0.332   5.451  -1.900  0.00  0.00    +0.041 A 
ATOM     32  C   UNL     1       1.429   5.207  -2.640  0.00  0.00    +0.195 A 
ATOM     33  O   UNL     1       2.303   4.517  -1.889  0.00  0.00    -0.466 OA
ENDBRANCH  28  29
ENDBRANCH  26  28
ENDBRANCH  23  24
BRANCH  23  34
ATOM     34  C   UNL     1       0.926  -0.526   1.651  0.00  0.00    +0.015 C 
ATOM     35  C   UNL     1       0.855  -0.279   3.159  0.00  0.00    +0.010 C 
BRANCH  34  37
ATOM     36  C   UNL     1       0.528  -2.207  -0.154  0.00  0.00    +0.004 C 
ATOM     37  C   UNL     1       0.608  -1.994   1.359  0.00  0.00    +0.002 C 
ENDBRANCH  34  37
ENDBRANCH  23  34
ENDBRANCH   1  23
TORSDOF 7
