REMARK  Name = ZINC06337251
REMARK  7 active torsions:
REMARK  status: ('A' for Active; 'I' for Inactive)
REMARK    1  A    between atoms: C_4  and  C_7
REMARK    2  A    between atoms: C_7  and  C_20
REMARK    3  A    between atoms: N_8  and  N_9
REMARK    4  A    between atoms: C_10  and  C_12
REMARK    5  A    between atoms: C_17  and  O_18
REMARK    6  A    between atoms: C_20  and  C_21
REMARK    7  A    between atoms: C_21  and  C_22
REMARK                            x       y       z     vdW  Elec       q    Type
REMARK                         _______ _______ _______ _____ _____    ______ ____
ROOT
ATOM      1  C   UNL     1      -2.519   0.975   0.230  0.00  0.00    +0.067 C 
ATOM      2  N   UNL     1      -2.491  -0.283  -0.085  0.00  0.00    -0.184 NA
ENDROOT
BRANCH   1   6
ATOM      3  C   UNL     1       0.986   2.873   1.688  0.00  0.00    +0.000 A 
ATOM      4  C   UNL     1       0.725   1.557   2.025  0.00  0.00    +0.001 A 
ATOM      5  C   UNL     1      -0.414   0.935   1.558  0.00  0.00    +0.010 A 
ATOM      6  C   UNL     1      -1.302   1.635   0.738  0.00  0.00    -0.002 A 
ATOM      7  C   UNL     1      -1.034   2.966   0.406  0.00  0.00    +0.010 A 
ATOM      8  C   UNL     1       0.108   3.575   0.881  0.00  0.00    +0.001 A 
ENDBRANCH   1   6
BRANCH   2   9
ATOM      9  N   UNL     1      -1.274  -0.977  -0.094  0.00  0.00    -0.203 N 
ATOM     10  C   UNL     1      -1.258  -2.308  -0.304  0.00  0.00    +0.267 C 
ATOM     11  O   UNL     1      -2.300  -2.908  -0.484  0.00  0.00    -0.268 OA
ATOM     12  H   UNL     1      -0.442  -0.498   0.050  0.00  0.00    +0.178 HD
BRANCH  10  13
ATOM     13  C   UNL     1       0.024  -3.037  -0.314  0.00  0.00    +0.081 A 
ATOM     14  C   UNL     1       1.225  -2.351  -0.113  0.00  0.00    +0.036 A 
ATOM     15  C   UNL     1       2.419  -3.040  -0.119  0.00  0.00    +0.042 A 
ATOM     16  C   UNL     1       2.435  -4.410  -0.335  0.00  0.00    +0.023 A 
ATOM     17  C   UNL     1       1.256  -5.098  -0.540  0.00  0.00    +0.047 A 
ATOM     18  C   UNL     1       0.045  -4.422  -0.532  0.00  0.00    +0.129 A 
ATOM     19 CL   UNL     1       3.910  -2.188   0.137  0.00  0.00    -0.084 Cl
BRANCH  18  20
ATOM     20  O   UNL     1      -1.114  -5.097  -0.733  0.00  0.00    -0.506 OA
ATOM     21  H   UNL     1      -1.379  -5.156  -1.661  0.00  0.00    +0.292 HD
ENDBRANCH  18  20
ENDBRANCH  10  13
ENDBRANCH   2   9
BRANCH   1  22
ATOM     22  C   UNL     1      -3.795   1.763   0.075  0.00  0.00    +0.069 C 
BRANCH  22  23
ATOM     23  C   UNL     1      -4.284   2.215   1.453  0.00  0.00    +0.131 C 
BRANCH  23  24
ATOM     24  C   UNL     1      -5.560   3.002   1.298  0.00  0.00    +0.356 C 
ATOM     25  O   UNL     1      -6.029   3.183   0.200  0.00  0.00    -0.246 OA
ATOM     26  O   UNL     1      -6.175   3.503   2.381  0.00  0.00    -0.246 OA
ENDBRANCH  23  24
ENDBRANCH  22  23
ENDBRANCH   1  22
TORSDOF 7
