REMARK  Name = ZINC53460953
REMARK  5 active torsions:
REMARK  status: ('A' for Active; 'I' for Inactive)
REMARK    1  A    between atoms: C_13  and  C_15
REMARK    2  A    between atoms: C_15  and  C_16
REMARK    3  A    between atoms: C_16  and  C_17
REMARK    4  A    between atoms: C_17  and  C_18
REMARK    5  A    between atoms: C_18  and  C_19
REMARK                            x       y       z     vdW  Elec       q    Type
REMARK                         _______ _______ _______ _____ _____    ______ ____
ROOT
ATOM      1  C   UNL     1       2.370   1.437   0.014  0.00  0.00    +0.005 A 
ATOM      2  C   UNL     1       1.127   2.057   0.003  0.00  0.00    +0.018 A 
ATOM      3  C   UNL     1      -0.015   1.282  -0.017  0.00  0.00    +0.084 A 
ATOM      4  N   UNL     1       0.061  -0.036  -0.024  0.00  0.00    -0.350 N 
ATOM      5  C   UNL     1       1.227  -0.664  -0.014  0.00  0.00    +0.099 A 
ATOM      6  C   UNL     1       2.418   0.054   0.005  0.00  0.00    +0.042 A 
ATOM      7  N   UNL     1       1.260  -2.054  -0.022  0.00  0.00    -0.314 N 
ATOM      8  C   UNL     1       2.538  -2.770  -0.142  0.00  0.00    +0.125 C 
ATOM      9  C   UNL     1       2.671  -3.737   1.041  0.00  0.00    +0.126 C 
ATOM     10  N   UNL     1       1.430  -4.516   1.153  0.00  0.00    -0.298 N 
ATOM     11  C   UNL     1       0.152  -3.799   1.273  0.00  0.00    +0.126 C 
ATOM     12  C   UNL     1       0.020  -2.833   0.096  0.00  0.00    +0.125 C 
ATOM     13  C   UNL     1       1.462  -5.863   1.145  0.00  0.00    +0.216 C 
ATOM     14  O   UNL     1       2.522  -6.443   1.045  0.00  0.00    -0.276 OA
ATOM     15  H   UNL     1      -0.757  -0.557  -0.038  0.00  0.00    +0.166 HD
ENDROOT
BRANCH  13  16
ATOM     16  C   UNL     1       0.181  -6.649   1.261  0.00  0.00    +0.096 C 
BRANCH  16  17
ATOM     17  C   UNL     1       0.496  -8.145   1.226  0.00  0.00    +0.009 C 
BRANCH  17  18
ATOM     18  C   UNL     1      -0.804  -8.943   1.343  0.00  0.00    +0.002 C 
BRANCH  18  19
ATOM     19  C   UNL     1      -0.490 -10.440   1.309  0.00  0.00    +0.016 C 
BRANCH  19  20
ATOM     20  C   UNL     1      -1.790 -11.237   1.426  0.00  0.00    +0.069 C 
ATOM     21  C   UNL     1      -1.518 -12.755   1.352  0.00  0.00    +0.108 C 
ATOM     22  C   UNL     1      -2.378 -13.582   2.312  0.00  0.00    +0.105 C 
ATOM     23  C   UNL     1      -3.353 -12.734   3.158  0.00  0.00    +0.093 C 
ATOM     24  S   UNL     1      -2.515 -11.078   3.115  0.00  0.00    -0.154 S 
ATOM     25  N   UNL     1      -3.160 -14.459   1.427  0.00  0.00    -0.294 N 
ATOM     26  C   UNL     1      -2.827 -14.204   0.154  0.00  0.00    +0.300 C 
ATOM     27  O   UNL     1      -3.323 -14.787  -0.791  0.00  0.00    -0.253 OA
ATOM     28  N   UNL     1      -1.909 -13.249   0.021  0.00  0.00    -0.294 N 
ATOM     29  H   UNL     1      -3.811 -15.117   1.718  0.00  0.00    +0.151 HD
ATOM     30  H   UNL     1      -1.552 -12.932  -0.824  0.00  0.00    +0.151 HD
ENDBRANCH  19  20
ENDBRANCH  18  19
ENDBRANCH  17  18
ENDBRANCH  16  17
ENDBRANCH  13  16
TORSDOF 5
