REMARK  Name = ZINC25876492
REMARK  10 active torsions:
REMARK  status: ('A' for Active; 'I' for Inactive)
REMARK    1  A    between atoms: C_1  and  C_2
REMARK    2  A    between atoms: C_2  and  C_24
REMARK    3  A    between atoms: C_4  and  N_10
REMARK    4  A    between atoms: C_6  and  C_8
REMARK    5  A    between atoms: C_6  and  C_9
REMARK    6  A    between atoms: C_11  and  C_13
REMARK    7  A    between atoms: C_15  and  S_19
REMARK    8  A    between atoms: N_17  and  C_18
REMARK    9  A    between atoms: S_19  and  N_22
REMARK   10  A    between atoms: N_22  and  C_23
REMARK                            x       y       z     vdW  Elec       q    Type
REMARK                         _______ _______ _______ _____ _____    ______ ____
ROOT
ATOM      1  N   UNL     1       6.938  -0.499  -0.331  0.00  0.00    -0.307 N 
ATOM      2  C   UNL     1       5.755  -1.073  -0.035  0.00  0.00    +0.261 C 
ATOM      3  O   UNL     1       5.709  -1.997   0.757  0.00  0.00    -0.269 OA
ATOM      4  H   UNL     1       6.971   0.388  -0.981  0.00  0.00    +0.149 HD
ENDROOT
BRANCH   1   8
ATOM      5  C   UNL     1      10.728  -2.739  -0.402  0.00  0.00    -0.010 C 
ATOM      6  C   UNL     1      10.658  -1.228  -0.148  0.00  0.00    -0.072 C 
ATOM      7  C   UNL     1       9.347  -0.678  -0.702  0.00  0.00    +0.009 C 
ATOM      8  C   UNL     1       8.182  -1.057   0.213  0.00  0.00    +0.071 C 
ATOM      9  C   UNL     1       8.438  -0.462   1.597  0.00  0.00    +0.009 C 
ATOM     10  C   UNL     1       9.740  -1.007   2.179  0.00  0.00    -0.072 C 
ATOM     11  N   UNL     1      10.851  -0.924   1.254  0.00  0.00    +0.386 N 
ATOM     12  C   UNL     1       9.523  -2.448   2.656  0.00  0.00    -0.010 C 
ATOM     13  C   UNL     1      10.084  -0.160   3.424  0.00  0.00    -0.010 C 
ATOM     14  C   UNL     1      11.810  -0.577  -0.946  0.00  0.00    -0.010 C 
ATOM     15  H   UNL     1      11.598  -1.611   1.679  0.00  0.00    -0.084 HD
ATOM     16  H   UNL     1      11.204   0.112   1.360  0.00  0.00    -0.084 HD
ENDBRANCH   1   8
BRANCH   2  17
ATOM     17  C   UNL     1       4.524  -0.586  -0.666  0.00  0.00    +0.106 A 
ATOM     18  C   UNL     1       4.412   0.514  -1.490  0.00  0.00    +0.061 A 
ATOM     19  C   UNL     1       3.067   0.611  -1.863  0.00  0.00    +0.123 A 
ATOM     20  C   UNL     1       2.397  -0.406  -1.270  0.00  0.00    +0.114 A 
ATOM     21  N   UNL     1       3.272  -1.143  -0.544  0.00  0.00    -0.344 N 
ATOM     22  C   UNL     1       2.939  -2.333   0.244  0.00  0.00    +0.149 C 
BRANCH  19  23
ATOM     23  S   UNL     1       2.369   1.841  -2.913  0.00  0.00    +0.060 S 
ATOM     24  O   UNL     1       3.230   2.970  -2.845  0.00  0.00    -0.153 OA
ATOM     25  O   UNL     1       0.988   1.917  -2.588  0.00  0.00    -0.153 OA
BRANCH  23  26
ATOM     26  N   UNL     1       2.459   1.270  -4.465  0.00  0.00    -0.193 NA
ATOM     27  C   UNL     1       1.695   0.082  -4.853  0.00  0.00    +0.127 C 
ATOM     28  H   UNL     1       3.215   1.685  -5.148  0.00  0.00    +0.148 HD
ENDBRANCH  23  26
ENDBRANCH  19  23
ENDBRANCH   2  17
TORSDOF 4
