REMARK  Name = ZINC40314926
REMARK  6 active torsions:
REMARK  status: ('A' for Active; 'I' for Inactive)
REMARK    1  A    between atoms: C_1  and  C_2
REMARK    2  A    between atoms: C_2  and  N_3
REMARK    3  A    between atoms: N_3  and  C_4
REMARK    4  A    between atoms: C_12  and  C_14
REMARK    5  A    between atoms: C_16  and  N_20
REMARK    6  A    between atoms: N_18  and  C_19
REMARK                            x       y       z     vdW  Elec       q    Type
REMARK                         _______ _______ _______ _____ _____    ______ ____
ROOT
ATOM      1  N   UNL     1      -1.241  -0.850   0.192  0.00  0.00    -0.292 N 
ATOM      2  C   UNL     1      -1.893  -0.720   1.365  0.00  0.00    +0.263 C 
ATOM      3  O   UNL     1      -3.072  -1.009   1.440  0.00  0.00    -0.268 OA
ENDROOT
BRANCH   1   4
ATOM      4  C   UNL     1      -1.967  -1.279  -1.006  0.00  0.00    +0.099 C 
ATOM      5  C   UNL     1      -2.587  -2.663  -0.758  0.00  0.00    +0.046 C 
ATOM      6  C   UNL     1      -3.598  -2.953  -1.905  0.00  0.00    +0.168 C 
ATOM      7  S   UNL     1      -4.389  -1.299  -2.083  0.00  0.00    -0.029 S 
ATOM      8  O   UNL     1      -5.549  -1.250  -1.264  0.00  0.00    -0.174 OA
ATOM      9  O   UNL     1      -4.495  -0.984  -3.465  0.00  0.00    -0.174 OA
ATOM     10  C   UNL     1      -3.080  -0.253  -1.327  0.00  0.00    +0.188 C 
ENDBRANCH   1   4
BRANCH   2  11
ATOM     11  C   UNL     1      -1.181  -0.229   2.549  0.00  0.00    +0.106 A 
ATOM     12  C   UNL     1       0.101   0.281   2.576  0.00  0.00    +0.055 A 
ATOM     13  C   UNL     1       0.380   0.627   3.905  0.00  0.00    +0.043 A 
ATOM     14  C   UNL     1      -0.716   0.328   4.650  0.00  0.00    +0.108 A 
ATOM     15  N   UNL     1      -1.673  -0.189   3.833  0.00  0.00    -0.344 N 
ATOM     16  C   UNL     1      -3.005  -0.632   4.252  0.00  0.00    +0.149 C 
BRANCH  13  17
ATOM     17  N   UNL     1       1.580   1.186   4.382  0.00  0.00    -0.357 N 
ATOM     18  H   UNL     1       2.310   1.364   3.768  0.00  0.00    +0.142 HD
ATOM     19  H   UNL     1       1.678   1.392   5.325  0.00  0.00    +0.142 HD
ENDBRANCH  13  17
ENDBRANCH   2  11
BRANCH   1  21
ATOM     20  C   UNL     1       0.403   0.943  -0.066  0.00  0.00    +0.024 C 
ATOM     21  C   UNL     1       0.194  -0.562   0.116  0.00  0.00    +0.105 C 
ENDBRANCH   1  21
TORSDOF 4
