REMARK  Name = ZINC40426559
REMARK  7 active torsions:
REMARK  status: ('A' for Active; 'I' for Inactive)
REMARK    1  A    between atoms: C_1  and  C_2
REMARK    2  A    between atoms: C_2  and  C_4
REMARK    3  A    between atoms: C_2  and  N_14
REMARK    4  A    between atoms: N_6  and  C_7
REMARK    5  A    between atoms: C_7  and  C_8
REMARK    6  A    between atoms: C_20  and  C_27
REMARK    7  A    between atoms: N_25  and  C_26
REMARK                            x       y       z     vdW  Elec       q    Type
REMARK                         _______ _______ _______ _____ _____    ______ ____
ROOT
ATOM      1  N   UNL     1       0.711  -0.489   1.189  0.00  0.00    -0.281 N 
ATOM      2  C   UNL     1       0.159  -1.356   2.240  0.00  0.00    +0.160 C 
ATOM      3  C   UNL     1       1.295  -1.553   3.219  0.00  0.00    +0.042 C 
ATOM      4  C   UNL     1       2.342  -0.857   2.729  0.00  0.00    +0.058 C 
ATOM      5  C   UNL     1       1.989  -0.230   1.517  0.00  0.00    +0.247 C 
ATOM      6  O   UNL     1       2.743   0.460   0.855  0.00  0.00    -0.270 OA
ATOM      7  C   UNL     1       3.634  -0.878   3.521  0.00  0.00    +0.143 C 
ATOM      8  N   UNL     1       3.639  -1.662   4.768  0.00  0.00    -0.288 N 
ATOM      9  C   UNL     1       2.511  -2.305   5.127  0.00  0.00    +0.307 C 
ATOM     10  O   UNL     1       2.505  -2.954   6.154  0.00  0.00    -0.252 OA
ATOM     11  N   UNL     1       1.395  -2.252   4.387  0.00  0.00    -0.260 N 
ATOM     12  C   UNL     1       0.217  -2.985   4.859  0.00  0.00    +0.139 C 
ATOM     13  H   UNL     1       4.436  -1.714   5.318  0.00  0.00    +0.151 HD
ENDROOT
BRANCH   7  14
ATOM     14  C   UNL     1       4.718  -1.422   2.626  0.00  0.00    -0.004 A 
ATOM     15  C   UNL     1       5.034  -2.767   2.663  0.00  0.00    +0.007 A 
ATOM     16  C   UNL     1       6.028  -3.266   1.842  0.00  0.00    +0.000 A 
ATOM     17  C   UNL     1       6.707  -2.420   0.985  0.00  0.00    +0.001 A 
ATOM     18  C   UNL     1       6.392  -1.075   0.948  0.00  0.00    +0.020 A 
ATOM     19  C   UNL     1       5.393  -0.576   1.765  0.00  0.00    +0.046 A 
ATOM     20 CL   UNL     1       4.992   1.112   1.714  0.00  0.00    -0.083 Cl
ENDBRANCH   7  14
BRANCH   1  22
ATOM     21  C   UNL     1      -0.019   1.526   0.010  0.00  0.00    +0.038 C 
ATOM     22  C   UNL     1       0.002  -0.004   0.002  0.00  0.00    +0.159 C 
BRANCH  22  23
ATOM     23  C   UNL     1       0.707  -0.490  -1.238  0.00  0.00    +0.234 C 
ATOM     24  O   UNL     1       1.704  -1.174  -1.140  0.00  0.00    -0.274 OA
ATOM     25  N   UNL     1       0.231  -0.164  -2.456  0.00  0.00    -0.310 N 
ATOM     26  H   UNL     1      -0.566   0.383  -2.534  0.00  0.00    +0.149 HD
BRANCH  25  27
ATOM     27  C   UNL     1       0.917  -0.637  -3.661  0.00  0.00    +0.139 C 
BRANCH  27  28
ATOM     28  C   UNL     1       0.188  -0.137  -4.882  0.00  0.00    -0.027 A 
ATOM     29  C   UNL     1      -0.834  -0.881  -5.452  0.00  0.00    +0.025 A 
ATOM     30  C   UNL     1      -1.480  -0.392  -6.572  0.00  0.00    +0.111 A 
ATOM     31  N   UNL     1      -1.134   0.768  -7.097  0.00  0.00    -0.263 NA
ATOM     32  C   UNL     1      -0.167   1.502  -6.581  0.00  0.00    +0.111 A 
ATOM     33  C   UNL     1       0.519   1.079  -5.458  0.00  0.00    +0.025 A 
ENDBRANCH  27  28
ENDBRANCH  25  27
ENDBRANCH  22  23
ENDBRANCH   1  22
TORSDOF 5
