REMARK  Name = ZINC39631719
REMARK  15 active torsions:
REMARK  status: ('A' for Active; 'I' for Inactive)
REMARK    1  A    between atoms: C_1  and  C_2
REMARK    2  A    between atoms: C_3  and  C_12
REMARK    3  A    between atoms: C_7  and  O_8
REMARK    4  A    between atoms: O_8  and  C_9
REMARK    5  A    between atoms: C_9  and  C_11
REMARK    6  A    between atoms: C_16  and  C_25
REMARK    7  A    between atoms: N_27  and  C_28
REMARK    8  A    between atoms: C_28  and  C_30
REMARK    9  A    between atoms: C_28  and  C_31
REMARK   10  A    between atoms: C_31  and  C_32
REMARK   11  A    between atoms: C_32  and  C_33
REMARK   12  A    between atoms: C_33  and  C_34
REMARK   13  A    between atoms: C_34  and  C_35
REMARK   14  A    between atoms: C_34  and  C_36
REMARK   15  A    between atoms: C_34  and  O_37
REMARK                            x       y       z     vdW  Elec       q    Type
REMARK                         _______ _______ _______ _____ _____    ______ ____
ROOT
ATOM      1  C   UNL     1      -0.139  -0.100  -2.647  0.00  0.00    +0.247 C 
ATOM      2  O   UNL     1      -0.068   1.107  -2.772  0.00  0.00    -0.270 OA
ATOM      3  N   UNL     1      -0.362  -0.877  -3.725  0.00  0.00    -0.296 N 
ATOM      4  C   UNL     1      -0.605  -2.339  -3.757  0.00  0.00    +0.121 C 
ATOM      5  C   UNL     1      -1.696  -2.530  -4.835  0.00  0.00    +0.100 C 
ATOM      6  C   UNL     1      -1.568  -1.297  -5.745  0.00  0.00    -0.004 C 
ATOM      7  C   UNL     1      -0.426  -0.462  -5.147  0.00  0.00    +0.115 C 
ATOM      8  C   UNL     1      -1.222  -1.725  -7.168  0.00  0.00    -0.010 C 
ATOM      9  C   UNL     1      -1.157  -0.487  -8.067  0.00  0.00    -0.082 C 
ATOM     10  N   UNL     1      -2.451   0.205  -8.044  0.00  0.00    +0.379 N 
ATOM     11  C   UNL     1      -2.734   0.694  -6.689  0.00  0.00    -0.082 C 
ATOM     12  C   UNL     1      -2.865  -0.494  -5.732  0.00  0.00    -0.010 C 
ATOM     13  H   UNL     1      -2.426   0.985  -8.683  0.00  0.00    -0.086 HD
ATOM     14  H   UNL     1      -3.178  -0.435  -8.327  0.00  0.00    -0.086 HD
ENDROOT
BRANCH   1  17
ATOM     15  C   UNL     1      -1.167   1.265  -0.312  0.00  0.00    +0.048 C 
ATOM     16  C   UNL     1      -0.474  -0.066  -0.179  0.00  0.00    +0.004 A 
ATOM     17  C   UNL     1       0.018  -0.715  -1.312  0.00  0.00    +0.043 A 
ATOM     18  C   UNL     1       0.660  -1.948  -1.180  0.00  0.00    +0.013 A 
ATOM     19  C   UNL     1       0.805  -2.520   0.068  0.00  0.00    +0.004 A 
ATOM     20  C   UNL     1       0.316  -1.875   1.189  0.00  0.00    +0.047 A 
ATOM     21  C   UNL     1      -0.318  -0.646   1.068  0.00  0.00    +0.135 A 
BRANCH  21  22
ATOM     22  O   UNL     1      -0.792  -0.015   2.175  0.00  0.00    -0.426 OA
BRANCH  22  23
ATOM     23  C   UNL     1      -0.090   1.024   2.657  0.00  0.00    +0.309 C 
ATOM     24  O   UNL     1       0.975   1.313   2.166  0.00  0.00    -0.251 OA
ATOM     25  C   UNL     1      -0.632   1.829   3.810  0.00  0.00    +0.136 C 
ENDBRANCH  22  23
ENDBRANCH  21  22
ENDBRANCH   1  17
BRANCH   5  26
ATOM     26  C   UNL     1      -1.443  -3.792  -5.618  0.00  0.00    +0.218 C 
ATOM     27  O   UNL     1      -0.319  -4.238  -5.703  0.00  0.00    -0.275 OA
ATOM     28  N   UNL     1      -2.467  -4.426  -6.223  0.00  0.00    -0.312 N 
ATOM     29  H   UNL     1      -3.367  -4.069  -6.155  0.00  0.00    +0.149 HD
BRANCH  28  30
ATOM     30  C   UNL     1      -2.222  -5.653  -6.985  0.00  0.00    +0.070 C 
ATOM     31  C   UNL     1      -2.233  -6.853  -6.036  0.00  0.00    +0.028 C 
BRANCH  30  32
ATOM     32  C   UNL     1      -3.317  -5.826  -8.039  0.00  0.00    +0.022 C 
BRANCH  32  33
ATOM     33  C   UNL     1      -3.226  -4.691  -9.061  0.00  0.00    +0.005 C 
BRANCH  33  34
ATOM     34  C   UNL     1      -4.321  -4.864 -10.115  0.00  0.00    +0.034 C 
BRANCH  34  35
ATOM     35  C   UNL     1      -4.229  -3.729 -11.137  0.00  0.00    +0.061 C 
ATOM     36  C   UNL     1      -5.398  -3.831 -12.119  0.00  0.00    +0.041 C 
ATOM     37  C   UNL     1      -4.289  -2.384 -10.411  0.00  0.00    +0.041 C 
BRANCH  35  38
ATOM     38  O   UNL     1      -2.996  -3.830 -11.852  0.00  0.00    -0.389 OA
ATOM     39  H   UNL     1      -2.870  -3.140 -12.518  0.00  0.00    +0.210 HD
ENDBRANCH  35  38
ENDBRANCH  34  35
ENDBRANCH  33  34
ENDBRANCH  32  33
ENDBRANCH  30  32
ENDBRANCH  28  30
ENDBRANCH   5  26
TORSDOF 10
