REMARK  Name = ZINC05634349
REMARK  10 active torsions:
REMARK  status: ('A' for Active; 'I' for Inactive)
REMARK    1  A    between atoms: C_1  and  C_2
REMARK    2  A    between atoms: C_2  and  C_3
REMARK    3  A    between atoms: C_3  and  C_4
REMARK    4  A    between atoms: C_4  and  N_5
REMARK    5  A    between atoms: N_5  and  C_6
REMARK    6  A    between atoms: C_7  and  N_18
REMARK    7  A    between atoms: N_8  and  C_15
REMARK    8  A    between atoms: C_15  and  C_16
REMARK    9  A    between atoms: C_16  and  C_17
REMARK   10  A    between atoms: C_19  and  C_21
REMARK                            x       y       z     vdW  Elec       q    Type
REMARK                         _______ _______ _______ _____ _____    ______ ____
ROOT
ATOM      1  C   UNL     1       1.251   3.122  -0.660  0.00  0.00    +0.140 A 
ATOM      2  C   UNL     1       0.841   2.167   0.248  0.00  0.00    +0.127 A 
ATOM      3  N   UNL     1      -0.406   1.601   0.111  0.00  0.00    -0.280 N 
ATOM      4  C   UNL     1      -1.217   1.977  -0.893  0.00  0.00    +0.331 A 
ATOM      5  O   UNL     1      -2.317   1.468  -0.995  0.00  0.00    -0.246 OA
ATOM      6  N   UNL     1      -0.833   2.902  -1.790  0.00  0.00    -0.273 N 
ATOM      7  H   UNL     1      -1.452   3.159  -2.532  0.00  0.00    +0.173 HD
ATOM      8  C   UNL     1       0.378   3.488  -1.701  0.00  0.00    +0.277 A 
ATOM      9  O   UNL     1       0.714   4.328  -2.518  0.00  0.00    -0.266 OA
ENDROOT
BRANCH   1  10
ATOM     10  N   UNL     1       2.523   3.720  -0.546  0.00  0.00    -0.260 N 
ATOM     11  C   UNL     1       2.629   5.058  -0.422  0.00  0.00    +0.251 C 
ATOM     12  O   UNL     1       3.727   5.581  -0.401  0.00  0.00    -0.270 OA
BRANCH  11  13
ATOM     13  C   UNL     1       1.413   5.889  -0.311  0.00  0.00    +0.037 A 
ATOM     14  C   UNL     1       0.205   5.312   0.086  0.00  0.00    +0.016 A 
ATOM     15  C   UNL     1      -0.926   6.093   0.193  0.00  0.00    +0.039 A 
ATOM     16  C   UNL     1      -0.868   7.446  -0.103  0.00  0.00    +0.123 A 
ATOM     17  C   UNL     1       0.328   8.023  -0.504  0.00  0.00    +0.039 A 
ATOM     18  C   UNL     1       1.466   7.252  -0.609  0.00  0.00    +0.016 A 
ATOM     19  F   UNL     1      -1.980   8.206  -0.001  0.00  0.00    -0.205 F 
ENDBRANCH  11  13
BRANCH  10  20
ATOM     20  C   UNL     1       3.728   2.888  -0.563  0.00  0.00    +0.114 C 
BRANCH  20  21
ATOM     21  C   UNL     1       4.208   2.715  -2.006  0.00  0.00    +0.019 C 
BRANCH  21  23
ATOM     22  C   UNL     1       5.948   1.674  -3.466  0.00  0.00    +0.004 C 
ATOM     23  C   UNL     1       5.467   1.846  -2.023  0.00  0.00    -0.002 C 
ENDBRANCH  21  23
ENDBRANCH  20  21
ENDBRANCH  10  20
ENDBRANCH   1  10
BRANCH   2  24
ATOM     24  N   UNL     1       1.668   1.785   1.278  0.00  0.00    -0.343 N 
ATOM     25  H   UNL     1       2.483   2.281   1.454  0.00  0.00    +0.144 HD
ATOM     26  H   UNL     1       1.437   1.020   1.827  0.00  0.00    +0.144 HD
ENDBRANCH   2  24
BRANCH   3  27
ATOM     27  C   UNL     1      -0.854   0.586   1.068  0.00  0.00    +0.128 C 
BRANCH  27  28
ATOM     28  C   UNL     1      -1.571   1.267   2.235  0.00  0.00    +0.018 C 
ATOM     29  C   UNL     1      -2.039   0.207   3.234  0.00  0.00    +0.005 C 
ENDBRANCH  27  28
ENDBRANCH   3  27
TORSDOF 8
