REMARK  Name = ZINC49563270
REMARK  4 active torsions:
REMARK  status: ('A' for Active; 'I' for Inactive)
REMARK    1  A    between atoms: C_2  and  N_21
REMARK    2  A    between atoms: C_5  and  S_6
REMARK    3  A    between atoms: S_6  and  N_9
REMARK    4  A    between atoms: N_9  and  C_10
REMARK                            x       y       z     vdW  Elec       q    Type
REMARK                         _______ _______ _______ _____ _____    ______ ____
ROOT
ATOM      1  N   UNL     1      -1.744  -1.436  -1.570  0.00  0.00    -0.188 NA
ATOM      2  H   UNL     1      -2.606  -1.157  -1.919  0.00  0.00    +0.148 HD
ENDROOT
BRANCH   1   3
ATOM      3  C   UNL     1      -0.790  -2.126  -2.442  0.00  0.00    +0.061 C 
ATOM      4  C   UNL     1      -1.145  -3.633  -2.569  0.00  0.00    +0.000 C 
ATOM      5  C   UNL     1      -0.882  -3.982  -4.055  0.00  0.00    -0.077 C 
ATOM      6  N   UNL     1      -0.327  -2.770  -4.659  0.00  0.00    +0.383 N 
ATOM      7  C   UNL     1      -0.924  -1.642  -3.896  0.00  0.00    -0.050 C 
ATOM      8  C   UNL     1      -0.103  -0.397  -4.204  0.00  0.00    -0.014 C 
ATOM      9  C   UNL     1      -0.259  -0.101  -5.704  0.00  0.00    -0.003 C 
ATOM     10  C   UNL     1       0.144  -1.318  -6.536  0.00  0.00    -0.019 C 
ATOM     11  C   UNL     1      -0.616  -2.572  -6.072  0.00  0.00    -0.078 C 
ATOM     12  H   UNL     1       0.672  -2.757  -4.519  0.00  0.00    -0.081 HD
ENDBRANCH   1   3
BRANCH   1  13
ATOM     13  S   UNL     1      -1.352  -1.131   0.009  0.00  0.00    +0.065 S 
ATOM     14  O   UNL     1      -0.863  -2.351   0.549  0.00  0.00    -0.153 OA
ATOM     15  O   UNL     1      -2.455  -0.436   0.575  0.00  0.00    -0.153 OA
BRANCH  13  20
ATOM     16  C   UNL     1      -0.016   1.351   0.009  0.00  0.00    +0.059 A 
ATOM     17  C   UNL     1       1.187   2.039   0.002  0.00  0.00    +0.034 A 
ATOM     18  C   UNL     1       2.346   1.331  -0.013  0.00  0.00    +0.069 A 
ATOM     19  S   UNL     1       1.753  -0.352  -0.017  0.00  0.00    -0.075 S 
ATOM     20  C   UNL     1       0.002  -0.004   0.002  0.00  0.00    +0.144 A 
BRANCH  17  21
ATOM     21  N   UNL     1       1.207   3.447   0.009  0.00  0.00    -0.358 N 
ATOM     22  H   UNL     1       0.374   3.944   0.019  0.00  0.00    +0.142 HD
ATOM     23  H   UNL     1       2.054   3.920   0.003  0.00  0.00    +0.142 HD
ENDBRANCH  17  21
ENDBRANCH  13  20
ENDBRANCH   1  13
TORSDOF 4
