REMARK  Name = ZINC40535806
REMARK  6 active torsions:
REMARK  status: ('A' for Active; 'I' for Inactive)
REMARK    1  A    between atoms: C_1  and  C_2
REMARK    2  A    between atoms: C_3  and  C_22
REMARK    3  A    between atoms: C_4  and  C_21
REMARK    4  A    between atoms: C_7  and  C_8
REMARK    5  A    between atoms: C_14  and  C_16
REMARK    6  A    between atoms: C_22  and  C_24
REMARK                            x       y       z     vdW  Elec       q    Type
REMARK                         _______ _______ _______ _____ _____    ______ ____
ROOT
ATOM      1  C   UNL     1       0.031  -0.379   2.477  0.00  0.00    +0.264 C 
ATOM      2  O   UNL     1      -0.013   0.809   2.736  0.00  0.00    -0.268 OA
ATOM      3  N   UNL     1       0.153  -1.281   3.471  0.00  0.00    -0.289 N 
ATOM      4  C   UNL     1       0.189  -2.745   3.302  0.00  0.00    +0.109 C 
ATOM      5  C   UNL     1       0.938  -3.270   4.553  0.00  0.00    +0.021 C 
ATOM      6  C   UNL     1       0.417  -2.308   5.654  0.00  0.00    +0.029 C 
ATOM      7  C   UNL     1       0.279  -0.968   4.902  0.00  0.00    +0.107 C 
ENDROOT
BRANCH   1  14
ATOM      8  C   UNL     1       0.072   1.477  -0.028  0.00  0.00    +0.047 C 
ATOM      9  C   UNL     1      -0.033  -0.026  -0.018  0.00  0.00    -0.010 A 
ATOM     10  C   UNL     1      -0.126  -0.871  -1.150  0.00  0.00    +0.041 A 
ATOM     11  C   UNL     1      -0.203  -2.172  -0.678  0.00  0.00    +0.024 A 
ATOM     12  N   UNL     1      -0.160  -2.138   0.662  0.00  0.00    -0.354 N 
ATOM     13  H   UNL     1      -0.197  -2.913   1.245  0.00  0.00    +0.166 HD
ATOM     14  C   UNL     1      -0.050  -0.830   1.082  0.00  0.00    +0.106 A 
ATOM     15  C   UNL     1      -0.315  -3.413  -1.526  0.00  0.00    +0.064 C 
BRANCH  10  16
ATOM     16  C   UNL     1      -0.139  -0.451  -2.554  0.00  0.00    +0.162 C 
ATOM     17  O   UNL     1      -1.194  -0.291  -3.130  0.00  0.00    -0.292 OA
ATOM     18  C   UNL     1       1.160  -0.216  -3.283  0.00  0.00    +0.091 C 
ENDBRANCH  10  16
ENDBRANCH   1  14
BRANCH   7  19
ATOM     19  C   UNL     1      -0.952  -0.241   5.377  0.00  0.00    -0.020 A 
ATOM     20  C   UNL     1      -0.845   0.818   6.259  0.00  0.00    +0.013 A 
ATOM     21  C   UNL     1      -1.972   1.450   6.668  0.00  0.00    +0.045 A 
ATOM     22  S   UNL     1      -3.240   0.545   5.796  0.00  0.00    -0.105 S 
ATOM     23  C   UNL     1      -2.181  -0.612   4.942  0.00  0.00    +0.050 A 
ENDBRANCH   7  19
TORSDOF 3
