REMARK  Name = ZINC04910064
REMARK  6 active torsions:
REMARK  status: ('A' for Active; 'I' for Inactive)
REMARK    1  A    between atoms: C_1  and  C_2
REMARK    2  A    between atoms: C_2  and  C_3
REMARK    3  A    between atoms: C_3  and  C_4
REMARK    4  A    between atoms: C_4  and  O_5
REMARK    5  A    between atoms: O_5  and  C_6
REMARK    6  A    between atoms: C_11  and  C_12
REMARK                            x       y       z     vdW  Elec       q    Type
REMARK                         _______ _______ _______ _____ _____    ______ ____
ROOT
ATOM      1  C   UNL     1       1.223   0.231  -4.744  0.00  0.00    +0.063 C 
ATOM      2  C   UNL     1       0.956  -1.096  -5.460  0.00  0.00    +0.109 C 
ATOM      3  C   UNL     1       2.252  -1.845  -5.632  0.00  0.00    +0.218 C 
ATOM      4  O   UNL     1       2.260  -3.056  -5.561  0.00  0.00    -0.275 OA
ATOM      5  N   UNL     1       3.401  -1.183  -5.862  0.00  0.00    -0.285 N 
ATOM      6  C   UNL     1       3.396   0.213  -5.988  0.00  0.00    +0.041 A 
ATOM      7  C   UNL     1       2.351   0.948  -5.441  0.00  0.00    -0.015 A 
ATOM      8  C   UNL     1       2.346   2.325  -5.538  0.00  0.00    +0.055 A 
ATOM      9  C   UNL     1       3.382   2.976  -6.188  0.00  0.00    +0.167 A 
ATOM     10  C   UNL     1       4.428   2.241  -6.743  0.00  0.00    +0.168 A 
ATOM     11  C   UNL     1       4.434   0.861  -6.642  0.00  0.00    +0.073 A 
ATOM     12  O   UNL     1       5.306   3.118  -7.321  0.00  0.00    -0.453 OA
ATOM     13  C   UNL     1       4.510   4.301  -7.565  0.00  0.00    +0.466 C 
ATOM     14  O   UNL     1       3.620   4.304  -6.424  0.00  0.00    -0.453 OA
ATOM     15  H   UNL     1       4.235  -1.672  -5.942  0.00  0.00    +0.155 HD
ENDROOT
BRANCH   1  21
ATOM     16  C   UNL     1      -0.617   1.496  -3.603  0.00  0.00    +0.124 A 
ATOM     17  C   UNL     1      -1.763   2.277  -3.644  0.00  0.00    +0.046 A 
ATOM     18  C   UNL     1      -2.300   2.651  -4.861  0.00  0.00    +0.004 A 
ATOM     19  C   UNL     1      -1.701   2.239  -6.037  0.00  0.00    +0.001 A 
ATOM     20  C   UNL     1      -0.562   1.456  -5.999  0.00  0.00    +0.008 A 
ATOM     21  C   UNL     1      -0.018   1.084  -4.785  0.00  0.00    +0.002 A 
BRANCH  16  22
ATOM     22  O   UNL     1      -0.084   1.132  -2.407  0.00  0.00    -0.492 OA
BRANCH  22  23
ATOM     23  C   UNL     1      -0.753   1.593  -1.232  0.00  0.00    +0.229 C 
BRANCH  23  24
ATOM     24  C   UNL     1      -0.013   1.086   0.008  0.00  0.00    +0.041 C 
BRANCH  24  26
ATOM     25  C   UNL     1       0.011   1.072   2.506  0.00  0.00    +0.004 C 
ATOM     26  C   UNL     1      -0.729   1.579   1.267  0.00  0.00    -0.000 C 
ENDBRANCH  24  26
ENDBRANCH  23  24
ENDBRANCH  22  23
ENDBRANCH  16  22
ENDBRANCH   1  21
TORSDOF 5
