REMARK  Name = ZINC47347161
REMARK  7 active torsions:
REMARK  status: ('A' for Active; 'I' for Inactive)
REMARK    1  A    between atoms: C_1  and  C_2
REMARK    2  A    between atoms: C_6  and  C_24
REMARK    3  A    between atoms: C_7  and  N_8
REMARK    4  A    between atoms: N_11  and  C_12
REMARK    5  A    between atoms: C_12  and  C_14
REMARK    6  A    between atoms: C_12  and  C_15
REMARK    7  A    between atoms: C_19  and  N_21
REMARK                            x       y       z     vdW  Elec       q    Type
REMARK                         _______ _______ _______ _____ _____    ______ ____
ROOT
ATOM      1  N   UNL     1       0.231  -0.278   2.552  0.00  0.00    -0.269 N 
ATOM      2  C   UNL     1       0.021  -1.050   3.636  0.00  0.00    +0.304 C 
ATOM      3  O   UNL     1      -0.170  -2.244   3.505  0.00  0.00    -0.252 OA
ATOM      4  N   UNL     1       0.021  -0.499   4.866  0.00  0.00    -0.293 N 
ATOM      5  H   UNL     1       0.456   0.659   2.660  0.00  0.00    +0.156 HD
ATOM      6  H   UNL     1       0.173   0.453   4.971  0.00  0.00    +0.151 HD
ENDROOT
BRANCH   1  13
ATOM      7  C   UNL     1       2.628  -0.828   1.121  0.00  0.00    +0.045 C 
ATOM      8  C   UNL     1       1.269  -1.112   0.536  0.00  0.00    -0.029 A 
ATOM      9  C   UNL     1       1.160  -1.661  -0.726  0.00  0.00    +0.005 A 
ATOM     10  C   UNL     1      -0.087  -1.922  -1.263  0.00  0.00    +0.001 A 
ATOM     11  C   UNL     1      -1.229  -1.635  -0.538  0.00  0.00    +0.005 A 
ATOM     12  C   UNL     1      -1.127  -1.086   0.725  0.00  0.00    -0.029 A 
ATOM     13  C   UNL     1       0.124  -0.829   1.270  0.00  0.00    +0.041 A 
ATOM     14  C   UNL     1      -2.372  -0.772   1.514  0.00  0.00    +0.045 C 
ENDBRANCH   1  13
BRANCH   4  15
ATOM     15  C   UNL     1      -0.208  -1.339   6.045  0.00  0.00    +0.102 C 
ATOM     16  C   UNL     1       1.115  -1.969   6.487  0.00  0.00    +0.033 C 
BRANCH  15  17
ATOM     17  C   UNL     1      -0.760  -0.494   7.164  0.00  0.00    -0.025 A 
ATOM     18  C   UNL     1      -0.269   0.781   7.375  0.00  0.00    +0.005 A 
ATOM     19  C   UNL     1      -0.776   1.556   8.401  0.00  0.00    +0.003 A 
ATOM     20  C   UNL     1      -1.774   1.056   9.216  0.00  0.00    +0.033 A 
ATOM     21  C   UNL     1      -2.265  -0.218   9.005  0.00  0.00    +0.127 A 
ATOM     22  C   UNL     1      -1.762  -0.992   7.976  0.00  0.00    +0.038 A 
BRANCH  21  23
ATOM     23  N   UNL     1      -3.334  -0.754   9.879  0.00  0.00    +0.056 N 
ATOM     24  O   UNL     1      -3.776  -0.076  10.777  0.00  0.00    -0.126 OA
ATOM     25  O   UNL     1      -3.764  -1.868   9.694  0.00  0.00    -0.126 OA
ENDBRANCH  21  23
ENDBRANCH  15  17
ENDBRANCH   4  15
TORSDOF 4
