REMARK  Name = ZINC19832637
REMARK  4 active torsions:
REMARK  status: ('A' for Active; 'I' for Inactive)
REMARK    1  A    between atoms: N_10  and  C_13
REMARK    2  A    between atoms: C_13  and  O_14
REMARK    3  A    between atoms: O_14  and  C_15
REMARK    4  A    between atoms: C_19  and  C_21
REMARK                            x       y       z     vdW  Elec       q    Type
REMARK                         _______ _______ _______ _____ _____    ______ ____
ROOT
ATOM      1  C   UNL     1       0.866  -2.710   6.856  0.00  0.00    +0.005 A 
ATOM      2  C   UNL     1      -0.196  -3.271   7.554  0.00  0.00    +0.018 A 
ATOM      3  C   UNL     1      -1.406  -3.449   6.915  0.00  0.00    +0.084 A 
ATOM      4  N   UNL     1      -1.567  -3.089   5.655  0.00  0.00    -0.350 N 
ATOM      5  C   UNL     1      -0.578  -2.556   4.955  0.00  0.00    +0.099 A 
ATOM      6  C   UNL     1       0.669  -2.348   5.535  0.00  0.00    +0.042 A 
ATOM      7  N   UNL     1      -0.789  -2.197   3.628  0.00  0.00    -0.314 N 
ATOM      8  C   UNL     1      -2.166  -2.500   3.214  0.00  0.00    +0.122 C 
ATOM      9  C   UNL     1      -2.334  -2.165   1.730  0.00  0.00    +0.106 C 
ATOM     10  N   UNL     1      -2.022  -0.745   1.513  0.00  0.00    -0.267 NA
ATOM     11  C   UNL     1      -0.645  -0.442   1.928  0.00  0.00    +0.106 C 
ATOM     12  C   UNL     1      -0.477  -0.778   3.411  0.00  0.00    +0.122 C 
ATOM     13  H   UNL     1      -2.540  -3.229   5.163  0.00  0.00    +0.166 HD
ENDROOT
BRANCH  10  14
ATOM     14  C   UNL     1      -2.245  -0.366   0.111  0.00  0.00    +0.318 C 
BRANCH  14  15
ATOM     15  O   UNL     1      -2.511   1.036   0.034  0.00  0.00    -0.477 OA
BRANCH  15  16
ATOM     16  C   UNL     1      -3.739   1.455   0.436  0.00  0.00    +0.123 A 
ATOM     17  C   UNL     1      -4.704   0.525   0.802  0.00  0.00    +0.046 A 
ATOM     18  C   UNL     1      -5.954   0.945   1.218  0.00  0.00    +0.004 A 
ATOM     19  C   UNL     1      -6.254   2.291   1.266  0.00  0.00    +0.015 A 
ATOM     20  C   UNL     1      -5.293   3.233   0.895  0.00  0.00    +0.067 A 
ATOM     21  C   UNL     1      -4.031   2.808   0.476  0.00  0.00    +0.060 A 
BRANCH  20  22
ATOM     22  C   UNL     1      -5.610   4.675   0.946  0.00  0.00    +0.387 C 
ATOM     23  O   UNL     1      -4.772   5.493   0.622  0.00  0.00    -0.241 OA
ATOM     24  O   UNL     1      -6.828   5.083   1.350  0.00  0.00    -0.241 OA
ENDBRANCH  20  22
ENDBRANCH  15  16
ENDBRANCH  14  15
ENDBRANCH  10  14
TORSDOF 4
