REMARK  Name = ZINC66454317
REMARK  5 active torsions:
REMARK  status: ('A' for Active; 'I' for Inactive)
REMARK    1  A    between atoms: C_1  and  C_2
REMARK    2  A    between atoms: C_2  and  C_4
REMARK    3  A    between atoms: C_2  and  N_13
REMARK    4  A    between atoms: C_8  and  N_10
REMARK    5  A    between atoms: C_22  and  C_24
REMARK                            x       y       z     vdW  Elec       q    Type
REMARK                         _______ _______ _______ _____ _____    ______ ____
ROOT
ATOM      1  N   UNL     1      -1.372  -0.511   0.012  0.00  0.00    -0.322 N 
ATOM      2  C   UNL     1      -2.044  -0.658   1.207  0.00  0.00    +0.131 A 
ATOM      3  C   UNL     1      -3.371  -1.153   1.240  0.00  0.00    +0.040 A 
ATOM      4  C   UNL     1      -4.060  -1.512   0.077  0.00  0.00    +0.013 A 
ATOM      5  C   UNL     1      -5.337  -1.983   0.171  0.00  0.00    +0.001 A 
ATOM      6  C   UNL     1      -5.963  -2.109   1.408  0.00  0.00    +0.002 A 
ATOM      7  C   UNL     1      -5.319  -1.767   2.559  0.00  0.00    +0.028 A 
ATOM      8  C   UNL     1      -4.005  -1.280   2.500  0.00  0.00    +0.077 A 
ATOM      9  N   UNL     1      -3.326  -0.930   3.602  0.00  0.00    -0.227 NA
ATOM     10  C   UNL     1      -2.099  -0.478   3.511  0.00  0.00    +0.198 A 
ATOM     11  N   UNL     1      -1.463  -0.347   2.358  0.00  0.00    -0.211 NA
ATOM     12  H   UNL     1      -1.810  -0.743  -0.822  0.00  0.00    +0.148 HD
ENDROOT
BRANCH  10  13
ATOM     13  C   UNL     1      -1.377  -0.098   4.778  0.00  0.00    +0.408 C 
ATOM     14  F   UNL     1      -1.843  -0.887   5.836  0.00  0.00    -0.201 F 
ATOM     15  F   UNL     1      -0.003  -0.305   4.612  0.00  0.00    -0.201 F 
ENDBRANCH  10  13
BRANCH   1  17
ATOM     16  C   UNL     1      -0.019   1.526   0.010  0.00  0.00    +0.033 C 
ATOM     17  C   UNL     1       0.002  -0.004   0.002  0.00  0.00    +0.099 C 
BRANCH  17  18
ATOM     18  C   UNL     1       0.707  -0.490  -1.238  0.00  0.00    -0.025 A 
ATOM     19  C   UNL     1       0.037  -0.522  -2.447  0.00  0.00    +0.005 A 
ATOM     20  C   UNL     1       0.684  -0.967  -3.584  0.00  0.00    +0.003 A 
ATOM     21  C   UNL     1       2.002  -1.381  -3.513  0.00  0.00    +0.033 A 
ATOM     22  C   UNL     1       2.672  -1.349  -2.304  0.00  0.00    +0.127 A 
ATOM     23  C   UNL     1       2.026  -0.899  -1.167  0.00  0.00    +0.038 A 
BRANCH  22  24
ATOM     24  N   UNL     1       4.082  -1.792  -2.228  0.00  0.00    +0.056 N 
ATOM     25  O   UNL     1       4.647  -2.183  -3.222  0.00  0.00    -0.126 OA
ATOM     26  O   UNL     1       4.668  -1.764  -1.171  0.00  0.00    -0.126 OA
ENDBRANCH  22  24
ENDBRANCH  17  18
ENDBRANCH   1  17
TORSDOF 4
