REMARK  Name = ZINC45511629
REMARK  11 active torsions:
REMARK  status: ('A' for Active; 'I' for Inactive)
REMARK    1  A    between atoms: C_1  and  C_2
REMARK    2  A    between atoms: C_2  and  C_4
REMARK    3  A    between atoms: C_2  and  N_20
REMARK    4  A    between atoms: N_9  and  C_10
REMARK    5  A    between atoms: N_20  and  C_21
REMARK    6  A    between atoms: N_20  and  C_22
REMARK    7  A    between atoms: C_22  and  C_23
REMARK    8  A    between atoms: N_25  and  C_26
REMARK    9  A    between atoms: C_26  and  C_27
REMARK   10  A    between atoms: C_27  and  O_28
REMARK   11  A    between atoms: O_28  and  C_29
REMARK                            x       y       z     vdW  Elec       q    Type
REMARK                         _______ _______ _______ _____ _____    ______ ____
ROOT
ATOM      1  C   UNL     1       1.266  -0.518  -1.075  0.00  0.00    +0.207 C 
ATOM      2  O   UNL     1       2.281  -1.071  -0.710  0.00  0.00    -0.277 OA
ATOM      3  N   UNL     1       1.045  -0.311  -2.388  0.00  0.00    -0.242 N 
ATOM      4  C   UNL     1       1.953  -0.720  -3.296  0.00  0.00    +0.306 C 
ATOM      5  O   UNL     1       2.971  -1.275  -2.931  0.00  0.00    -0.252 OA
ATOM      6  N   UNL     1       1.732  -0.514  -4.610  0.00  0.00    -0.294 N 
ATOM      7  H   UNL     1       0.233   0.131  -2.680  0.00  0.00    +0.159 HD
ATOM      8  H   UNL     1       0.919  -0.071  -4.901  0.00  0.00    +0.151 HD
ENDROOT
BRANCH   6   9
ATOM      9  C   UNL     1       2.719  -0.958  -5.597  0.00  0.00    +0.037 C 
ATOM     10  C   UNL     1       4.054  -0.260  -5.333  0.00  0.00    +0.029 C 
ATOM     11  C   UNL     1       5.085  -0.725  -6.364  0.00  0.00    -0.008 C 
ATOM     12  C   UNL     1       4.595  -0.372  -7.770  0.00  0.00    +0.007 C 
ATOM     13  C   UNL     1       3.259  -1.070  -8.034  0.00  0.00    -0.008 C 
ATOM     14  C   UNL     1       2.228  -0.606  -7.003  0.00  0.00    +0.029 C 
ATOM     15  C   UNL     1       3.445  -2.584  -7.924  0.00  0.00    +0.007 C 
ATOM     16  C   UNL     1       3.935  -2.937  -6.518  0.00  0.00    -0.008 C 
ATOM     17  C   UNL     1       5.271  -2.239  -6.254  0.00  0.00    +0.007 C 
ATOM     18  C   UNL     1       2.904  -2.473  -5.487  0.00  0.00    +0.029 C 
ENDBRANCH   6   9
BRANCH   1  20
ATOM     19  C   UNL     1       0.521   1.399   0.312  0.00  0.00    -0.004 C 
ATOM     20  C   UNL     1       0.251  -0.060  -0.059  0.00  0.00    +0.017 C 
BRANCH  20  21
ATOM     21  N   UNL     1       0.350  -0.898   1.144  0.00  0.00    +0.391 N 
ATOM     22  C   UNL     1       0.035  -2.290   0.799  0.00  0.00    -0.094 C 
ATOM     23  H   UNL     1       1.288  -0.847   1.513  0.00  0.00    -0.080 HD
BRANCH  21  24
ATOM     24  C   UNL     1      -0.601  -0.417   2.155  0.00  0.00    +0.019 C 
BRANCH  24  25
ATOM     25  C   UNL     1      -0.413  -1.196   3.432  0.00  0.00    +0.197 C 
ATOM     26  O   UNL     1       0.429  -2.066   3.493  0.00  0.00    -0.278 OA
ATOM     27  N   UNL     1      -1.182  -0.926   4.505  0.00  0.00    -0.315 N 
ATOM     28  H   UNL     1      -1.856  -0.230   4.456  0.00  0.00    +0.149 HD
BRANCH  27  29
ATOM     29  C   UNL     1      -1.000  -1.683   5.746  0.00  0.00    +0.132 C 
BRANCH  29  30
ATOM     30  C   UNL     1      -1.990  -1.183   6.799  0.00  0.00    +0.178 C 
BRANCH  30  31
ATOM     31  O   UNL     1      -3.324  -1.469   6.374  0.00  0.00    -0.381 OA
ATOM     32  C   UNL     1      -4.332  -1.040   7.291  0.00  0.00    +0.194 C 
ENDBRANCH  30  31
ENDBRANCH  29  30
ENDBRANCH  27  29
ENDBRANCH  24  25
ENDBRANCH  21  24
ENDBRANCH  20  21
ENDBRANCH   1  20
TORSDOF 8
