REMARK  Name = ZINC64838506
REMARK  6 active torsions:
REMARK  status: ('A' for Active; 'I' for Inactive)
REMARK    1  A    between atoms: C_1  and  N_2
REMARK    2  A    between atoms: C_3  and  C_5
REMARK    3  A    between atoms: C_7  and  N_12
REMARK    4  A    between atoms: C_13  and  C_15
REMARK    5  A    between atoms: C_19  and  N_22
REMARK    6  A    between atoms: C_20  and  N_21
REMARK                            x       y       z     vdW  Elec       q    Type
REMARK                         _______ _______ _______ _____ _____    ______ ____
ROOT
ATOM      1  N   UNL     1      -0.241  -4.771   1.685  0.00  0.00    -0.281 N 
ATOM      2  C   UNL     1      -0.358  -6.083   1.396  0.00  0.00    +0.250 C 
ATOM      3  O   UNL     1       0.239  -6.551   0.445  0.00  0.00    -0.270 OA
ATOM      4  H   UNL     1      -0.661  -4.411   2.482  0.00  0.00    +0.155 HD
ENDROOT
BRANCH   1   7
ATOM      5  C   UNL     1       0.800  -1.786  -0.210  0.00  0.00    +0.057 A 
ATOM      6  C   UNL     1       0.072  -2.622   0.637  0.00  0.00    +0.037 A 
ATOM      7  C   UNL     1       0.485  -3.930   0.835  0.00  0.00    +0.034 A 
ATOM      8  C   UNL     1       1.621  -4.406   0.191  0.00  0.00    +0.025 A 
ATOM      9  C   UNL     1       2.343  -3.579  -0.648  0.00  0.00    +0.022 A 
ATOM     10  C   UNL     1       1.937  -2.275  -0.858  0.00  0.00    +0.053 A 
ATOM     11 CL   UNL     1       2.843  -1.243  -1.920  0.00  0.00    -0.083 Cl
BRANCH   5  14
ATOM     12  C   UNL     1      -1.162   1.463  -0.015  0.00  0.00    +0.128 C 
ATOM     13  N   UNL     1      -0.732   0.079   0.199  0.00  0.00    -0.314 N 
ATOM     14  C   UNL     1       0.366  -0.390  -0.427  0.00  0.00    +0.245 C 
ATOM     15  O   UNL     1       0.999   0.335  -1.169  0.00  0.00    -0.270 OA
ATOM     16  H   UNL     1      -1.236  -0.499   0.792  0.00  0.00    +0.149 HD
ENDBRANCH   5  14
ENDBRANCH   1   7
BRANCH   2  17
ATOM     17  C   UNL     1      -1.208  -6.949   2.232  0.00  0.00    +0.063 A 
ATOM     18  C   UNL     1      -1.957  -6.401   3.278  0.00  0.00    +0.053 A 
ATOM     19  C   UNL     1      -2.751  -7.218   4.056  0.00  0.00    +0.126 A 
ATOM     20  C   UNL     1      -2.810  -8.581   3.806  0.00  0.00    +0.073 A 
ATOM     21  C   UNL     1      -2.076  -9.135   2.778  0.00  0.00    +0.150 A 
ATOM     22  C   UNL     1      -1.276  -8.328   1.980  0.00  0.00    +0.068 A 
ATOM     23  F   UNL     1      -3.473  -6.687   5.067  0.00  0.00    -0.205 F 
BRANCH  22  24
ATOM     24  N   UNL     1      -0.541  -8.883   0.939  0.00  0.00    -0.356 N 
ATOM     25  H   UNL     1      -0.174  -9.777   1.027  0.00  0.00    +0.142 HD
ATOM     26  H   UNL     1      -0.394  -8.378   0.124  0.00  0.00    +0.142 HD
ENDBRANCH  22  24
BRANCH  21  27
ATOM     27  N   UNL     1      -2.145 -10.591   2.521  0.00  0.00    +0.058 N 
ATOM     28  O   UNL     1      -2.757 -11.310   3.277  0.00  0.00    -0.126 OA
ATOM     29  O   UNL     1      -1.591 -11.062   1.555  0.00  0.00    -0.126 OA
ENDBRANCH  21  27
ENDBRANCH   2  17
TORSDOF 5
