REMARK  Name = ZINC20676290
REMARK  8 active torsions:
REMARK  status: ('A' for Active; 'I' for Inactive)
REMARK    1  A    between atoms: C_1  and  C_2
REMARK    2  A    between atoms: C_3  and  C_18
REMARK    3  A    between atoms: C_4  and  N_17
REMARK    4  A    between atoms: C_9  and  S_11
REMARK    5  A    between atoms: S_11  and  C_12
REMARK    6  A    between atoms: C_12  and  C_13
REMARK    7  A    between atoms: C_13  and  O_15
REMARK    8  A    between atoms: O_15  and  C_16
REMARK                            x       y       z     vdW  Elec       q    Type
REMARK                         _______ _______ _______ _____ _____    ______ ____
ROOT
ATOM      1  C   UNL     1      -1.805   7.345   0.058  0.00  0.00    +0.066 C 
ATOM      2  C   UNL     1      -0.947   6.106   0.044  0.00  0.00    +0.053 A 
ATOM      3  C   UNL     1       0.451   6.224   0.031  0.00  0.00    +0.043 A 
ATOM      4  C   UNL     1       1.221   5.062   0.017  0.00  0.00    +0.131 A 
ATOM      5  N   UNL     1       0.585   3.857   0.017  0.00  0.00    -0.181 N 
ATOM      6  C   UNL     1      -0.780   3.798   0.030  0.00  0.00    +0.256 A 
ATOM      7  N   UNL     1      -1.512   4.918   0.043  0.00  0.00    -0.215 NA
ATOM      8  N   UNL     1      -1.120   2.513   0.021  0.00  0.00    -0.183 NA
ATOM      9  C   UNL     1      -0.022   1.758   0.012  0.00  0.00    +0.211 A 
ATOM     10  N   UNL     1       1.042   2.533   0.006  0.00  0.00    -0.135 NA
ENDROOT
BRANCH   3  11
ATOM     11  C   UNL     1       1.096   7.559   0.033  0.00  0.00    -0.013 A 
ATOM     12  C   UNL     1       1.854   7.971  -1.063  0.00  0.00    +0.010 A 
ATOM     13  C   UNL     1       2.449   9.216  -1.058  0.00  0.00    +0.016 A 
ATOM     14  C   UNL     1       2.303  10.051   0.036  0.00  0.00    +0.018 A 
ATOM     15  C   UNL     1       1.556   9.645   1.128  0.00  0.00    +0.016 A 
ATOM     16  C   UNL     1       0.953   8.404   1.132  0.00  0.00    +0.010 A 
ATOM     17 BR   UNL     1       3.127  11.753   0.038  0.00  0.00    -0.050 Br
ENDBRANCH   3  11
BRANCH   4  18
ATOM     18  N   UNL     1       2.594   5.131   0.005  0.00  0.00    -0.342 N 
ATOM     19  H   UNL     1       3.191   4.207  -0.006  0.00  0.00    +0.144 HD
ATOM     20  H   UNL     1       3.096   6.110   0.006  0.00  0.00    +0.144 HD
ENDBRANCH   4  18
BRANCH   9  21
ATOM     21  S   UNL     1       0.002  -0.004   0.002  0.00  0.00    -0.073 S 
BRANCH  21  22
ATOM     22  C   UNL     1      -1.752  -0.467   0.016  0.00  0.00    +0.197 C 
BRANCH  22  23
ATOM     23  C   UNL     1      -1.875  -1.969   0.009  0.00  0.00    +0.317 C 
ATOM     24  O   UNL     1      -0.882  -2.656  -0.004  0.00  0.00    -0.250 OA
BRANCH  23  25
ATOM     25  O   UNL     1      -3.089  -2.543   0.018  0.00  0.00    -0.467 OA
ATOM     26  C   UNL     1      -3.131  -3.994   0.011  0.00  0.00    +0.280 C 
ENDBRANCH  23  25
ENDBRANCH  22  23
ENDBRANCH  21  22
ENDBRANCH   9  21
TORSDOF 6
