REMARK  Name = ZINC31118451
REMARK  10 active torsions:
REMARK  status: ('A' for Active; 'I' for Inactive)
REMARK    1  A    between atoms: C_3  and  C_13
REMARK    2  A    between atoms: C_6  and  C_7
REMARK    3  A    between atoms: C_7  and  N_8
REMARK    4  A    between atoms: N_15  and  C_16
REMARK    5  A    between atoms: C_16  and  C_17
REMARK    6  A    between atoms: C_17  and  C_18
REMARK    7  A    between atoms: C_18  and  C_19
REMARK    8  A    between atoms: C_20  and  C_32
REMARK    9  A    between atoms: C_21  and  N_31
REMARK   10  A    between atoms: N_22  and  C_24
REMARK                            x       y       z     vdW  Elec       q    Type
REMARK                         _______ _______ _______ _____ _____    ______ ____
ROOT
ATOM      1  C   UNL     1      -0.753   1.593  -1.232  0.00  0.00    +0.025 C 
ENDROOT
BRANCH   1   2
ATOM      2  C   UNL     1      -0.037   1.099  -2.490  0.00  0.00    +0.105 C 
BRANCH   2   5
ATOM      3  C   UNL     1      -0.292   1.272  -4.907  0.00  0.00    +0.244 C 
ATOM      4  O   UNL     1       0.705   0.587  -5.032  0.00  0.00    -0.270 OA
ATOM      5  N   UNL     1      -0.745   1.585  -3.677  0.00  0.00    -0.311 N 
ATOM      6  H   UNL     1      -1.647   2.204  -3.564  0.00  0.00    +0.149 HD
BRANCH   3   9
ATOM      7  C   UNL     1      -1.213   1.899  -8.494  0.00  0.00    +0.006 A 
ATOM      8  C   UNL     1      -0.540   1.440  -7.381  0.00  0.00    +0.013 A 
ATOM      9  C   UNL     1      -1.007   1.762  -6.105  0.00  0.00    +0.037 A 
ATOM     10  C   UNL     1      -2.155   2.543  -5.965  0.00  0.00    +0.013 A 
ATOM     11  C   UNL     1      -2.814   3.001  -7.087  0.00  0.00    +0.006 A 
ATOM     12  C   UNL     1      -2.347   2.679  -8.349  0.00  0.00    -0.026 A 
BRANCH  12  13
ATOM     13  C   UNL     1      -3.075   3.178  -9.569  0.00  0.00    +0.180 C 
BRANCH  13  14
ATOM     14  N   UNL     1      -4.093   2.201  -9.964  0.00  0.00    -0.248 N 
ATOM     15  C   UNL     1      -5.407   2.432 -10.136  0.00  0.00    +0.219 A 
ATOM     16  N   UNL     1      -5.973   1.306 -10.489  0.00  0.00    -0.223 NA
ATOM     17  C   UNL     1      -5.058   0.340 -10.552  0.00  0.00    +0.245 A 
ATOM     18  N   UNL     1      -3.890   0.840 -10.244  0.00  0.00    -0.158 NA
ENDBRANCH  13  14
ENDBRANCH  12  13
ENDBRANCH   3   9
ENDBRANCH   2   5
ENDBRANCH   1   2
BRANCH   1  19
ATOM     19  C   UNL     1      -0.013   1.086   0.008  0.00  0.00    +0.060 C 
BRANCH  19  20
ATOM     20  C   UNL     1      -0.718   1.572   1.248  0.00  0.00    +0.083 A 
ATOM     21  C   UNL     1      -1.755   0.894   1.931  0.00  0.00    +0.114 A 
ATOM     22  C   UNL     1      -2.116   1.690   3.015  0.00  0.00    +0.138 A 
ATOM     23  N   UNL     1      -1.331   2.790   2.979  0.00  0.00    -0.217 N 
ATOM     24  N   UNL     1      -0.474   2.687   1.879  0.00  0.00    -0.168 NA
BRANCH  23  25
ATOM     25  C   UNL     1      -1.367   3.853   3.893  0.00  0.00    +0.068 A 
ATOM     26  C   UNL     1      -2.576   4.255   4.445  0.00  0.00    +0.030 A 
ATOM     27  C   UNL     1      -2.609   5.299   5.348  0.00  0.00    +0.040 A 
ATOM     28  C   UNL     1      -1.438   5.952   5.696  0.00  0.00    +0.124 A 
ATOM     29  C   UNL     1      -0.232   5.555   5.144  0.00  0.00    +0.040 A 
ATOM     30  C   UNL     1      -0.194   4.508   4.244  0.00  0.00    +0.030 A 
ATOM     31  F   UNL     1      -1.473   6.977   6.576  0.00  0.00    -0.205 F 
ENDBRANCH  23  25
BRANCH  22  32
ATOM     32  N   UNL     1      -3.092   1.408   3.951  0.00  0.00    -0.342 N 
ATOM     33  H   UNL     1      -3.291   2.116   4.769  0.00  0.00    +0.144 HD
ATOM     34  H   UNL     1      -3.671   0.475   3.879  0.00  0.00    +0.144 HD
ENDBRANCH  22  32
BRANCH  21  35
ATOM     35  C   UNL     1      -2.325  -0.370   1.575  0.00  0.00    +0.104 C 
ATOM     36  N   UNL     1      -2.777  -1.373   1.293  0.00  0.00    -0.191 NA
ENDBRANCH  21  35
ENDBRANCH  19  20
ENDBRANCH   1  19
TORSDOF 10
