REMARK  Name = ZINC39992136
REMARK  7 active torsions:
REMARK  status: ('A' for Active; 'I' for Inactive)
REMARK    1  A    between atoms: C_1  and  C_2
REMARK    2  A    between atoms: C_2  and  N_3
REMARK    3  A    between atoms: C_4  and  C_6
REMARK    4  A    between atoms: C_8  and  N_17
REMARK    5  A    between atoms: C_18  and  C_20
REMARK    6  A    between atoms: C_20  and  C_31
REMARK    7  A    between atoms: C_21  and  C_22
REMARK                            x       y       z     vdW  Elec       q    Type
REMARK                         _______ _______ _______ _____ _____    ______ ____
ROOT
ATOM      1  N   UNL     1      -4.553  -0.646  -0.929  0.00  0.00    -0.298 N 
ATOM      2  C   UNL     1      -4.521   0.417  -1.757  0.00  0.00    +0.255 C 
ATOM      3  O   UNL     1      -3.830   0.388  -2.758  0.00  0.00    -0.269 OA
ATOM      4  H   UNL     1      -5.104  -0.623  -0.131  0.00  0.00    +0.150 HD
ENDROOT
BRANCH   1   6
ATOM      5  C   UNL     1      -3.014  -2.361   0.018  0.00  0.00    +0.132 C 
ATOM      6  C   UNL     1      -3.756  -1.837  -1.235  0.00  0.00    +0.152 C 
ATOM      7  S   UNL     1      -4.824  -3.301  -1.561  0.00  0.00    -0.106 S 
ATOM      8  C   UNL     1      -3.862  -4.520  -0.696  0.00  0.00    -0.013 C 
ATOM      9  C   UNL     1      -2.983  -3.868   0.052  0.00  0.00    -0.046 C 
ATOM     10  C   UNL     1      -1.977  -4.623   0.919  0.00  0.00    +0.032 C 
ATOM     11  C   UNL     1      -2.468  -6.056   1.125  0.00  0.00    +0.005 C 
ATOM     12  C   UNL     1      -2.781  -6.689  -0.234  0.00  0.00    +0.005 C 
ATOM     13  C   UNL     1      -4.027  -6.010  -0.807  0.00  0.00    +0.042 C 
BRANCH   5  15
ATOM     14  N   UNL     1      -1.372  -0.511   0.012  0.00  0.00    -0.315 N 
ATOM     15  C   UNL     1      -1.601  -1.839   0.007  0.00  0.00    +0.223 C 
ATOM     16  O   UNL     1      -0.668  -2.615  -0.006  0.00  0.00    -0.275 OA
ATOM     17  H   UNL     1      -2.118   0.109   0.023  0.00  0.00    +0.149 HD
BRANCH  14  19
ATOM     18  C   UNL     1      -0.019   1.526   0.010  0.00  0.00    +0.024 C 
ATOM     19  C   UNL     1       0.002  -0.004   0.002  0.00  0.00    +0.101 C 
ENDBRANCH  14  19
ENDBRANCH   5  15
ENDBRANCH   1   6
BRANCH   2  20
ATOM     20  C   UNL     1      -5.322   1.615  -1.449  0.00  0.00    +0.114 C 
ATOM     21  C   UNL     1      -5.290   2.708  -2.301  0.00  0.00    +0.030 C 
BRANCH  21  22
ATOM     22  C   UNL     1      -6.051   3.846  -2.009  0.00  0.00    -0.018 C 
ATOM     23  C   UNL     1      -6.135   5.016  -2.754  0.00  0.00    +0.003 A 
ATOM     24  C   UNL     1      -5.532   5.429  -3.962  0.00  0.00    +0.010 A 
ATOM     25  C   UNL     1      -5.799   6.654  -4.474  0.00  0.00    +0.001 A 
ATOM     26  C   UNL     1      -6.667   7.557  -3.847  0.00  0.00    +0.002 A 
ATOM     27  C   UNL     1      -7.294   7.257  -2.687  0.00  0.00    +0.026 A 
ATOM     28  C   UNL     1      -7.058   5.946  -2.065  0.00  0.00    +0.043 A 
ATOM     29  N   UNL     1      -7.521   5.404  -0.970  0.00  0.00    -0.380 N 
ATOM     30  C   UNL     1      -6.960   4.058  -0.818  0.00  0.00    +0.149 C 
ATOM     31  H   UNL     1      -8.141   5.826  -0.355  0.00  0.00    +0.160 HD
ENDBRANCH  21  22
BRANCH  20  32
ATOM     32  C   UNL     1      -6.136   1.649  -0.271  0.00  0.00    +0.104 C 
ATOM     33  N   UNL     1      -6.780   1.676   0.664  0.00  0.00    -0.191 NA
ENDBRANCH  20  32
ENDBRANCH   2  20
TORSDOF 6
