REMARK  Name = ZINC39663095
REMARK  4 active torsions:
REMARK  status: ('A' for Active; 'I' for Inactive)
REMARK    1  A    between atoms: C_1  and  C_2
REMARK    2  A    between atoms: C_2  and  C_8
REMARK    3  A    between atoms: C_12  and  C_21
REMARK    4  A    between atoms: N_23  and  C_24
REMARK                            x       y       z     vdW  Elec       q    Type
REMARK                         _______ _______ _______ _____ _____    ______ ____
ROOT
ATOM      1  C   UNL     1      -1.507  -0.428  -0.027  0.00  0.00    +0.222 C 
ATOM      2  O   UNL     1      -1.990  -1.082   0.873  0.00  0.00    -0.275 OA
ATOM      3  N   UNL     1      -2.256  -0.100  -1.099  0.00  0.00    -0.300 N 
ATOM      4  C   UNL     1      -1.819   0.594  -2.334  0.00  0.00    +0.121 C 
ATOM      5  C   UNL     1      -2.578  -0.123  -3.473  0.00  0.00    +0.100 C 
ATOM      6  C   UNL     1      -3.813  -0.740  -2.795  0.00  0.00    -0.004 C 
ATOM      7  C   UNL     1      -3.700  -0.357  -1.312  0.00  0.00    +0.115 C 
ATOM      8  C   UNL     1      -5.090  -0.160  -3.395  0.00  0.00    -0.010 C 
ATOM      9  C   UNL     1      -6.304  -0.831  -2.745  0.00  0.00    -0.082 C 
ATOM     10  N   UNL     1      -6.245  -2.280  -2.974  0.00  0.00    +0.379 N 
ATOM     11  C   UNL     1      -5.061  -2.844  -2.314  0.00  0.00    -0.082 C 
ATOM     12  C   UNL     1      -3.795  -2.258  -2.945  0.00  0.00    -0.010 C 
ATOM     13  H   UNL     1      -7.076  -2.712  -2.598  0.00  0.00    -0.086 HD
ATOM     14  H   UNL     1      -6.194  -2.461  -3.965  0.00  0.00    -0.086 HD
ENDROOT
BRANCH   1  16
ATOM     15  C   UNL     1       0.750  -0.708  -1.016  0.00  0.00    +0.021 C 
ATOM     16  C   UNL     1      -0.070   0.019   0.053  0.00  0.00    +0.044 C 
ATOM     17  C   UNL     1       0.491  -0.312   1.438  0.00  0.00    +0.016 C 
ATOM     18  C   UNL     1      -0.329   0.414   2.506  0.00  0.00    +0.001 C 
ATOM     19  C   UNL     1      -0.250   1.924   2.271  0.00  0.00    +0.000 C 
ATOM     20  C   UNL     1      -0.810   2.255   0.886  0.00  0.00    +0.001 C 
ATOM     21  C   UNL     1       0.009   1.528  -0.183  0.00  0.00    +0.016 C 
ENDBRANCH   1  16
BRANCH   5  22
ATOM     22  C   UNL     1      -2.997   0.868  -4.529  0.00  0.00    +0.218 C 
ATOM     23  O   UNL     1      -3.293   2.001  -4.214  0.00  0.00    -0.275 OA
ATOM     24  N   UNL     1      -3.042   0.494  -5.823  0.00  0.00    -0.314 N 
ATOM     25  H   UNL     1      -2.805  -0.412  -6.075  0.00  0.00    +0.149 HD
BRANCH  24  26
ATOM     26  C   UNL     1      -3.448   1.457  -6.850  0.00  0.00    +0.059 C 
ATOM     27  C   UNL     1      -2.236   2.281  -7.289  0.00  0.00    -0.056 C 
ATOM     28  N   UNL     1      -1.994   2.093  -8.722  0.00  0.00    +0.381 N 
ATOM     29  C   UNL     1      -1.700   0.688  -9.014  0.00  0.00    -0.078 C 
ATOM     30  C   UNL     1      -2.894  -0.189  -8.632  0.00  0.00    -0.014 C 
ATOM     31  C   UNL     1      -4.008   0.707  -8.066  0.00  0.00    +0.004 C 
ATOM     32  C   UNL     1      -4.390   1.737  -9.136  0.00  0.00    -0.014 C 
ATOM     33  C   UNL     1      -3.144   2.552  -9.504  0.00  0.00    -0.078 C 
ATOM     34  H   UNL     1      -1.190   2.642  -8.984  0.00  0.00    -0.082 HD
ENDBRANCH  24  26
ENDBRANCH   5  22
TORSDOF 3
