REMARK  Name = ZINC63512311
REMARK  5 active torsions:
REMARK  status: ('A' for Active; 'I' for Inactive)
REMARK    1  A    between atoms: C_1  and  C_2
REMARK    2  A    between atoms: C_4  and  C_7
REMARK    3  A    between atoms: C_7  and  N_14
REMARK    4  A    between atoms: N_14  and  C_15
REMARK    5  A    between atoms: C_15  and  C_16
REMARK                            x       y       z     vdW  Elec       q    Type
REMARK                         _______ _______ _______ _____ _____    ______ ____
ROOT
ATOM      1  C   UNL     1      -1.412  -3.120  -0.151  0.00  0.00    -0.003 C 
ATOM      2  C   UNL     1      -2.135  -2.807   1.173  0.00  0.00    -0.005 C 
ATOM      3  C   UNL     1      -2.791  -4.050   1.804  0.00  0.00    -0.001 C 
ATOM      4  C   UNL     1      -3.472  -4.922   0.785  0.00  0.00    -0.000 C 
ATOM      5  C   UNL     1      -2.485  -6.021   0.342  0.00  0.00    -0.000 C 
ATOM      6  C   UNL     1      -1.526  -5.541  -0.642  0.00  0.00    -0.001 C 
ATOM      7  C   UNL     1      -0.636  -4.407  -0.092  0.00  0.00    -0.005 C 
ENDROOT
BRANCH   1  11
ATOM      8  C   UNL     1       0.281   1.501  -1.087  0.00  0.00    +0.112 C 
ATOM      9  C   UNL     1       0.256   0.010  -0.869  0.00  0.00    +0.224 A 
ATOM     10  N   UNL     1      -0.800  -0.705  -0.596  0.00  0.00    -0.198 NA
ATOM     11  C   UNL     1      -0.463  -1.992  -0.466  0.00  0.00    +0.161 A 
ATOM     12  N   UNL     1       0.820  -2.113  -0.656  0.00  0.00    -0.063 NA
ATOM     13  O   UNL     1       1.313  -0.810  -0.929  0.00  0.00    -0.338 OA
ENDBRANCH   1  11
BRANCH   1  14
ATOM     14  N   UNL     1      -2.410  -3.215  -1.225  0.00  0.00    +0.390 N 
ATOM     15  H   UNL     1      -1.941  -3.257  -2.117  0.00  0.00    -0.084 HD
ATOM     16  H   UNL     1      -2.965  -4.048  -1.096  0.00  0.00    -0.084 HD
BRANCH  14  17
ATOM     17  C   UNL     1      -3.283  -2.034  -1.187  0.00  0.00    -0.045 C 
BRANCH  17  18
ATOM     18  C   UNL     1      -4.212  -2.058  -2.373  0.00  0.00    -0.064 A 
ATOM     19  C   UNL     1      -3.833  -1.460  -3.561  0.00  0.00    +0.003 A 
ATOM     20  C   UNL     1      -4.684  -1.482  -4.649  0.00  0.00    +0.015 A 
ATOM     21  C   UNL     1      -5.916  -2.104  -4.551  0.00  0.00    +0.018 A 
ATOM     22  C   UNL     1      -6.295  -2.703  -3.363  0.00  0.00    +0.015 A 
ATOM     23  C   UNL     1      -5.441  -2.684  -2.276  0.00  0.00    +0.003 A 
ATOM     24 BR   UNL     1      -7.081  -2.134  -6.040  0.00  0.00    -0.050 Br
ENDBRANCH  17  18
ENDBRANCH  14  17
ENDBRANCH   1  14
TORSDOF 4
