REMARK  Name = ZINC49402911
REMARK  8 active torsions:
REMARK  status: ('A' for Active; 'I' for Inactive)
REMARK    1  A    between atoms: C_1  and  C_2
REMARK    2  A    between atoms: C_2  and  O_3
REMARK    3  A    between atoms: O_3  and  C_4
REMARK    4  A    between atoms: C_7  and  N_10
REMARK    5  A    between atoms: C_11  and  C_13
REMARK    6  A    between atoms: C_13  and  N_14
REMARK    7  A    between atoms: C_17  and  C_22
REMARK    8  A    between atoms: C_25  and  C_28
REMARK                            x       y       z     vdW  Elec       q    Type
REMARK                         _______ _______ _______ _____ _____    ______ ____
ROOT
ATOM      1  N   UNL     1       2.279  -8.218  -4.486  0.00  0.00    -0.247 N 
ATOM      2  C   UNL     1       1.484  -8.268  -5.594  0.00  0.00    +0.065 C 
ATOM      3  C   UNL     1       2.001  -8.529  -6.814  0.00  0.00    +0.082 C 
ATOM      4  C   UNL     1       3.493  -8.766  -6.912  0.00  0.00    +0.144 C 
ATOM      5  N   UNL     1       4.263  -8.691  -5.659  0.00  0.00    -0.288 N 
ATOM      6  C   UNL     1       3.604  -8.414  -4.516  0.00  0.00    +0.307 C 
ATOM      7  O   UNL     1       4.232  -8.345  -3.478  0.00  0.00    -0.252 OA
ATOM      8  C   UNL     1       0.974  -8.523  -7.776  0.00  0.00    +0.339 C 
ATOM      9  O   UNL     1       1.140  -8.728  -8.963  0.00  0.00    -0.245 OA
ATOM     10  O   UNL     1      -0.217  -8.260  -7.205  0.00  0.00    -0.455 OA
ATOM     11  C   UNL     1      -0.002  -8.080  -5.799  0.00  0.00    +0.284 C 
ATOM     12  H   UNL     1       5.223  -8.833  -5.656  0.00  0.00    +0.151 HD
ENDROOT
BRANCH   4  13
ATOM     13  C   UNL     1       4.063  -7.750  -7.869  0.00  0.00    -0.022 A 
ATOM     14  C   UNL     1       4.317  -6.461  -7.438  0.00  0.00    +0.006 A 
ATOM     15  C   UNL     1       4.839  -5.529  -8.315  0.00  0.00    +0.004 A 
ATOM     16  C   UNL     1       5.108  -5.886  -9.623  0.00  0.00    -0.050 A 
ATOM     17  C   UNL     1       4.855  -7.175 -10.054  0.00  0.00    +0.004 A 
ATOM     18  C   UNL     1       4.336  -8.108  -9.175  0.00  0.00    +0.006 A 
ATOM     19  C   UNL     1       5.676  -4.870 -10.579  0.00  0.00    +0.044 C 
ENDBRANCH   4  13
BRANCH   1  20
ATOM     20  C   UNL     1       1.651  -7.929  -3.195  0.00  0.00    +0.211 C 
BRANCH  20  22
ATOM     21  N   UNL     1       1.102  -5.938  -1.834  0.00  0.00    -0.284 N 
ATOM     22  C   UNL     1       1.635  -6.440  -2.966  0.00  0.00    +0.235 C 
ATOM     23  O   UNL     1       2.103  -5.694  -3.799  0.00  0.00    -0.274 OA
ATOM     24  H   UNL     1       0.789  -6.537  -1.139  0.00  0.00    +0.155 HD
BRANCH  21  28
ATOM     25  C   UNL     1       0.797  -1.810  -1.327  0.00  0.00    +0.121 A 
ATOM     26  C   UNL     1       1.882  -2.347  -2.004  0.00  0.00    +0.047 A 
ATOM     27  C   UNL     1       1.984  -3.714  -2.172  0.00  0.00    +0.027 A 
ATOM     28  C   UNL     1       1.000  -4.551  -1.664  0.00  0.00    +0.034 A 
ATOM     29  C   UNL     1      -0.086  -4.013  -0.987  0.00  0.00    +0.027 A 
ATOM     30  C   UNL     1      -0.184  -2.646  -0.814  0.00  0.00    +0.047 A 
BRANCH  25  31
ATOM     31  O   UNL     1       0.698  -0.464  -1.162  0.00  0.00    -0.492 OA
BRANCH  31  33
ATOM     32  C   UNL     1       1.460   1.813  -1.433  0.00  0.00    +0.048 C 
ATOM     33  C   UNL     1       1.744   0.336  -1.717  0.00  0.00    +0.225 C 
ENDBRANCH  31  33
ENDBRANCH  25  31
ENDBRANCH  21  28
ENDBRANCH  20  22
ENDBRANCH   1  20
TORSDOF 6
