REMARK  Name = ZINC63426581
REMARK  8 active torsions:
REMARK  status: ('A' for Active; 'I' for Inactive)
REMARK    1  A    between atoms: C_1  and  C_2
REMARK    2  A    between atoms: C_2  and  C_3
REMARK    3  A    between atoms: C_3  and  C_4
REMARK    4  A    between atoms: C_4  and  C_5
REMARK    5  A    between atoms: C_5  and  N_6
REMARK    6  A    between atoms: C_13  and  O_32
REMARK    7  A    between atoms: C_15  and  C_18
REMARK    8  A    between atoms: C_18  and  N_20
REMARK                            x       y       z     vdW  Elec       q    Type
REMARK                         _______ _______ _______ _____ _____    ______ ____
ROOT
ATOM      1  N   UNL     1      -2.828  -4.058   0.007  0.00  0.00    -0.267 N 
ATOM      2  C   UNL     1      -2.824  -4.751  -1.206  0.00  0.00    +0.043 A 
ATOM      3  C   UNL     1      -3.205  -4.101  -2.374  0.00  0.00    +0.024 A 
ATOM      4  C   UNL     1      -3.207  -4.785  -3.574  0.00  0.00    +0.002 A 
ATOM      5  C   UNL     1      -2.829  -6.115  -3.612  0.00  0.00    +0.000 A 
ATOM      6  C   UNL     1      -2.448  -6.762  -2.452  0.00  0.00    +0.008 A 
ATOM      7  C   UNL     1      -2.442  -6.084  -1.246  0.00  0.00    +0.007 A 
ATOM      8  C   UNL     1      -2.015  -6.800   0.006  0.00  0.00    +0.187 C 
ATOM      9  C   UNL     1      -2.441  -6.050   1.233  0.00  0.00    +0.111 C 
ATOM     10  C   UNL     1      -2.807  -4.750   1.190  0.00  0.00    +0.255 C 
ATOM     11  O   UNL     1      -3.165  -4.125   2.333  0.00  0.00    -0.270 OA
ENDROOT
BRANCH   9  12
ATOM     12  C   UNL     1      -2.453  -6.723   2.475  0.00  0.00    +0.273 C 
ATOM     13  O   UNL     1      -2.796  -6.132   3.487  0.00  0.00    -0.268 OA
BRANCH  12  14
ATOM     14  N   UNL     1      -2.087  -8.015   2.543  0.00  0.00    -0.152 NA
ATOM     15  C   UNL     1      -2.099  -8.647   3.708  0.00  0.00    +0.164 A 
ATOM     16  N   UNL     1      -2.451  -8.169   4.936  0.00  0.00    -0.335 N 
ATOM     17  H   UNL     1      -2.741  -7.248   5.031  0.00  0.00    +0.168 HD
ATOM     18  C   UNL     1      -2.397  -8.993   6.047  0.00  0.00    +0.055 A 
ATOM     19  C   UNL     1      -2.722  -8.663   7.374  0.00  0.00    +0.029 A 
ATOM     20  C   UNL     1      -2.618  -9.594   8.379  0.00  0.00    +0.040 A 
ATOM     21  C   UNL     1      -2.189 -10.887   8.120  0.00  0.00    +0.125 A 
ATOM     22  C   UNL     1      -1.861 -11.240   6.821  0.00  0.00    +0.055 A 
ATOM     23  C   UNL     1      -1.967 -10.308   5.816  0.00  0.00    +0.041 A 
ATOM     24  S   UNL     1      -1.665 -10.341   4.066  0.00  0.00    -0.052 S 
ATOM     25  F   UNL     1      -2.091 -11.790   9.120  0.00  0.00    -0.205 F 
ENDBRANCH  12  14
ENDBRANCH   9  12
BRANCH   8  26
ATOM     26  O   UNL     1      -0.592  -6.931   0.008  0.00  0.00    -0.382 OA
ATOM     27  H   UNL     1      -0.240  -7.384   0.787  0.00  0.00    +0.211 HD
ENDBRANCH   8  26
BRANCH   1  28
ATOM     28  C   UNL     1      -2.848  -2.593   0.015  0.00  0.00    +0.114 C 
BRANCH  28  29
ATOM     29  C   UNL     1      -1.413  -2.063   0.004  0.00  0.00    +0.019 C 
BRANCH  29  30
ATOM     30  C   UNL     1      -1.433  -0.534   0.013  0.00  0.00    +0.001 C 
BRANCH  30  32
ATOM     31  C   UNL     1      -0.019   1.526   0.010  0.00  0.00    +0.004 C 
ATOM     32  C   UNL     1       0.002  -0.004   0.002  0.00  0.00    -0.003 C 
ENDBRANCH  30  32
ENDBRANCH  29  30
ENDBRANCH  28  29
ENDBRANCH   1  28
TORSDOF 7
