REMARK  Name = ZINC63686593
REMARK  12 active torsions:
REMARK  status: ('A' for Active; 'I' for Inactive)
REMARK    1  A    between atoms: C_1  and  C_2
REMARK    2  A    between atoms: C_2  and  N_3
REMARK    3  A    between atoms: C_4  and  C_25
REMARK    4  A    between atoms: C_8  and  S_10
REMARK    5  A    between atoms: S_10  and  C_11
REMARK    6  A    between atoms: C_11  and  C_12
REMARK    7  A    between atoms: C_15  and  C_24
REMARK    8  A    between atoms: C_17  and  C_23
REMARK    9  A    between atoms: C_25  and  O_26
REMARK   10  A    between atoms: O_26  and  C_27
REMARK   11  A    between atoms: C_29  and  C_34
REMARK   12  A    between atoms: C_32  and  C_33
REMARK                            x       y       z     vdW  Elec       q    Type
REMARK                         _______ _______ _______ _____ _____    ______ ____
ROOT
ATOM      1  N   UNL     1       0.611  -0.728   1.146  0.00  0.00    -0.259 NA
ATOM      2  C   UNL     1       0.783  -2.197   1.067  0.00  0.00    +0.178 C 
ATOM      3  N   UNL     1       0.637  -2.657   2.473  0.00  0.00    -0.234 NA
ATOM      4  N   UNL     1      -0.422  -1.783   3.002  0.00  0.00    -0.229 NA
ATOM      5  C   UNL     1      -0.157  -0.465   2.381  0.00  0.00    +0.200 C 
ATOM      6  H   UNL     1       0.358  -3.626   2.509  0.00  0.00    +0.142 HD
ATOM      7  H   UNL     1      -1.335  -2.126   2.745  0.00  0.00    +0.143 HD
ENDROOT
BRANCH   1   9
ATOM      8  C   UNL     1       0.802  -0.337  -1.264  0.00  0.00    +0.020 C 
ATOM      9  C   UNL     1      -0.100  -0.217  -0.034  0.00  0.00    +0.085 C 
ENDBRANCH   1   9
BRANCH   5  10
ATOM     10  S   UNL     1      -1.722   0.358   1.978  0.00  0.00    -0.119 S 
BRANCH  10  11
ATOM     11  C   UNL     1      -2.314   0.982   3.575  0.00  0.00    +0.125 C 
BRANCH  11  12
ATOM     12  C   UNL     1      -3.562   1.801   3.362  0.00  0.00    +0.030 A 
ATOM     13  N   UNL     1      -3.444   3.042   2.832  0.00  0.00    -0.357 N 
ATOM     14  C   UNL     1      -4.544   3.841   2.614  0.00  0.00    +0.053 A 
ATOM     15  C   UNL     1      -4.412   5.115   2.068  0.00  0.00    -0.026 A 
ATOM     16  C   UNL     1      -5.533   5.888   1.862  0.00  0.00    +0.008 A 
ATOM     17  C   UNL     1      -6.794   5.412   2.192  0.00  0.00    -0.049 A 
ATOM     18  C   UNL     1      -6.946   4.163   2.729  0.00  0.00    +0.017 A 
ATOM     19  C   UNL     1      -5.824   3.364   2.946  0.00  0.00    +0.045 A 
ATOM     20  C   UNL     1      -5.942   2.013   3.522  0.00  0.00    +0.190 A 
ATOM     21  O   UNL     1      -7.029   1.550   3.827  0.00  0.00    -0.287 OA
ATOM     22  C   UNL     1      -4.753   1.267   3.703  0.00  0.00    +0.073 A 
ATOM     23  C   UNL     1      -8.006   6.277   1.958  0.00  0.00    +0.044 C 
ATOM     24  C   UNL     1      -3.049   5.646   1.706  0.00  0.00    +0.046 C 
ATOM     25  H   UNL     1      -2.563   3.377   2.602  0.00  0.00    +0.166 HD
ENDBRANCH  11  12
ENDBRANCH  10  11
ENDBRANCH   5  10
BRANCH   2  26
ATOM     26  C   UNL     1       2.171  -2.545   0.528  0.00  0.00    +0.265 C 
BRANCH  26  27
ATOM     27  O   UNL     1       3.169  -2.007   1.397  0.00  0.00    -0.489 OA
BRANCH  27  28
ATOM     28  C   UNL     1       4.467  -2.228   1.059  0.00  0.00    +0.124 A 
ATOM     29  C   UNL     1       4.773  -2.943  -0.089  0.00  0.00    +0.049 A 
ATOM     30  C   UNL     1       6.093  -3.166  -0.431  0.00  0.00    -0.047 A 
ATOM     31  C   UNL     1       7.108  -2.677   0.370  0.00  0.00    +0.004 A 
ATOM     32  C   UNL     1       6.805  -1.964   1.516  0.00  0.00    +0.007 A 
ATOM     33  C   UNL     1       5.487  -1.734   1.859  0.00  0.00    -0.009 A 
ATOM     34  C   UNL     1       5.157  -0.951   3.104  0.00  0.00    +0.047 C 
ATOM     35  C   UNL     1       6.427  -3.944  -1.678  0.00  0.00    +0.044 C 
ENDBRANCH  27  28
ENDBRANCH  26  27
ENDBRANCH   2  26
TORSDOF 7
