REMARK  Name = ZINC36201649
REMARK  6 active torsions:
REMARK  status: ('A' for Active; 'I' for Inactive)
REMARK    1  A    between atoms: C_5  and  S_7
REMARK    2  A    between atoms: S_7  and  N_10
REMARK    3  A    between atoms: N_10  and  C_11
REMARK    4  A    between atoms: C_11  and  C_12
REMARK    5  A    between atoms: C_12  and  S_13
REMARK    6  A    between atoms: S_13  and  N_16
REMARK                            x       y       z     vdW  Elec       q    Type
REMARK                         _______ _______ _______ _____ _____    ______ ____
ROOT
ATOM      1  S   UNL     1       1.179  -2.566  -0.029  0.00  0.00    +0.059 S 
ATOM      2  O   UNL     1      -0.085  -3.201   0.110  0.00  0.00    -0.153 OA
ATOM      3  O   UNL     1       2.041  -2.819  -1.130  0.00  0.00    -0.153 OA
ENDROOT
BRANCH   1   8
ATOM      4  C   UNL     1      -0.659   1.001   0.064  0.00  0.00    +0.002 A 
ATOM      5  C   UNL     1       0.400   1.885   0.003  0.00  0.00    +0.005 A 
ATOM      6  C   UNL     1       1.702   1.414  -0.068  0.00  0.00    -0.029 A 
ATOM      7  C   UNL     1       1.940   0.056  -0.074  0.00  0.00    -0.015 A 
ATOM      8  C   UNL     1       0.875  -0.831  -0.015  0.00  0.00    +0.109 A 
ATOM      9  C   UNL     1      -0.421  -0.361   0.054  0.00  0.00    +0.029 A 
ATOM     10  C   UNL     1       3.338  -0.502  -0.138  0.00  0.00    +0.052 C 
ATOM     11  C   UNL     1       4.311   0.579  -0.608  0.00  0.00    +0.086 C 
ATOM     12  N   UNL     1       4.100   1.785   0.209  0.00  0.00    -0.312 NA
ATOM     13  C   UNL     1       2.824   2.417  -0.138  0.00  0.00    +0.116 C 
ATOM     14  H   UNL     1       4.139   1.566   1.194  0.00  0.00    +0.122 HD
ENDBRANCH   1   8
BRANCH   1  15
ATOM     15  N   UNL     1       2.041  -2.923   1.339  0.00  0.00    -0.188 NA
ATOM     16  H   UNL     1       2.950  -3.253   1.267  0.00  0.00    +0.148 HD
BRANCH  15  17
ATOM     17  C   UNL     1       1.430  -2.742   2.658  0.00  0.00    +0.130 C 
BRANCH  17  18
ATOM     18  C   UNL     1       2.253  -3.489   3.709  0.00  0.00    +0.201 C 
BRANCH  18  19
ATOM     19  S   UNL     1       1.497  -3.264   5.342  0.00  0.00    +0.028 S 
ATOM     20  O   UNL     1       1.617  -1.910   5.755  0.00  0.00    -0.158 OA
ATOM     21  O   UNL     1       0.242  -3.929   5.396  0.00  0.00    -0.158 OA
BRANCH  19  22
ATOM     22  N   UNL     1       2.469  -4.110   6.382  0.00  0.00    -0.208 NA
ATOM     23  H   UNL     1       3.247  -4.580   6.044  0.00  0.00    +0.144 HD
ATOM     24  H   UNL     1       2.260  -4.136   7.329  0.00  0.00    +0.144 HD
ENDBRANCH  19  22
ENDBRANCH  18  19
ENDBRANCH  17  18
ENDBRANCH  15  17
ENDBRANCH   1  15
TORSDOF 6
