REMARK  Name = ZINC16009835
REMARK  5 active torsions:
REMARK  status: ('A' for Active; 'I' for Inactive)
REMARK    1  A    between atoms: C_1  and  C_2
REMARK    2  A    between atoms: C_16  and  C_19
REMARK    3  A    between atoms: C_19  and  C_20
REMARK    4  A    between atoms: C_20  and  C_21
REMARK    5  A    between atoms: N_26  and  C_29
REMARK                            x       y       z     vdW  Elec       q    Type
REMARK                         _______ _______ _______ _____ _____    ______ ____
ROOT
ATOM      1  C   UNL     1      -1.296   1.143   0.088  0.00  0.00    +0.047 C 
ATOM      2  C   UNL     1      -1.061  -0.345   0.113  0.00  0.00    -0.011 A 
ATOM      3  C   UNL     1      -1.143  -1.075  -1.056  0.00  0.00    +0.046 A 
ATOM      4  C   UNL     1      -0.929  -2.442  -1.042  0.00  0.00    +0.021 A 
ATOM      5  C   UNL     1      -0.633  -3.082   0.148  0.00  0.00    +0.009 A 
ATOM      6  C   UNL     1      -0.551  -2.358   1.317  0.00  0.00    +0.004 A 
ATOM      7  C   UNL     1      -0.757  -0.981   1.314  0.00  0.00    +0.043 A 
ATOM      8  N   UNL     1      -0.613  -0.468   2.605  0.00  0.00    -0.283 N 
ATOM      9  C   UNL     1      -0.312  -1.428   3.501  0.00  0.00    +0.243 C 
ATOM     10  O   UNL     1      -0.131  -1.276   4.691  0.00  0.00    -0.273 OA
ATOM     11  C   UNL     1      -0.258  -2.726   2.743  0.00  0.00    +0.136 C 
ATOM     12  C   UNL     1       1.119  -3.385   2.886  0.00  0.00    +0.123 C 
ATOM     13  C   UNL     1       0.931  -4.445   4.007  0.00  0.00    +0.107 C 
ATOM     14  C   UNL     1      -0.542  -4.302   4.444  0.00  0.00    +0.068 C 
ATOM     15  N   UNL     1      -1.230  -3.708   3.259  0.00  0.00    -0.295 NA
ATOM     16  C   UNL     1       1.126  -5.758   3.283  0.00  0.00    +0.232 C 
ATOM     17  O   UNL     1       1.056  -6.856   3.793  0.00  0.00    -0.274 OA
ATOM     18  N   UNL     1       1.388  -5.520   1.993  0.00  0.00    -0.210 N 
ATOM     19  C   UNL     1       1.418  -4.210   1.654  0.00  0.00    +0.233 C 
ATOM     20  O   UNL     1       1.643  -3.763   0.549  0.00  0.00    -0.274 OA
ATOM     21 CL   UNL     1      -1.516  -0.274  -2.551  0.00  0.00    -0.083 Cl
ATOM     22  H   UNL     1      -0.718   0.469   2.831  0.00  0.00    +0.155 HD
ATOM     23  H   UNL     1      -2.089  -3.255   3.535  0.00  0.00    +0.123 HD
ENDROOT
BRANCH  18  24
ATOM     24  C   UNL     1       1.621  -6.545   1.065  0.00  0.00    +0.044 A 
ATOM     25  C   UNL     1       0.592  -7.405   0.708  0.00  0.00    +0.025 A 
ATOM     26  C   UNL     1       0.823  -8.414  -0.207  0.00  0.00    +0.022 A 
ATOM     27  C   UNL     1       2.079  -8.567  -0.768  0.00  0.00    +0.041 A 
ATOM     28  C   UNL     1       3.106  -7.710  -0.413  0.00  0.00    +0.022 A 
ATOM     29  C   UNL     1       2.878  -6.696   0.497  0.00  0.00    +0.025 A 
ATOM     30 CL   UNL     1       2.366  -9.836  -1.917  0.00  0.00    -0.084 Cl
ENDBRANCH  18  24
BRANCH  14  31
ATOM     31  C   UNL     1      -1.140  -5.675   4.757  0.00  0.00    +0.028 C 
BRANCH  31  32
ATOM     32  C   UNL     1      -2.557  -5.500   5.307  0.00  0.00    +0.097 C 
BRANCH  32  33
ATOM     33  C   UNL     1      -3.146  -6.853   5.615  0.00  0.00    +0.211 C 
ATOM     34  O   UNL     1      -2.497  -7.857   5.416  0.00  0.00    -0.276 OA
ATOM     35  N   UNL     1      -4.395  -6.946   6.113  0.00  0.00    -0.329 N 
ATOM     36  H   UNL     1      -4.915  -6.142   6.273  0.00  0.00    +0.145 HD
ATOM     37  H   UNL     1      -4.774  -7.816   6.312  0.00  0.00    +0.145 HD
ENDBRANCH  32  33
ENDBRANCH  31  32
ENDBRANCH  14  31
TORSDOF 4
