REMARK  Name = ZINC44784499
REMARK  7 active torsions:
REMARK  status: ('A' for Active; 'I' for Inactive)
REMARK    1  A    between atoms: C_1  and  C_2
REMARK    2  A    between atoms: C_2  and  N_3
REMARK    3  A    between atoms: C_7  and  C_9
REMARK    4  A    between atoms: C_9  and  N_10
REMARK    5  A    between atoms: C_11  and  C_13
REMARK    6  A    between atoms: C_13  and  C_18
REMARK    7  A    between atoms: N_19  and  O_20
REMARK                            x       y       z     vdW  Elec       q    Type
REMARK                         _______ _______ _______ _____ _____    ______ ____
ROOT
ATOM      1  N   UNL     1      -1.532  -2.182  -0.112  0.00  0.00    -0.316 N 
ATOM      2  C   UNL     1      -2.400  -2.500   0.868  0.00  0.00    +0.226 C 
ATOM      3  O   UNL     1      -2.053  -3.229   1.773  0.00  0.00    -0.275 OA
ATOM      4  H   UNL     1      -1.829  -1.658  -0.872  0.00  0.00    +0.149 HD
ENDROOT
BRANCH   2   5
ATOM      5  C   UNL     1      -3.803  -1.949   0.840  0.00  0.00    +0.105 C 
ATOM      6  C   UNL     1      -4.579  -2.541  -0.354  0.00  0.00    +0.024 C 
ATOM      7  C   UNL     1      -5.351  -3.740   0.251  0.00  0.00    +0.001 C 
ATOM      8  C   UNL     1      -5.771  -3.208   1.644  0.00  0.00    +0.001 C 
ATOM      9  C   UNL     1      -4.561  -2.373   2.111  0.00  0.00    +0.024 C 
BRANCH   5  10
ATOM     10  C   UNL     1      -3.765  -0.446   0.739  0.00  0.00    +0.147 C 
ATOM     11  N   UNL     1      -4.194   0.278   1.719  0.00  0.00    -0.076 NA
ATOM     12  N   UNL     1      -3.274   0.155  -0.399  0.00  0.00    -0.343 N 
ATOM     13  H   UNL     1      -3.030  -0.386  -1.166  0.00  0.00    +0.144 HD
ATOM     14  H   UNL     1      -3.172   1.119  -0.432  0.00  0.00    +0.144 HD
BRANCH  11  15
ATOM     15  O   UNL     1      -4.159   1.691   1.623  0.00  0.00    -0.408 OA
ATOM     16  H   UNL     1      -4.500   2.146   2.405  0.00  0.00    +0.328 HD
ENDBRANCH  11  15
ENDBRANCH   5  10
ENDBRANCH   2   5
BRANCH   1  17
ATOM     17  C   UNL     1      -0.139  -2.628  -0.030  0.00  0.00    +0.089 C 
BRANCH  17  22
ATOM     18  N   UNL     1       2.071  -2.433  -1.091  0.00  0.00    +0.382 N 
ATOM     19  C   UNL     1       2.427  -3.227  -2.287  0.00  0.00    -0.078 C 
ATOM     20  C   UNL     1       1.413  -2.784  -3.371  0.00  0.00    -0.020 C 
ATOM     21  C   UNL     1       0.122  -2.590  -2.532  0.00  0.00    -0.016 C 
ATOM     22  C   UNL     1       0.656  -2.035  -1.195  0.00  0.00    -0.051 C 
ATOM     23  H   UNL     1       2.654  -1.610  -1.046  0.00  0.00    -0.081 HD
BRANCH  18  25
ATOM     24  C   UNL     1       3.756  -3.562   0.282  0.00  0.00    -0.017 C 
ATOM     25  C   UNL     1       2.269  -3.245   0.118  0.00  0.00    -0.082 C 
ENDBRANCH  18  25
ENDBRANCH  17  22
ENDBRANCH   1  17
TORSDOF 6
