REMARK  Name = ZINC54961808
REMARK  6 active torsions:
REMARK  status: ('A' for Active; 'I' for Inactive)
REMARK    1  A    between atoms: C_1  and  C_2
REMARK    2  A    between atoms: C_2  and  C_3
REMARK    3  A    between atoms: C_2  and  C_15
REMARK    4  A    between atoms: C_2  and  N_17
REMARK    5  A    between atoms: C_3  and  N_4
REMARK    6  A    between atoms: C_6  and  C_9
REMARK                            x       y       z     vdW  Elec       q    Type
REMARK                         _______ _______ _______ _____ _____    ______ ____
ROOT
ATOM      1  N   UNL     1      -0.008  -0.140   2.444  0.00  0.00    -0.268 N 
ATOM      2  C   UNL     1      -0.426  -0.986   3.407  0.00  0.00    +0.117 A 
ATOM      3  C   UNL     1      -1.084  -0.248   4.347  0.00  0.00    +0.020 A 
ATOM      4  C   UNL     1      -1.058   1.096   3.927  0.00  0.00    +0.142 A 
ATOM      5  N   UNL     1      -0.410   1.155   2.794  0.00  0.00    -0.179 NA
ENDROOT
BRANCH   3   6
ATOM      6  C   UNL     1      -1.714  -0.768   5.588  0.00  0.00    -0.015 A 
ATOM      7  C   UNL     1      -1.659  -2.128   5.882  0.00  0.00    +0.008 A 
ATOM      8  C   UNL     1      -2.245  -2.606   7.037  0.00  0.00    +0.001 A 
ATOM      9  C   UNL     1      -2.888  -1.736   7.900  0.00  0.00    +0.000 A 
ATOM     10  C   UNL     1      -2.945  -0.385   7.612  0.00  0.00    +0.001 A 
ATOM     11  C   UNL     1      -2.356   0.104   6.464  0.00  0.00    +0.008 A 
ENDBRANCH   3   6
BRANCH   1  12
ATOM     12  C   UNL     1       0.742  -0.511   1.242  0.00  0.00    +0.180 C 
BRANCH  12  14
ATOM     13  C   UNL     1      -0.019   1.526   0.010  0.00  0.00    +0.045 C 
ATOM     14  C   UNL     1       0.002  -0.004   0.002  0.00  0.00    +0.121 C 
BRANCH  14  15
ATOM     15  N   UNL     1      -1.376  -0.512   0.012  0.00  0.00    -0.312 NA
ATOM     16  H   UNL     1      -1.389  -1.521   0.007  0.00  0.00    +0.120 HD
ATOM     17  H   UNL     1      -1.890  -0.148   0.801  0.00  0.00    +0.120 HD
ENDBRANCH  14  15
BRANCH  14  18
ATOM     18  C   UNL     1       0.691  -0.479  -1.209  0.00  0.00    +0.086 C 
ATOM     19  N   UNL     1       1.223  -0.845  -2.144  0.00  0.00    -0.195 NA
ENDBRANCH  14  18
ENDBRANCH  12  14
ENDBRANCH   1  12
TORSDOF 5
