REMARK  Name = ZINC48194339
REMARK  4 active torsions:
REMARK  status: ('A' for Active; 'I' for Inactive)
REMARK    1  A    between atoms: C_4  and  N_18
REMARK    2  A    between atoms: C_5  and  C_7
REMARK    3  A    between atoms: C_7  and  N_8
REMARK    4  A    between atoms: C_9  and  C_11
REMARK                            x       y       z     vdW  Elec       q    Type
REMARK                         _______ _______ _______ _____ _____    ______ ____
ROOT
ATOM      1  N   UNL     1       1.490  -2.679   1.334  0.00  0.00    -0.306 N 
ATOM      2  C   UNL     1       1.553  -4.004   1.569  0.00  0.00    +0.263 C 
ATOM      3  O   UNL     1       1.394  -4.791   0.656  0.00  0.00    -0.269 OA
ATOM      4  H   UNL     1       1.617  -2.051   2.063  0.00  0.00    +0.149 HD
ENDROOT
BRANCH   2   5
ATOM      5  C   UNL     1       1.817  -4.503   2.939  0.00  0.00    +0.127 A 
ATOM      6  C   UNL     1       1.887  -5.873   3.174  0.00  0.00    +0.053 A 
ATOM      7  C   UNL     1       2.134  -6.325   4.462  0.00  0.00    +0.045 A 
ATOM      8  C   UNL     1       2.303  -5.386   5.470  0.00  0.00    +0.040 A 
ATOM      9  C   UNL     1       2.220  -4.038   5.163  0.00  0.00    +0.113 A 
ATOM     10  N   UNL     1       1.990  -3.638   3.932  0.00  0.00    -0.250 NA
ATOM     11 CL   UNL     1       2.230  -8.024   4.805  0.00  0.00    -0.083 Cl
ENDBRANCH   2   5
BRANCH   1  12
ATOM     12  C   UNL     1       1.229  -2.186  -0.020  0.00  0.00    +0.142 C 
BRANCH  12  17
ATOM     13  C   UNL     1      -0.017   1.378   0.010  0.00  0.00    +0.000 A 
ATOM     14  C   UNL     1       1.171   2.085   0.002  0.00  0.00    +0.002 A 
ATOM     15  C   UNL     1       2.377   1.411  -0.013  0.00  0.00    +0.033 A 
ATOM     16  C   UNL     1       2.396   0.028  -0.020  0.00  0.00    +0.131 A 
ATOM     17  C   UNL     1       1.209  -0.679  -0.012  0.00  0.00    -0.000 A 
ATOM     18  C   UNL     1       0.002  -0.004   0.002  0.00  0.00    +0.007 A 
BRANCH  16  19
ATOM     19  N   UNL     1       3.688  -0.694  -0.037  0.00  0.00    +0.057 N 
ATOM     20  O   UNL     1       4.726  -0.076  -0.045  0.00  0.00    -0.126 OA
ATOM     21  O   UNL     1       3.704  -1.903  -0.043  0.00  0.00    -0.126 OA
ENDBRANCH  16  19
ENDBRANCH  12  17
ENDBRANCH   1  12
TORSDOF 4
