REMARK  Name = ZINC19959661
REMARK  3 active torsions:
REMARK  status: ('A' for Active; 'I' for Inactive)
REMARK    1  A    between atoms: C_1  and  C_2
REMARK    2  A    between atoms: C_7  and  C_15
REMARK    3  A    between atoms: C_17  and  N_22
REMARK                            x       y       z     vdW  Elec       q    Type
REMARK                         _______ _______ _______ _____ _____    ______ ____
ROOT
ATOM      1  C   UNL     1       3.351  -3.770  -4.954  0.00  0.00    +0.008 C 
ATOM      2  C   UNL     1       3.224  -2.941  -3.674  0.00  0.00    -0.001 C 
ATOM      3  C   UNL     1       3.743  -3.749  -2.483  0.00  0.00    +0.055 C 
ATOM      4  C   UNL     1       3.660  -2.914  -1.227  0.00  0.00    +0.020 C 
ATOM      5  C   UNL     1       3.789  -1.571  -1.276  0.00  0.00    +0.041 C 
ATOM      6  C   UNL     1       3.711  -0.709  -0.036  0.00  0.00    +0.177 C 
ATOM      7  N   UNL     1       3.813  -1.541   1.157  0.00  0.00    -0.221 N 
ATOM      8  C   UNL     1       3.686  -2.891   1.139  0.00  0.00    +0.218 A 
ATOM      9  N   UNL     1       3.820  -3.325   2.361  0.00  0.00    -0.201 NA
ATOM     10  C   UNL     1       4.038  -2.292   3.181  0.00  0.00    +0.247 A 
ATOM     11  N   UNL     1       4.044  -1.182   2.484  0.00  0.00    -0.156 NA
ATOM     12  N   UNL     1       3.455  -3.579  -0.041  0.00  0.00    -0.287 N 
ATOM     13  C   UNL     1       4.002  -0.912  -2.501  0.00  0.00    +0.163 C 
ATOM     14  O   UNL     1       4.135   0.296  -2.510  0.00  0.00    -0.292 OA
ATOM     15  C   UNL     1       4.069  -1.669  -3.798  0.00  0.00    +0.083 C 
ATOM     16  H   UNL     1       3.119  -4.626  -0.049  0.00  0.00    +0.155 HD
ENDROOT
BRANCH   6  17
ATOM     17  C   UNL     1       2.396   0.027  -0.020  0.00  0.00    +0.002 A 
ATOM     18  C   UNL     1       1.208  -0.679  -0.013  0.00  0.00    +0.040 A 
ATOM     19  C   UNL     1       0.002  -0.004   0.002  0.00  0.00    +0.127 A 
ATOM     20  C   UNL     1      -0.017   1.378   0.010  0.00  0.00    +0.034 A 
ATOM     21  C   UNL     1       1.170   2.086   0.002  0.00  0.00    +0.022 A 
ATOM     22  C   UNL     1       2.378   1.410  -0.013  0.00  0.00    +0.047 A 
ATOM     23 CL   UNL     1       3.870   2.298  -0.022  0.00  0.00    -0.083 Cl
BRANCH  19  24
ATOM     24  N   UNL     1      -1.270  -0.761   0.010  0.00  0.00    +0.056 N 
ATOM     25  O   UNL     1      -2.332  -0.166   0.023  0.00  0.00    -0.126 OA
ATOM     26  O   UNL     1      -1.253  -1.979   0.003  0.00  0.00    -0.126 OA
ENDBRANCH  19  24
ENDBRANCH   6  17
TORSDOF 2
