REMARK  Name = ZINC65742900
REMARK  23 active torsions:
REMARK  status: ('A' for Active; 'I' for Inactive)
REMARK    1  A    between atoms: C_1  and  C_2
REMARK    2  A    between atoms: C_3  and  C_31
REMARK    3  A    between atoms: C_4  and  O_13
REMARK    4  A    between atoms: C_5  and  O_11
REMARK    5  A    between atoms: C_6  and  O_9
REMARK    6  A    between atoms: C_7  and  O_8
REMARK    7  A    between atoms: O_9  and  C_10
REMARK    8  A    between atoms: O_11  and  C_12
REMARK    9  A    between atoms: O_13  and  C_14
REMARK   10  A    between atoms: C_16  and  O_30
REMARK   11  A    between atoms: C_18  and  O_29
REMARK   12  A    between atoms: C_20  and  O_28
REMARK   13  A    between atoms: C_22  and  C_25
REMARK   14  A    between atoms: C_31  and  C_32
REMARK   15  A    between atoms: C_32  and  C_33
REMARK   16  A    between atoms: C_33  and  C_34
REMARK   17  A    between atoms: C_34  and  C_35
REMARK   18  A    between atoms: C_35  and  C_36
REMARK   19  A    between atoms: C_36  and  C_37
REMARK   20  A    between atoms: C_37  and  C_38
REMARK   21  A    between atoms: C_38  and  C_39
REMARK   22  A    between atoms: C_39  and  C_40
REMARK   23  A    between atoms: C_40  and  O_41
REMARK                            x       y       z     vdW  Elec       q    Type
REMARK                         _______ _______ _______ _____ _____    ______ ____
ROOT
ATOM      1  C   UNL     1       1.014   1.883  -1.115  0.00  0.00    +0.048 C 
ATOM      2  C   UNL     1       0.606   0.483  -0.734  0.00  0.00    +0.002 A 
ATOM      3  C   UNL     1       0.453  -0.482  -1.713  0.00  0.00    +0.005 A 
ATOM      4  C   UNL     1       0.077  -1.770  -1.367  0.00  0.00    +0.173 A 
ATOM      5  C   UNL     1      -0.147  -2.095  -0.034  0.00  0.00    +0.208 A 
ATOM      6  C   UNL     1       0.007  -1.126   0.949  0.00  0.00    +0.207 A 
ATOM      7  C   UNL     1       0.389   0.163   0.597  0.00  0.00    +0.166 A 
ENDROOT
BRANCH   7   8
ATOM      8  O   UNL     1       0.546   1.113   1.559  0.00  0.00    -0.503 OA
ATOM      9  H   UNL     1      -0.259   1.613   1.752  0.00  0.00    +0.292 HD
ENDBRANCH   7   8
BRANCH   5  10
ATOM     10  O   UNL     1      -0.517  -3.359   0.307  0.00  0.00    -0.488 OA
ATOM     11  C   UNL     1       0.532  -4.300   0.546  0.00  0.00    +0.277 C 
ENDBRANCH   5  10
BRANCH   6  12
ATOM     12  O   UNL     1      -0.212  -1.440   2.255  0.00  0.00    -0.488 OA
ATOM     13  C   UNL     1       0.930  -1.794   3.037  0.00  0.00    +0.277 C 
ENDBRANCH   6  12
BRANCH   4  14
ATOM     14  O   UNL     1      -0.074  -2.717  -2.333  0.00  0.00    -0.457 OA
BRANCH  14  15
ATOM     15  C   UNL     1      -1.327  -2.752  -3.018  0.00  0.00    +0.340 C 
ATOM     16  C   UNL     1      -1.189  -3.587  -4.294  0.00  0.00    +0.214 C 
ATOM     17  C   UNL     1      -0.826  -5.026  -3.916  0.00  0.00    +0.180 C 
ATOM     18  C   UNL     1      -1.897  -5.580  -2.971  0.00  0.00    +0.186 C 
ATOM     19  C   UNL     1      -2.008  -4.669  -1.747  0.00  0.00    +0.266 C 
ATOM     20  O   UNL     1      -2.317  -3.339  -2.170  0.00  0.00    -0.322 OA
BRANCH  19  21
ATOM     21  C   UNL     1      -3.100  -5.175  -0.841  0.00  0.00    +0.387 C 
ATOM     22  O   UNL     1      -2.982  -6.255  -0.287  0.00  0.00    -0.243 OA
ATOM     23  O   UNL     1      -4.103  -4.504  -0.661  0.00  0.00    -0.243 OA
ENDBRANCH  19  21
BRANCH  16  24
ATOM     24  O   UNL     1      -0.161  -3.034  -5.117  0.00  0.00    -0.383 OA
ATOM     25  H   UNL     1      -0.324  -2.121  -5.391  0.00  0.00    +0.210 HD
ENDBRANCH  16  24
BRANCH  17  26
ATOM     26  O   UNL     1      -0.764  -5.829  -5.096  0.00  0.00    -0.386 OA
ATOM     27  H   UNL     1      -0.539  -6.755  -4.931  0.00  0.00    +0.210 HD
ENDBRANCH  17  26
BRANCH  18  28
ATOM     28  O   UNL     1      -3.154  -5.626  -3.650  0.00  0.00    -0.386 OA
ATOM     29  H   UNL     1      -3.880  -5.968  -3.110  0.00  0.00    +0.210 HD
ENDBRANCH  18  28
ENDBRANCH  14  15
ENDBRANCH   4  14
BRANCH   3  30
ATOM     30  C   UNL     1       0.695  -0.132  -3.159  0.00  0.00    +0.039 C 
BRANCH  30  31
ATOM     31  C   UNL     1       2.188  -0.254  -3.470  0.00  0.00    +0.005 C 
BRANCH  31  32
ATOM     32  C   UNL     1       2.452   0.220  -4.900  0.00  0.00    +0.000 C 
BRANCH  32  33
ATOM     33  C   UNL     1       3.921  -0.017  -5.254  0.00  0.00    +0.000 C 
BRANCH  33  34
ATOM     34  C   UNL     1       4.214   0.567  -6.637  0.00  0.00    +0.000 C 
BRANCH  34  35
ATOM     35  C   UNL     1       5.709   0.440  -6.939  0.00  0.00    +0.000 C 
BRANCH  35  36
ATOM     36  C   UNL     1       6.002   1.024  -8.322  0.00  0.00    +0.000 C 
BRANCH  36  37
ATOM     37  C   UNL     1       7.496   0.897  -8.624  0.00  0.00    +0.002 C 
BRANCH  37  38
ATOM     38  C   UNL     1       7.789   1.481 -10.007  0.00  0.00    +0.028 C 
BRANCH  38  39
ATOM     39  C   UNL     1       9.283   1.354 -10.309  0.00  0.00    +0.156 C 
BRANCH  39  40
ATOM     40  O   UNL     1       9.557   1.899 -11.601  0.00  0.00    -0.395 OA
ATOM     41  H   UNL     1      10.488   1.853 -11.859  0.00  0.00    +0.209 HD
ENDBRANCH  39  40
ENDBRANCH  38  39
ENDBRANCH  37  38
ENDBRANCH  36  37
ENDBRANCH  35  36
ENDBRANCH  34  35
ENDBRANCH  33  34
ENDBRANCH  32  33
ENDBRANCH  31  32
ENDBRANCH  30  31
ENDBRANCH   3  30
TORSDOF 20
