REMARK  Name = ZINC67272885
REMARK  8 active torsions:
REMARK  status: ('A' for Active; 'I' for Inactive)
REMARK    1  A    between atoms: C_1  and  C_2
REMARK    2  A    between atoms: N_11  and  C_15
REMARK    3  A    between atoms: C_15  and  C_16
REMARK    4  A    between atoms: N_18  and  C_19
REMARK    5  A    between atoms: C_19  and  C_20
REMARK    6  A    between atoms: C_20  and  C_22
REMARK    7  A    between atoms: C_20  and  N_23
REMARK    8  A    between atoms: C_26  and  C_29
REMARK                            x       y       z     vdW  Elec       q    Type
REMARK                         _______ _______ _______ _____ _____    ______ ____
ROOT
ATOM      1  C   UNL     1       3.488   1.503   2.234  0.00  0.00    +0.213 C 
ENDROOT
BRANCH   1  11
ATOM      2  C   UNL     1       0.677   1.678  -1.192  0.00  0.00    +0.010 C 
ATOM      3  C   UNL     1       0.810   0.165  -1.373  0.00  0.00    +0.018 C 
ATOM      4  C   UNL     1       1.759  -0.128  -2.538  0.00  0.00    +0.006 C 
ATOM      5  C   UNL     1       1.907  -1.641  -2.707  0.00  0.00    +0.000 C 
ATOM      6  C   UNL     1       2.487  -2.243  -1.425  0.00  0.00    +0.003 C 
ATOM      7  C   UNL     1       1.541  -1.960  -0.256  0.00  0.00    +0.035 C 
ATOM      8  C   UNL     1       1.365  -0.454  -0.095  0.00  0.00    +0.115 C 
ATOM      9  C   UNL     1       2.678   0.195   0.279  0.00  0.00    +0.247 C 
ATOM     10  O   UNL     1       3.702   0.207  -0.370  0.00  0.00    -0.273 OA
ATOM     11  N   UNL     1       2.470   0.759   1.486  0.00  0.00    -0.215 N 
ATOM     12  C   UNL     1       1.219   0.555   1.918  0.00  0.00    +0.310 C 
ATOM     13  O   UNL     1       0.795   0.967   2.979  0.00  0.00    -0.252 OA
ATOM     14  N   UNL     1       0.485  -0.158   1.043  0.00  0.00    -0.285 N 
ATOM     15  H   UNL     1      -0.443  -0.424   1.144  0.00  0.00    +0.151 HD
ENDBRANCH   1  11
BRANCH   1  16
ATOM     16  C   UNL     1       3.422   2.960   1.857  0.00  0.00    +0.231 C 
ATOM     17  O   UNL     1       2.607   3.341   1.045  0.00  0.00    -0.274 OA
ATOM     18  N   UNL     1       4.271   3.841   2.424  0.00  0.00    -0.316 N 
ATOM     19  H   UNL     1       4.924   3.537   3.074  0.00  0.00    +0.149 HD
BRANCH  18  20
ATOM     20  C   UNL     1       4.208   5.258   2.058  0.00  0.00    +0.089 C 
BRANCH  20  21
ATOM     21  C   UNL     1       5.354   6.012   2.735  0.00  0.00    -0.054 C 
ATOM     22  C   UNL     1       5.343   7.473   2.281  0.00  0.00    -0.012 C 
BRANCH  21  23
ATOM     23  N   UNL     1       6.634   5.393   2.364  0.00  0.00    +0.382 N 
ATOM     24  C   UNL     1       6.859   5.565   0.923  0.00  0.00    -0.078 C 
ATOM     25  C   UNL     1       8.150   4.852   0.516  0.00  0.00    -0.016 C 
ATOM     26  C   UNL     1       9.325   5.453   1.293  0.00  0.00    -0.018 C 
ATOM     27  C   UNL     1       9.045   5.335   2.794  0.00  0.00    -0.016 C 
ATOM     28  C   UNL     1       7.721   6.030   3.117  0.00  0.00    -0.078 C 
ATOM     29  C   UNL     1      10.608   4.693   0.951  0.00  0.00    +0.007 C 
ATOM     30  H   UNL     1       6.606   4.408   2.583  0.00  0.00    -0.081 HD
ENDBRANCH  21  23
ENDBRANCH  20  21
ENDBRANCH  18  20
ENDBRANCH   1  16
TORSDOF 5
