REMARK  Name = ZINC36217419
REMARK  9 active torsions:
REMARK  status: ('A' for Active; 'I' for Inactive)
REMARK    1  A    between atoms: C_1  and  C_2
REMARK    2  A    between atoms: C_6  and  C_8
REMARK    3  A    between atoms: C_8  and  N_9
REMARK    4  A    between atoms: C_10  and  C_31
REMARK    5  A    between atoms: C_12  and  C_17
REMARK    6  A    between atoms: C_20  and  N_23
REMARK    7  A    between atoms: C_24  and  C_26
REMARK    8  A    between atoms: N_33  and  C_34
REMARK    9  A    between atoms: C_34  and  C_35
REMARK                            x       y       z     vdW  Elec       q    Type
REMARK                         _______ _______ _______ _____ _____    ______ ____
ROOT
ATOM      1  N   UNL     1       1.403  -3.355   2.749  0.00  0.00    -0.248 N 
ATOM      2  C   UNL     1       2.389  -4.429   2.517  0.00  0.00    +0.210 C 
ATOM      3  C   UNL     1       3.715  -3.753   2.936  0.00  0.00    +0.238 C 
ATOM      4  O   UNL     1       3.257  -2.729   3.840  0.00  0.00    -0.440 OA
ATOM      5  C   UNL     1       1.998  -2.408   3.499  0.00  0.00    +0.405 C 
ATOM      6  O   UNL     1       1.453  -1.375   3.833  0.00  0.00    -0.226 OA
ENDROOT
BRANCH   3   7
ATOM      7  C   UNL     1       4.410  -3.147   1.744  0.00  0.00    -0.005 A 
ATOM      8  C   UNL     1       4.074  -1.874   1.322  0.00  0.00    +0.009 A 
ATOM      9  C   UNL     1       4.709  -1.316   0.231  0.00  0.00    +0.024 A 
ATOM     10  C   UNL     1       5.687  -2.035  -0.444  0.00  0.00    +0.034 A 
ATOM     11  C   UNL     1       6.023  -3.313  -0.019  0.00  0.00    +0.024 A 
ATOM     12  C   UNL     1       5.388  -3.864   1.077  0.00  0.00    +0.009 A 
BRANCH  10  13
ATOM     13  N   UNL     1       6.332  -1.473  -1.551  0.00  0.00    -0.281 N 
ATOM     14  C   UNL     1       6.728  -2.259  -2.571  0.00  0.00    +0.255 C 
ATOM     15  O   UNL     1       6.439  -3.441  -2.576  0.00  0.00    -0.269 OA
ATOM     16  H   UNL     1       6.495  -0.517  -1.583  0.00  0.00    +0.155 HD
BRANCH  14  17
ATOM     17  C   UNL     1       7.505  -1.690  -3.676  0.00  0.00    +0.074 A 
ATOM     18  C   UNL     1       7.999  -2.316  -4.811  0.00  0.00    +0.021 A 
ATOM     19  C   UNL     1       8.699  -1.512  -5.678  0.00  0.00    +0.008 A 
ATOM     20  C   UNL     1       8.857  -0.199  -5.379  0.00  0.00    +0.046 A 
ATOM     21  S   UNL     1       8.055  -0.011  -3.915  0.00  0.00    -0.092 S 
ENDBRANCH  14  17
ENDBRANCH  10  13
ENDBRANCH   3   7
BRANCH   2  22
ATOM     22  C   UNL     1       2.094  -5.625   3.385  0.00  0.00    +0.238 C 
ATOM     23  O   UNL     1       1.384  -5.505   4.361  0.00  0.00    -0.274 OA
ATOM     24  N   UNL     1       2.618  -6.828   3.077  0.00  0.00    -0.311 N 
ATOM     25  H   UNL     1       3.186  -6.924   2.296  0.00  0.00    +0.149 HD
BRANCH  24  26
ATOM     26  C   UNL     1       2.331  -7.990   3.921  0.00  0.00    +0.135 C 
BRANCH  26  27
ATOM     27  C   UNL     1       3.043  -9.220   3.354  0.00  0.00    +0.135 C 
ATOM     28  C   UNL     1       2.650 -10.473   4.166  0.00  0.00    +0.035 C 
ATOM     29  C   UNL     1       3.993 -11.249   4.245  0.00  0.00    +0.031 C 
ATOM     30  C   UNL     1       5.005 -10.078   4.321  0.00  0.00    +0.160 C 
ATOM     31  O   UNL     1       4.462  -9.056   3.467  0.00  0.00    -0.375 OA
ENDBRANCH  26  27
ENDBRANCH  24  26
ENDBRANCH   2  22
BRANCH   1  32
ATOM     32  C   UNL     1       0.027  -3.322   2.249  0.00  0.00    +0.147 C 
BRANCH  32  38
ATOM     33  C   UNL     1      -0.403   0.814  -0.536  0.00  0.00    +0.044 C 
ATOM     34  C   UNL     1      -0.207  -0.677  -0.435  0.00  0.00    -0.050 A 
ATOM     35  C   UNL     1      -0.052  -1.433  -1.582  0.00  0.00    +0.003 A 
ATOM     36  C   UNL     1       0.128  -2.800  -1.489  0.00  0.00    +0.001 A 
ATOM     37  C   UNL     1       0.153  -3.412  -0.249  0.00  0.00    +0.005 A 
ATOM     38  C   UNL     1      -0.001  -2.656   0.897  0.00  0.00    -0.030 A 
ATOM     39  C   UNL     1      -0.176  -1.288   0.805  0.00  0.00    +0.008 A 
ENDBRANCH  32  38
ENDBRANCH   1  32
TORSDOF 8
