REMARK  Name = ZINC08727498
REMARK  5 active torsions:
REMARK  status: ('A' for Active; 'I' for Inactive)
REMARK    1  A    between atoms: C_1  and  C_2
REMARK    2  A    between atoms: C_7  and  N_8
REMARK    3  A    between atoms: C_9  and  C_11
REMARK    4  A    between atoms: C_11  and  N_12
REMARK    5  A    between atoms: C_20  and  C_22
REMARK                            x       y       z     vdW  Elec       q    Type
REMARK                         _______ _______ _______ _____ _____    ______ ____
ROOT
ATOM      1  N   UNL     1      -3.234   0.365   3.161  0.00  0.00    -0.215 N 
ATOM      2  C   UNL     1      -2.893   1.499   2.515  0.00  0.00    +0.247 C 
ATOM      3  O   UNL     1      -3.117   2.638   2.864  0.00  0.00    -0.273 OA
ATOM      4  C   UNL     1      -2.172   1.051   1.265  0.00  0.00    +0.115 C 
ATOM      5  C   UNL     1      -2.919   1.520   0.021  0.00  0.00    +0.035 C 
ATOM      6  C   UNL     1      -2.191   1.025  -1.231  0.00  0.00    +0.003 C 
ATOM      7  C   UNL     1      -0.761   1.571  -1.237  0.00  0.00    +0.000 C 
ATOM      8  C   UNL     1      -0.018   1.075   0.004  0.00  0.00    +0.006 C 
ATOM      9  C   UNL     1      -0.738   1.570   1.261  0.00  0.00    +0.018 C 
ATOM     10  C   UNL     1      -0.006   1.058   2.503  0.00  0.00    +0.010 C 
ATOM     11  N   UNL     1      -2.187  -0.415   1.351  0.00  0.00    -0.285 N 
ATOM     12  C   UNL     1      -2.829  -0.723   2.494  0.00  0.00    +0.310 C 
ATOM     13  O   UNL     1      -3.021  -1.861   2.876  0.00  0.00    -0.252 OA
ATOM     14  H   UNL     1      -1.808  -1.039   0.711  0.00  0.00    +0.151 HD
ENDROOT
BRANCH   1  15
ATOM     15  C   UNL     1      -3.956   0.328   4.434  0.00  0.00    +0.214 C 
BRANCH  15  17
ATOM     16  N   UNL     1      -3.409   0.315   6.847  0.00  0.00    -0.284 N 
ATOM     17  C   UNL     1      -2.969   0.344   5.573  0.00  0.00    +0.235 C 
ATOM     18  O   UNL     1      -1.779   0.382   5.343  0.00  0.00    -0.274 OA
ATOM     19  H   UNL     1      -4.359   0.366   7.033  0.00  0.00    +0.155 HD
BRANCH  16  26
ATOM     20  C   UNL     1      -4.177   1.319   9.395  0.00  0.00    +0.046 C 
ATOM     21  C   UNL     1      -2.828   0.690   9.161  0.00  0.00    -0.027 A 
ATOM     22  C   UNL     1      -1.925   0.584  10.201  0.00  0.00    +0.043 A 
ATOM     23  C   UNL     1      -0.683   0.011   9.985  0.00  0.00    +0.124 A 
ATOM     24  C   UNL     1      -0.345  -0.461   8.728  0.00  0.00    +0.040 A 
ATOM     25  C   UNL     1      -1.247  -0.361   7.687  0.00  0.00    +0.026 A 
ATOM     26  C   UNL     1      -2.493   0.213   7.901  0.00  0.00    +0.037 A 
ATOM     27  F   UNL     1       0.201  -0.087  11.003  0.00  0.00    -0.205 F 
ENDBRANCH  16  26
ENDBRANCH  15  17
ENDBRANCH   1  15
TORSDOF 3
