REMARK  Name = ZINC21040731
REMARK  7 active torsions:
REMARK  status: ('A' for Active; 'I' for Inactive)
REMARK    1  A    between atoms: C_4  and  O_30
REMARK    2  A    between atoms: C_5  and  C_7
REMARK    3  A    between atoms: N_8  and  N_9
REMARK    4  A    between atoms: C_14  and  S_16
REMARK    5  A    between atoms: S_16  and  C_17
REMARK    6  A    between atoms: C_17  and  C_18
REMARK    7  A    between atoms: C_23  and  N_27
REMARK                            x       y       z     vdW  Elec       q    Type
REMARK                         _______ _______ _______ _____ _____    ______ ____
ROOT
ATOM      1  N   UNL     1       2.412  -4.186  -0.047  0.00  0.00    -0.205 N 
ATOM      2  C   UNL     1       3.622  -4.855  -0.063  0.00  0.00    +0.232 A 
ATOM      3  N   UNL     1       3.788  -6.194  -0.079  0.00  0.00    -0.245 N 
ATOM      4  H   UNL     1       3.089  -6.866  -0.080  0.00  0.00    +0.192 HD
ATOM      5  N   UNL     1       5.174  -6.423  -0.093  0.00  0.00    -0.144 NA
ATOM      6  C   UNL     1       5.755  -5.247  -0.086  0.00  0.00    +0.210 A 
ATOM      7  N   UNL     1       4.815  -4.297  -0.073  0.00  0.00    -0.186 NA
ATOM      8  H   UNL     1       1.581  -4.686  -0.041  0.00  0.00    +0.177 HD
ENDROOT
BRANCH   1  10
ATOM      9  C   UNL     1       1.250  -2.157  -0.023  0.00  0.00    +0.142 C 
ATOM     10  N   UNL     1       2.386  -2.785  -0.038  0.00  0.00    -0.187 NA
BRANCH   9  15
ATOM     11  C   UNL     1      -0.017   1.375   0.010  0.00  0.00    +0.001 A 
ATOM     12  C   UNL     1       1.169   2.089   0.002  0.00  0.00    +0.004 A 
ATOM     13  C   UNL     1       2.383   1.428  -0.013  0.00  0.00    +0.046 A 
ATOM     14  C   UNL     1       2.420   0.044  -0.022  0.00  0.00    +0.125 A 
ATOM     15  C   UNL     1       1.222  -0.684  -0.014  0.00  0.00    +0.036 A 
ATOM     16  C   UNL     1       0.002  -0.004   0.002  0.00  0.00    +0.013 A 
BRANCH  14  17
ATOM     17  O   UNL     1       3.613  -0.607  -0.038  0.00  0.00    -0.506 OA
ATOM     18  H   UNL     1       3.967  -0.800   0.841  0.00  0.00    +0.292 HD
ENDBRANCH  14  17
ENDBRANCH   9  15
ENDBRANCH   1  10
BRANCH   6  19
ATOM     19  S   UNL     1       7.495  -4.966  -0.098  0.00  0.00    -0.077 S 
BRANCH  19  20
ATOM     20  C   UNL     1       8.209  -6.633  -0.121  0.00  0.00    +0.151 C 
BRANCH  20  21
ATOM     21  C   UNL     1       9.713  -6.535  -0.133  0.00  0.00    +0.119 A 
ATOM     22  N   UNL     1      10.447  -6.470  -1.206  0.00  0.00    -0.232 NA
ATOM     23  C   UNL     1      11.757  -6.390  -0.858  0.00  0.00    +0.089 A 
ATOM     24  C   UNL     1      12.945  -6.301  -1.589  0.00  0.00    +0.032 A 
ATOM     25  C   UNL     1      14.143  -6.235  -0.935  0.00  0.00    +0.035 A 
ATOM     26  C   UNL     1      14.195  -6.254   0.451  0.00  0.00    +0.128 A 
ATOM     27  C   UNL     1      13.036  -6.342   1.193  0.00  0.00    +0.060 A 
ATOM     28  C   UNL     1      11.810  -6.410   0.546  0.00  0.00    +0.068 A 
ATOM     29  N   UNL     1      10.500  -6.496   0.975  0.00  0.00    -0.341 N 
ATOM     30  H   UNL     1      10.198  -6.526   1.897  0.00  0.00    +0.167 HD
BRANCH  26  31
ATOM     31  N   UNL     1      15.504  -6.181   1.139  0.00  0.00    +0.056 N 
ATOM     32  O   UNL     1      16.523  -6.104   0.492  0.00  0.00    -0.126 OA
ATOM     33  O   UNL     1      15.554  -6.198   2.346  0.00  0.00    -0.126 OA
ENDBRANCH  26  31
ENDBRANCH  20  21
ENDBRANCH  19  20
ENDBRANCH   6  19
TORSDOF 7
