REMARK  Name = ZINC40758323
REMARK  4 active torsions:
REMARK  status: ('A' for Active; 'I' for Inactive)
REMARK    1  A    between atoms: C_9  and  N_11
REMARK    2  A    between atoms: C_13  and  N_26
REMARK    3  A    between atoms: C_14  and  N_18
REMARK    4  A    between atoms: N_18  and  C_19
REMARK                            x       y       z     vdW  Elec       q    Type
REMARK                         _______ _______ _______ _____ _____    ______ ____
ROOT
ATOM      1  N   UNL     1       1.188  -2.061   0.493  0.00  0.00    -0.296 N 
ATOM      2  C   UNL     1       0.001  -2.777   0.582  0.00  0.00    +0.149 A 
ATOM      3  C   UNL     1      -0.001  -4.167   0.442  0.00  0.00    +0.106 A 
ATOM      4  C   UNL     1      -1.222  -4.837   0.540  0.00  0.00    +0.149 A 
ATOM      5  N   UNL     1      -2.329  -4.132   0.762  0.00  0.00    -0.219 NA
ATOM      6  C   UNL     1      -2.283  -2.821   0.888  0.00  0.00    +0.225 A 
ATOM      7  N   UNL     1      -1.152  -2.151   0.808  0.00  0.00    -0.219 NA
ATOM      8  H   UNL     1       2.034  -2.530   0.416  0.00  0.00    +0.154 HD
ENDROOT
BRANCH   1  17
ATOM      9  C   UNL     1      -0.031   1.405   0.224  0.00  0.00    +0.003 A 
ATOM     10  C   UNL     1       1.076   2.131   0.545  0.00  0.00    +0.010 A 
ATOM     11  C   UNL     1       2.275   1.475   0.866  0.00  0.00    +0.002 A 
ATOM     12  C   UNL     1       3.436   2.198   1.203  0.00  0.00    +0.011 A 
ATOM     13  C   UNL     1       4.568   1.495   1.504  0.00  0.00    +0.020 A 
ATOM     14  C   UNL     1       4.550   0.102   1.471  0.00  0.00    +0.111 A 
ATOM     15  N   UNL     1       3.467  -0.567   1.156  0.00  0.00    -0.253 NA
ATOM     16  C   UNL     1       2.328   0.060   0.852  0.00  0.00    +0.092 A 
ATOM     17  C   UNL     1       1.165  -0.666   0.515  0.00  0.00    +0.059 A 
ATOM     18  C   UNL     1       0.006   0.014   0.207  0.00  0.00    +0.025 A 
ENDBRANCH   1  17
BRANCH   3  19
ATOM     19  N   UNL     1       1.191  -4.870   0.209  0.00  0.00    -0.353 N 
ATOM     20  H   UNL     1       2.032  -4.390   0.143  0.00  0.00    +0.143 HD
ATOM     21  H   UNL     1       1.174  -5.835   0.114  0.00  0.00    +0.143 HD
ENDBRANCH   3  19
BRANCH   4  22
ATOM     22  N   UNL     1      -1.280  -6.220   0.408  0.00  0.00    -0.298 N 
ATOM     23  H   UNL     1      -0.463  -6.733   0.313  0.00  0.00    +0.154 HD
BRANCH  22  24
ATOM     24  C   UNL     1      -2.517  -6.871   0.413  0.00  0.00    +0.032 A 
ATOM     25  C   UNL     1      -2.647  -8.114   1.020  0.00  0.00    +0.024 A 
ATOM     26  C   UNL     1      -3.871  -8.755   1.023  0.00  0.00    +0.017 A 
ATOM     27  C   UNL     1      -4.967  -8.159   0.423  0.00  0.00    +0.018 A 
ATOM     28  C   UNL     1      -4.840  -6.922  -0.182  0.00  0.00    +0.017 A 
ATOM     29  C   UNL     1      -3.620  -6.274  -0.184  0.00  0.00    +0.024 A 
ATOM     30 BR   UNL     1      -6.640  -9.040   0.429  0.00  0.00    -0.050 Br
ENDBRANCH  22  24
ENDBRANCH   4  22
TORSDOF 4
