REMARK  Name = ZINC66205678
REMARK  7 active torsions:
REMARK  status: ('A' for Active; 'I' for Inactive)
REMARK    1  A    between atoms: C_1  and  C_2
REMARK    2  A    between atoms: C_2  and  N_3
REMARK    3  A    between atoms: N_3  and  C_4
REMARK    4  A    between atoms: C_4  and  C_5
REMARK    5  A    between atoms: N_14  and  C_15
REMARK    6  A    between atoms: C_15  and  C_16
REMARK    7  A    between atoms: C_18  and  C_21
REMARK                            x       y       z     vdW  Elec       q    Type
REMARK                         _______ _______ _______ _____ _____    ______ ____
ROOT
ATOM      1  N   UNL     1       0.677  -0.500  -1.191  0.00  0.00    -0.282 N 
ATOM      2  C   UNL     1      -0.058  -0.769  -2.289  0.00  0.00    +0.303 C 
ATOM      3  O   UNL     1       0.468  -1.269  -3.264  0.00  0.00    -0.253 OA
ATOM      4  N   UNL     1      -1.375  -0.483  -2.305  0.00  0.00    -0.290 N 
ATOM      5  H   UNL     1      -1.794  -0.084  -1.527  0.00  0.00    +0.151 HD
ENDROOT
BRANCH   1   7
ATOM      6  C   UNL     1      -0.018   1.526  -0.011  0.00  0.00    +0.024 C 
ATOM      7  C   UNL     1       0.025  -0.003   0.023  0.00  0.00    +0.106 C 
ENDBRANCH   1   7
BRANCH   1   8
ATOM      8  C   UNL     1       2.127  -0.705  -1.212  0.00  0.00    +0.145 C 
BRANCH   8   9
ATOM      9  C   UNL     1       2.450  -2.067  -0.654  0.00  0.00    -0.012 A 
ATOM     10  C   UNL     1       1.429  -2.938  -0.321  0.00  0.00    +0.006 A 
ATOM     11  C   UNL     1       1.725  -4.187   0.190  0.00  0.00    +0.000 A 
ATOM     12  C   UNL     1       3.042  -4.567   0.368  0.00  0.00    +0.001 A 
ATOM     13  C   UNL     1       4.064  -3.698   0.036  0.00  0.00    +0.020 A 
ATOM     14  C   UNL     1       3.768  -2.449  -0.481  0.00  0.00    +0.046 A 
ATOM     15 CL   UNL     1       5.051  -1.359  -0.905  0.00  0.00    -0.083 Cl
ENDBRANCH   8   9
ENDBRANCH   1   8
BRANCH   4  16
ATOM     16  C   UNL     1      -2.173  -0.776  -3.498  0.00  0.00    +0.204 C 
BRANCH  16  17
ATOM     17  C   UNL     1      -3.603  -0.365  -3.259  0.00  0.00    +0.245 A 
ATOM     18  N   UNL     1      -4.116   0.805  -3.522  0.00  0.00    -0.195 NA
ATOM     19  C   UNL     1      -5.410   0.825  -3.185  0.00  0.00    +0.169 A 
ATOM     20  N   UNL     1      -5.738  -0.339  -2.702  0.00  0.00    -0.062 NA
ATOM     21  O   UNL     1      -4.567  -1.139  -2.746  0.00  0.00    -0.336 OA
ATOM     22  C   UNL     1      -6.338   2.003  -3.340  0.00  0.00    +0.091 C 
ENDBRANCH  16  17
ENDBRANCH   4  16
TORSDOF 5
