REMARK  Name = ZINC04287753
REMARK  4 active torsions:
REMARK  status: ('A' for Active; 'I' for Inactive)
REMARK    1  A    between atoms: C_1  and  C_2
REMARK    2  A    between atoms: C_9  and  C_14
REMARK    3  A    between atoms: C_14  and  N_15
REMARK    4  A    between atoms: C_21  and  C_24
REMARK                            x       y       z     vdW  Elec       q    Type
REMARK                         _______ _______ _______ _____ _____    ______ ____
ROOT
ATOM      1  C   UNL     1       0.077  -5.037   1.252  0.00  0.00    +0.154 C 
ENDROOT
BRANCH   1   2
ATOM      2  N   UNL     1       1.463  -5.277   1.659  0.00  0.00    -0.220 N 
ATOM      3  C   UNL     1       2.224  -6.292   1.199  0.00  0.00    +0.247 C 
ATOM      4  O   UNL     1       1.903  -7.146   0.401  0.00  0.00    -0.273 OA
ATOM      5  C   UNL     1       3.561  -6.139   1.888  0.00  0.00    +0.113 C 
ATOM      6  C   UNL     1       3.862  -7.366   2.742  0.00  0.00    +0.035 C 
ATOM      7  C   UNL     1       3.992  -8.596   1.841  0.00  0.00    +0.006 C 
ATOM      8  C   UNL     1       5.118  -8.369   0.829  0.00  0.00    -0.014 C 
ATOM      9  C   UNL     1       4.793  -7.148  -0.033  0.00  0.00    +0.006 C 
ATOM     10  C   UNL     1       4.665  -5.912   0.861  0.00  0.00    +0.035 C 
ATOM     11  C   UNL     1       5.256  -9.602  -0.065  0.00  0.00    +0.007 C 
ATOM     12  N   UNL     1       3.392  -4.951   2.734  0.00  0.00    -0.285 N 
ATOM     13  C   UNL     1       2.135  -4.513   2.530  0.00  0.00    +0.310 C 
ATOM     14  O   UNL     1       1.662  -3.535   3.076  0.00  0.00    -0.252 OA
ATOM     15  H   UNL     1       4.056  -4.557   3.322  0.00  0.00    +0.151 HD
ENDBRANCH   1   2
BRANCH   1  24
ATOM     16  C   UNL     1       0.666  -5.545  -5.360  0.00  0.00    +0.045 C 
ATOM     17  C   UNL     1       0.504  -5.146  -3.916  0.00  0.00    -0.029 A 
ATOM     18  C   UNL     1       0.324  -3.817  -3.591  0.00  0.00    +0.051 A 
ATOM     19  C   UNL     1       0.174  -3.442  -2.262  0.00  0.00    +0.140 A 
ATOM     20  C   UNL     1       0.207  -4.426  -1.258  0.00  0.00    +0.024 A 
ATOM     21  C   UNL     1       0.391  -5.768  -1.601  0.00  0.00    +0.032 A 
ATOM     22  C   UNL     1       0.532  -6.119  -2.926  0.00  0.00    +0.045 A 
ATOM     23 CL   UNL     1       0.752  -7.785  -3.360  0.00  0.00    -0.083 Cl
ATOM     24  C   UNL     1       0.048  -4.019   0.142  0.00  0.00    -0.012 A 
ATOM     25  C   UNL     1      -0.126  -2.700   0.410  0.00  0.00    +0.098 A 
ATOM     26  C   UNL     1      -0.149  -1.766  -0.649  0.00  0.00    +0.338 A 
ATOM     27  O   UNL     1      -0.306  -0.585  -0.395  0.00  0.00    -0.245 OA
ATOM     28  O   UNL     1      -0.003  -2.146  -1.927  0.00  0.00    -0.422 OA
ENDBRANCH   1  24
TORSDOF 2
