REMARK  Name = ZINC39693504
REMARK  10 active torsions:
REMARK  status: ('A' for Active; 'I' for Inactive)
REMARK    1  A    between atoms: C_1  and  C_2
REMARK    2  A    between atoms: C_2  and  C_3
REMARK    3  A    between atoms: C_2  and  C_4
REMARK    4  A    between atoms: C_2  and  O_5
REMARK    5  A    between atoms: O_5  and  C_6
REMARK    6  A    between atoms: N_8  and  C_9
REMARK    7  A    between atoms: C_9  and  C_10
REMARK    8  A    between atoms: C_10  and  N_11
REMARK    9  A    between atoms: C_12  and  C_14
REMARK   10  A    between atoms: C_25  and  C_27
REMARK                            x       y       z     vdW  Elec       q    Type
REMARK                         _______ _______ _______ _____ _____    ______ ____
ROOT
ATOM      1  C   UNL     1       8.612  -0.467  -5.162  0.00  0.00    +0.100 C 
ATOM      2  C   UNL     1       8.470   1.052  -5.403  0.00  0.00    +0.121 C 
ATOM      3  N   UNL     1       9.405   1.344  -6.515  0.00  0.00    -0.296 N 
ATOM      4  C   UNL     1       9.263   0.187  -7.430  0.00  0.00    +0.115 C 
ATOM      5  C   UNL     1       9.132  -1.032  -6.494  0.00  0.00    -0.004 C 
ATOM      6  C   UNL     1      10.493  -1.691  -6.293  0.00  0.00    -0.010 C 
ATOM      7  C   UNL     1      10.964  -2.295  -7.620  0.00  0.00    -0.082 C 
ATOM      8  N   UNL     1       9.983  -3.282  -8.085  0.00  0.00    +0.379 N 
ATOM      9  C   UNL     1       8.701  -2.623  -8.364  0.00  0.00    -0.082 C 
ATOM     10  C   UNL     1       8.135  -2.033  -7.070  0.00  0.00    -0.010 C 
ATOM     11  C   UNL     1      10.205   2.419  -6.660  0.00  0.00    +0.249 C 
ATOM     12  O   UNL     1      10.852   2.562  -7.680  0.00  0.00    -0.270 OA
ATOM     13  H   UNL     1      10.324  -3.722  -8.927  0.00  0.00    -0.086 HD
ATOM     14  H   UNL     1       9.850  -3.984  -7.372  0.00  0.00    -0.086 HD
ENDROOT
BRANCH  11  15
ATOM     15  C   UNL     1      10.296   3.424  -5.582  0.00  0.00    +0.073 A 
ATOM     16  C   UNL     1       9.172   3.730  -4.812  0.00  0.00    +0.036 A 
ATOM     17  C   UNL     1       9.264   4.670  -3.805  0.00  0.00    +0.042 A 
ATOM     18  C   UNL     1      10.468   5.309  -3.557  0.00  0.00    +0.023 A 
ATOM     19  C   UNL     1      11.585   5.012  -4.314  0.00  0.00    +0.040 A 
ATOM     20  C   UNL     1      11.509   4.068  -5.323  0.00  0.00    +0.136 A 
ATOM     21  F   UNL     1      12.603   3.774  -6.059  0.00  0.00    -0.205 F 
ATOM     22 CL   UNL     1       7.867   5.052  -2.848  0.00  0.00    -0.084 Cl
ENDBRANCH  11  15
BRANCH   1  24
ATOM     23  N   UNL     1       7.208  -2.167  -4.039  0.00  0.00    -0.314 N 
ATOM     24  C   UNL     1       7.274  -1.072  -4.822  0.00  0.00    +0.218 C 
ATOM     25  O   UNL     1       6.256  -0.574  -5.254  0.00  0.00    -0.275 OA
ATOM     26  H   UNL     1       8.023  -2.565  -3.693  0.00  0.00    +0.149 HD
BRANCH  23  27
ATOM     27  C   UNL     1       5.908  -2.755  -3.709  0.00  0.00    +0.123 C 
BRANCH  27  28
ATOM     28  C   UNL     1       6.114  -3.978  -2.813  0.00  0.00    +0.126 C 
BRANCH  28  31
ATOM     29  C   UNL     1       4.747  -5.661  -1.700  0.00  0.00    +0.401 C 
ATOM     30  O   UNL     1       5.767  -6.160  -1.267  0.00  0.00    -0.226 OA
ATOM     31  N   UNL     1       4.813  -4.566  -2.483  0.00  0.00    -0.280 N 
ATOM     32  H   UNL     1       3.999  -4.167  -2.829  0.00  0.00    +0.152 HD
BRANCH  29  33
ATOM     33  O   UNL     1       3.552  -6.201  -1.397  0.00  0.00    -0.445 OA
BRANCH  33  35
ATOM     34  C   UNL     1       4.207  -7.019   0.781  0.00  0.00    +0.055 C 
ATOM     35  C   UNL     1       3.558  -7.360  -0.561  0.00  0.00    +0.107 C 
ATOM     36  C   UNL     1       4.352  -8.476  -1.243  0.00  0.00    +0.055 C 
ATOM     37  C   UNL     1       2.119  -7.828  -0.328  0.00  0.00    +0.055 C 
ENDBRANCH  33  35
ENDBRANCH  29  33
ENDBRANCH  28  31
ENDBRANCH  27  28
ENDBRANCH  23  27
ENDBRANCH   1  24
TORSDOF 7
