REMARK  Name = ZINC57653834
REMARK  3 active torsions:
REMARK  status: ('A' for Active; 'I' for Inactive)
REMARK    1  A    between atoms: C_15  and  C_17
REMARK    2  A    between atoms: C_17  and  N_18
REMARK    3  A    between atoms: C_21  and  C_24
REMARK                            x       y       z     vdW  Elec       q    Type
REMARK                         _______ _______ _______ _____ _____    ______ ____
ROOT
ATOM      1  C   UNL     1       0.009   1.363  -0.060  0.00  0.00    +0.001 A 
ATOM      2  C   UNL     1       1.197   2.079   0.014  0.00  0.00    +0.002 A 
ATOM      3  C   UNL     1       2.407   1.427   0.100  0.00  0.00    +0.026 A 
ATOM      4  C   UNL     1       2.442   0.035   0.114  0.00  0.00    +0.048 A 
ATOM      5  C   UNL     1       1.235  -0.684   0.038  0.00  0.00    +0.020 A 
ATOM      6  C   UNL     1       0.019  -0.003  -0.049  0.00  0.00    +0.012 A 
ATOM      7  C   UNL     1       1.297  -2.152   0.054  0.00  0.00    +0.047 A 
ATOM      8  C   UNL     1       2.568  -2.765   0.147  0.00  0.00    -0.006 A 
ATOM      9  C   UNL     1       3.687  -2.007   0.216  0.00  0.00    +0.021 A 
ATOM     10  N   UNL     1       3.630  -0.648   0.200  0.00  0.00    -0.358 N 
ATOM     11  C   UNL     1       4.911  -2.901   0.307  0.00  0.00    +0.054 C 
ATOM     12  C   UNL     1       4.369  -4.284   0.725  0.00  0.00    +0.011 C 
ATOM     13  C   UNL     1       2.923  -4.237   0.186  0.00  0.00    +0.039 C 
ATOM     14  N   UNL     1       0.181  -2.889  -0.016  0.00  0.00    -0.284 N 
ATOM     15  C   UNL     1       0.263  -4.209  -0.124  0.00  0.00    +0.231 C 
ATOM     16  O   UNL     1       0.177  -4.906   0.869  0.00  0.00    -0.274 OA
ATOM     17  H   UNL     1       4.457  -0.144   0.251  0.00  0.00    +0.166 HD
ATOM     18  H   UNL     1      -0.688  -2.458   0.011  0.00  0.00    +0.155 HD
ENDROOT
BRANCH  15  19
ATOM     19  C   UNL     1       0.464  -4.843  -1.476  0.00  0.00    +0.180 C 
BRANCH  19  20
ATOM     20  N   UNL     1       0.522  -6.304  -1.327  0.00  0.00    -0.294 NA
ATOM     21  C   UNL     1      -0.768  -6.838  -0.873  0.00  0.00    +0.085 C 
ATOM     22  C   UNL     1      -0.630  -8.336  -0.590  0.00  0.00    +0.028 C 
ATOM     23  C   UNL     1      -0.181  -9.052  -1.867  0.00  0.00    +0.077 C 
ATOM     24  C   UNL     1       1.140  -8.444  -2.346  0.00  0.00    +0.028 C 
ATOM     25  C   UNL     1       0.951  -6.943  -2.578  0.00  0.00    +0.085 C 
BRANCH  23  26
ATOM     26  C   UNL     1       0.014 -10.518  -1.580  0.00  0.00    +0.214 C 
ATOM     27  O   UNL     1      -0.185 -10.950  -0.464  0.00  0.00    -0.276 OA
ATOM     28  N   UNL     1       0.411 -11.351  -2.563  0.00  0.00    -0.329 N 
ATOM     29  H   UNL     1       0.571 -11.006  -3.455  0.00  0.00    +0.145 HD
ATOM     30  H   UNL     1       0.537 -12.294  -2.378  0.00  0.00    +0.145 HD
ENDBRANCH  23  26
ENDBRANCH  19  20
ENDBRANCH  15  19
TORSDOF 3
