REMARK  Name = ZINC06143655
REMARK  7 active torsions:
REMARK  status: ('A' for Active; 'I' for Inactive)
REMARK    1  A    between atoms: C_1  and  C_2
REMARK    2  A    between atoms: C_2  and  C_3
REMARK    3  A    between atoms: C_3  and  S_4
REMARK    4  A    between atoms: S_4  and  C_5
REMARK    5  A    between atoms: C_16  and  C_18
REMARK    6  A    between atoms: C_29  and  C_31
REMARK    7  A    between atoms: C_29  and  C_32
REMARK                            x       y       z     vdW  Elec       q    Type
REMARK                         _______ _______ _______ _____ _____    ______ ____
ROOT
ATOM      1  C   UNL     1       1.103   2.029   0.002  0.00  0.00    +0.171 A 
ATOM      2  N   UNL     1       2.319   1.415  -0.011  0.00  0.00    -0.302 N 
ATOM      3  H   UNL     1       3.130   1.947  -0.015  0.00  0.00    +0.171 HD
ATOM      4  C   UNL     1       2.398   0.068  -0.019  0.00  0.00    +0.258 A 
ATOM      5  O   UNL     1       3.483  -0.492  -0.030  0.00  0.00    -0.267 OA
ATOM      6  C   UNL     1       1.212  -0.676  -0.015  0.00  0.00    +0.069 A 
ATOM      7  C   UNL     1       0.002  -0.004   0.002  0.00  0.00    +0.135 A 
ATOM      8  N   UNL     1      -0.016   1.333   0.009  0.00  0.00    -0.208 NA
ATOM      9  N   UNL     1      -1.179  -0.720   0.014  0.00  0.00    -0.302 N 
ATOM     10  C   UNL     1      -1.194  -2.035   0.391  0.00  0.00    +0.017 C 
ATOM     11  C   UNL     1      -0.061  -2.769   0.395  0.00  0.00    +0.024 C 
ATOM     12  C   UNL     1       1.258  -2.175  -0.032  0.00  0.00    +0.094 C 
ATOM     13  C   UNL     1      -0.073  -4.116   0.800  0.00  0.00    +0.162 C 
ATOM     14  O   UNL     1       0.962  -4.752   0.783  0.00  0.00    -0.292 OA
ATOM     15  C   UNL     1      -1.341  -4.785   1.252  0.00  0.00    +0.086 C 
ATOM     16  C   UNL     1      -2.275  -3.728   1.853  0.00  0.00    -0.023 C 
ATOM     17  C   UNL     1      -2.513  -2.641   0.803  0.00  0.00    +0.058 C 
ATOM     18  C   UNL     1      -1.625  -3.113   3.094  0.00  0.00    +0.011 C 
ATOM     19  C   UNL     1      -3.607  -4.375   2.236  0.00  0.00    +0.011 C 
ATOM     20  H   UNL     1      -2.006  -0.286  -0.248  0.00  0.00    +0.153 HD
ENDROOT
BRANCH  12  21
ATOM     21  C   UNL     1       1.581  -2.643  -1.427  0.00  0.00    -0.015 A 
ATOM     22  C   UNL     1       0.739  -2.322  -2.476  0.00  0.00    +0.006 A 
ATOM     23  C   UNL     1       1.038  -2.746  -3.757  0.00  0.00    +0.002 A 
ATOM     24  C   UNL     1       2.172  -3.501  -3.989  0.00  0.00    +0.021 A 
ATOM     25  C   UNL     1       3.012  -3.828  -2.940  0.00  0.00    +0.060 A 
ATOM     26  C   UNL     1       2.716  -3.398  -1.658  0.00  0.00    +0.063 A 
ATOM     27 CL   UNL     1       3.770  -3.807  -0.340  0.00  0.00    -0.082 Cl
ATOM     28 CL   UNL     1       4.436  -4.777  -3.231  0.00  0.00    -0.082 Cl
ENDBRANCH  12  21
BRANCH   1  29
ATOM     29  S   UNL     1       1.025   3.789   0.011  0.00  0.00    -0.088 S 
BRANCH  29  30
ATOM     30  C   UNL     1      -0.770   4.024   0.027  0.00  0.00    +0.077 C 
BRANCH  30  32
ATOM     31  C   UNL     1      -2.605   5.719   0.051  0.00  0.00    +0.004 C 
ATOM     32  C   UNL     1      -1.088   5.521   0.036  0.00  0.00    +0.008 C 
ENDBRANCH  30  32
ENDBRANCH  29  30
ENDBRANCH   1  29
TORSDOF 4
