REMARK  Name = ZINC06934496
REMARK  8 active torsions:
REMARK  status: ('A' for Active; 'I' for Inactive)
REMARK    1  A    between atoms: C_1  and  C_2
REMARK    2  A    between atoms: C_2  and  C_3
REMARK    3  A    between atoms: C_12  and  O_27
REMARK    4  A    between atoms: C_14  and  C_17
REMARK    5  A    between atoms: C_20  and  O_25
REMARK    6  A    between atoms: C_21  and  O_23
REMARK    7  A    between atoms: O_23  and  C_24
REMARK    8  A    between atoms: O_25  and  C_26
REMARK                            x       y       z     vdW  Elec       q    Type
REMARK                         _______ _______ _______ _____ _____    ______ ____
ROOT
ATOM      1  C   UNL     1       5.189   4.584   0.537  0.00  0.00    -0.006 C 
ATOM      2  C   UNL     1       4.061   5.591   0.294  0.00  0.00    +0.008 C 
ATOM      3  C   UNL     1       2.764   5.081   0.922  0.00  0.00    +0.037 C 
ATOM      4  C   UNL     1       2.502   3.663   0.428  0.00  0.00    -0.023 A 
ATOM      5  C   UNL     1       3.497   2.923  -0.114  0.00  0.00    -0.004 A 
ATOM      6  S   UNL     1       2.737   1.376  -0.535  0.00  0.00    -0.078 S 
ATOM      7  C   UNL     1       1.146   1.706   0.000  0.00  0.00    +0.080 A 
ATOM      8  C   UNL     1       1.204   3.014   0.497  0.00  0.00    +0.068 A 
ATOM      9  C   UNL     1      -0.055   3.596   1.029  0.00  0.00    +0.220 C 
ATOM     10  N   UNL     1      -1.163   2.939   0.823  0.00  0.00    -0.223 NA
ATOM     11  C   UNL     1      -1.274   1.726   0.017  0.00  0.00    +0.224 C 
ATOM     12  N   UNL     1      -0.011   0.966   0.007  0.00  0.00    -0.313 N 
ATOM     13  C   UNL     1       4.923   3.331  -0.310  0.00  0.00    +0.046 C 
ATOM     14  H   UNL     1      -0.031  -0.134   0.006  0.00  0.00    +0.149 HD
ENDROOT
BRANCH  11  15
ATOM     15  C   UNL     1      -1.633   2.102  -1.397  0.00  0.00    -0.002 A 
ATOM     16  C   UNL     1      -1.250   1.286  -2.446  0.00  0.00    +0.011 A 
ATOM     17  C   UNL     1      -1.577   1.626  -3.745  0.00  0.00    +0.050 A 
ATOM     18  C   UNL     1      -2.291   2.786  -3.999  0.00  0.00    +0.162 A 
ATOM     19  C   UNL     1      -2.676   3.608  -2.944  0.00  0.00    +0.162 A 
ATOM     20  C   UNL     1      -2.349   3.259  -1.644  0.00  0.00    +0.056 A 
BRANCH  19  21
ATOM     21  O   UNL     1      -3.376   4.748  -3.188  0.00  0.00    -0.491 OA
ATOM     22  C   UNL     1      -3.737   5.542  -2.057  0.00  0.00    +0.277 C 
ENDBRANCH  19  21
BRANCH  18  23
ATOM     23  O   UNL     1      -2.613   3.122  -5.277  0.00  0.00    -0.491 OA
ATOM     24  C   UNL     1      -2.184   2.232  -6.310  0.00  0.00    +0.277 C 
ENDBRANCH  18  23
ENDBRANCH  11  15
BRANCH   1  26
ATOM     25  C   UNL     1       7.663   4.238   0.471  0.00  0.00    +0.004 C 
ATOM     26  C   UNL     1       6.527   5.205   0.129  0.00  0.00    +0.000 C 
ENDBRANCH   1  26
BRANCH   9  27
ATOM     27  O   UNL     1      -0.053   4.768   1.705  0.00  0.00    -0.492 OA
ATOM     28  H   UNL     1      -0.996   5.182   2.092  0.00  0.00    +0.294 HD
ENDBRANCH   9  27
TORSDOF 5
