REMARK  Name = ZINC19236683
REMARK  8 active torsions:
REMARK  status: ('A' for Active; 'I' for Inactive)
REMARK    1  A    between atoms: C_1  and  C_2
REMARK    2  A    between atoms: C_9  and  C_12
REMARK    3  A    between atoms: N_14  and  C_15
REMARK    4  A    between atoms: C_15  and  C_17
REMARK    5  A    between atoms: C_15  and  C_30
REMARK    6  A    between atoms: C_21  and  C_23
REMARK    7  A    between atoms: C_30  and  C_31
REMARK    8  A    between atoms: C_30  and  C_32
REMARK                            x       y       z     vdW  Elec       q    Type
REMARK                         _______ _______ _______ _____ _____    ______ ____
ROOT
ATOM      1  C   UNL     1      -1.327   2.123   0.020  0.00  0.00    +0.125 C 
ENDROOT
BRANCH   1   2
ATOM      2  C   UNL     1      -0.017   1.379   0.010  0.00  0.00    +0.069 A 
ATOM      3  C   UNL     1       0.002  -0.004   0.002  0.00  0.00    +0.095 A 
ATOM      4  C   UNL     1       1.237  -0.653  -0.013  0.00  0.00    +0.252 A 
ATOM      5  N   UNL     1       2.347   0.074  -0.009  0.00  0.00    -0.306 N 
ATOM      6  C   UNL     1       2.287   1.398  -0.001  0.00  0.00    +0.159 A 
ATOM      7  N   UNL     1       1.129   2.042   0.008  0.00  0.00    -0.230 NA
ATOM      8  O   UNL     1       1.302  -2.006  -0.021  0.00  0.00    -0.268 OA
ATOM      9  H   UNL     1       3.323  -0.433  -0.011  0.00  0.00    +0.170 HD
BRANCH   6  10
ATOM     10  C   UNL     1       3.549   2.179  -0.003  0.00  0.00    +0.106 A 
ATOM     11  C   UNL     1       4.773   1.514  -0.013  0.00  0.00    +0.031 A 
ATOM     12  C   UNL     1       5.942   2.256  -0.014  0.00  0.00    +0.004 A 
ATOM     13  C   UNL     1       5.848   3.640  -0.007  0.00  0.00    +0.020 A 
ATOM     14  C   UNL     1       4.598   4.234   0.002  0.00  0.00    +0.111 A 
ATOM     15  N   UNL     1       3.502   3.504  -0.001  0.00  0.00    -0.252 NA
ENDBRANCH   6  10
ENDBRANCH   1   2
BRANCH   1  18
ATOM     16  C   UNL     1      -3.656   1.491  -0.319  0.00  0.00    +0.261 C 
ATOM     17  O   UNL     1      -3.845   2.577  -0.833  0.00  0.00    -0.269 OA
ATOM     18  N   UNL     1      -2.431   1.167   0.140  0.00  0.00    -0.302 N 
ATOM     19  H   UNL     1      -2.259   0.185   0.605  0.00  0.00    +0.150 HD
BRANCH  16  28
ATOM     20  C   UNL     1      -9.077   0.187  -1.182  0.00  0.00    +0.044 C 
ATOM     21  C   UNL     1      -8.128  -0.778  -0.520  0.00  0.00    -0.041 A 
ATOM     22  C   UNL     1      -8.572  -2.003  -0.113  0.00  0.00    +0.004 A 
ATOM     23  C   UNL     1      -7.706  -2.902   0.497  0.00  0.00    +0.002 A 
ATOM     24  C   UNL     1      -6.384  -2.574   0.704  0.00  0.00    +0.026 A 
ATOM     25  C   UNL     1      -5.909  -1.330   0.298  0.00  0.00    +0.047 A 
ATOM     26  C   UNL     1      -6.788  -0.421  -0.321  0.00  0.00    +0.003 A 
ATOM     27  C   UNL     1      -6.037   0.741  -0.621  0.00  0.00    +0.041 A 
ATOM     28  C   UNL     1      -4.763   0.531  -0.198  0.00  0.00    +0.103 A 
ATOM     29  N   UNL     1      -4.673  -0.730   0.359  0.00  0.00    -0.351 N 
ATOM     30  H   UNL     1      -3.822  -1.267   0.803  0.00  0.00    +0.166 HD
ENDBRANCH  16  28
ENDBRANCH   1  18
BRANCH   1  31
ATOM     31  C   UNL     1      -1.356   3.088   1.207  0.00  0.00    +0.009 C 
ATOM     32  C   UNL     1      -1.083   2.316   2.499  0.00  0.00    +0.009 C 
ATOM     33  C   UNL     1      -0.283   4.162   1.018  0.00  0.00    +0.009 C 
ENDBRANCH   1  31
TORSDOF 5
