REMARK  Name = ZINC10052046
REMARK  7 active torsions:
REMARK  status: ('A' for Active; 'I' for Inactive)
REMARK    1  A    between atoms: C_3  and  C_9
REMARK    2  A    between atoms: N_11  and  C_12
REMARK    3  A    between atoms: C_12  and  C_13
REMARK    4  A    between atoms: N_15  and  C_16
REMARK    5  A    between atoms: C_16  and  C_17
REMARK    6  A    between atoms: N_19  and  N_20
REMARK    7  A    between atoms: C_21  and  C_23
REMARK                            x       y       z     vdW  Elec       q    Type
REMARK                         _______ _______ _______ _____ _____    ______ ____
ROOT
ATOM      1  C   UNL     1      -8.695   0.646   2.110  0.00  0.00    +0.201 C 
ENDROOT
BRANCH   1   4
ATOM      2  C   UNL     1     -10.665   0.774   3.539  0.00  0.00    +0.231 C 
ATOM      3  O   UNL     1     -11.252   0.073   2.743  0.00  0.00    -0.274 OA
ATOM      4  N   UNL     1      -9.381   1.118   3.316  0.00  0.00    -0.305 N 
ATOM      5  H   UNL     1      -8.911   1.679   3.953  0.00  0.00    +0.149 HD
BRANCH   2   6
ATOM      6  C   UNL     1     -11.370   1.260   4.779  0.00  0.00    +0.200 C 
BRANCH   6   9
ATOM      7  C   UNL     1     -13.569   1.062   5.810  0.00  0.00    +0.246 C 
ATOM      8  O   UNL     1     -13.172   1.761   6.722  0.00  0.00    -0.270 OA
ATOM      9  N   UNL     1     -12.744   0.753   4.790  0.00  0.00    -0.303 N 
ATOM     10  H   UNL     1     -13.061   0.195   4.062  0.00  0.00    +0.150 HD
BRANCH   7  13
ATOM     11  C   UNL     1     -16.708  -0.727   4.790  0.00  0.00    +0.021 A 
ATOM     12  C   UNL     1     -15.414  -0.253   4.775  0.00  0.00    +0.016 A 
ATOM     13  C   UNL     1     -14.955   0.551   5.821  0.00  0.00    +0.055 A 
ATOM     14  C   UNL     1     -15.811   0.864   6.880  0.00  0.00    +0.054 A 
ATOM     15  C   UNL     1     -17.106   0.388   6.880  0.00  0.00    +0.040 A 
ATOM     16  C   UNL     1     -17.554  -0.409   5.840  0.00  0.00    +0.042 A 
ATOM     17 CL   UNL     1     -19.182  -1.011   5.851  0.00  0.00    -0.083 Cl
ATOM     18 CL   UNL     1     -15.248   1.857   8.189  0.00  0.00    -0.083 Cl
ENDBRANCH   7  13
ENDBRANCH   6   9
ENDBRANCH   2   6
ENDBRANCH   1   4
BRANCH   1  19
ATOM     19  C   UNL     1      -7.281   1.168   2.100  0.00  0.00    +0.246 C 
ATOM     20  O   UNL     1      -6.886   1.865   3.009  0.00  0.00    -0.273 OA
ATOM     21  N   UNL     1      -6.457   0.859   1.079  0.00  0.00    -0.233 N 
ATOM     22  H   UNL     1      -6.774   0.301   0.352  0.00  0.00    +0.173 HD
BRANCH  21  23
ATOM     23  N   UNL     1      -5.143   1.344   1.069  0.00  0.00    -0.234 N 
ATOM     24  C   UNL     1      -4.318   1.035   0.049  0.00  0.00    +0.235 C 
ATOM     25  O   UNL     1      -4.714   0.337  -0.861  0.00  0.00    -0.274 OA
ATOM     26  H   UNL     1      -4.826   1.902   1.797  0.00  0.00    +0.173 HD
BRANCH  24  27
ATOM     27  C   UNL     1      -2.904   1.556   0.038  0.00  0.00    +0.049 C 
ATOM     28  C   UNL     1      -2.188   1.063  -1.221  0.00  0.00    +0.019 C 
ATOM     29  C   UNL     1      -0.753   1.593  -1.232  0.00  0.00    -0.009 C 
ATOM     30  C   UNL     1      -0.013   1.086   0.008  0.00  0.00    +0.007 C 
ATOM     31  C   UNL     1      -0.729   1.579   1.267  0.00  0.00    -0.009 C 
ATOM     32  C   UNL     1      -2.164   1.050   1.278  0.00  0.00    +0.019 C 
ATOM     33  C   UNL     1      -0.750   3.109   1.275  0.00  0.00    +0.007 C 
ATOM     34  C   UNL     1      -1.490   3.616   0.036  0.00  0.00    -0.009 C 
ATOM     35  C   UNL     1      -0.773   3.123  -1.223  0.00  0.00    +0.007 C 
ATOM     36  C   UNL     1      -2.925   3.086   0.047  0.00  0.00    +0.019 C 
ENDBRANCH  24  27
ENDBRANCH  21  23
ENDBRANCH   1  19
TORSDOF 7
