REMARK  Name = ZINC34804851
REMARK  6 active torsions:
REMARK  status: ('A' for Active; 'I' for Inactive)
REMARK    1  A    between atoms: C_1  and  C_2
REMARK    2  A    between atoms: C_4  and  C_9
REMARK    3  A    between atoms: C_6  and  C_8
REMARK    4  A    between atoms: C_9  and  C_17
REMARK    5  A    between atoms: N_12  and  C_16
REMARK    6  A    between atoms: C_21  and  C_23
REMARK                            x       y       z     vdW  Elec       q    Type
REMARK                         _______ _______ _______ _____ _____    ______ ____
ROOT
ATOM      1  C   UNL     1       0.028  -2.841  -2.493  0.00  0.00    +0.162 C 
ATOM      2  C   UNL     1       1.534  -2.872  -2.648  0.00  0.00    +0.254 C 
ATOM      3  O   UNL     1       2.340  -3.253  -1.826  0.00  0.00    -0.272 OA
ATOM      4  N   UNL     1       1.802  -2.393  -3.877  0.00  0.00    -0.247 N 
ATOM      5  C   UNL     1       0.649  -2.054  -4.542  0.00  0.00    +0.161 C 
ATOM      6  N   UNL     1      -0.460  -2.297  -3.770  0.00  0.00    -0.297 N 
ATOM      7  N   UNL     1       0.612  -1.565  -5.748  0.00  0.00    -0.375 N 
ATOM      8  C   UNL     1       3.150  -2.252  -4.434  0.00  0.00    +0.141 C 
ATOM      9  H   UNL     1       1.437  -1.419  -6.237  0.00  0.00    +0.158 HD
ATOM     10  H   UNL     1      -1.385  -2.140  -4.017  0.00  0.00    +0.150 HD
ATOM     11  H   UNL     1      -0.240  -1.347  -6.157  0.00  0.00    +0.158 HD
ENDROOT
BRANCH   1  15
ATOM     12  C   UNL     1       0.491  -1.354   2.273  0.00  0.00    +0.065 C 
ATOM     13  C   UNL     1      -0.153  -1.224   0.917  0.00  0.00    +0.039 A 
ATOM     14  C   UNL     1       0.233  -2.068  -0.106  0.00  0.00    +0.029 A 
ATOM     15  C   UNL     1      -0.365  -1.940  -1.351  0.00  0.00    -0.007 A 
ATOM     16  C   UNL     1      -1.333  -0.962  -1.519  0.00  0.00    +0.029 A 
ATOM     17  C   UNL     1      -1.668  -0.154  -0.450  0.00  0.00    +0.039 A 
ATOM     18  N   UNL     1      -1.082  -0.308   0.722  0.00  0.00    -0.257 NA
ATOM     19  C   UNL     1      -2.719   0.912  -0.622  0.00  0.00    +0.065 C 
ENDBRANCH   1  15
BRANCH   1  20
ATOM     20  C   UNL     1      -0.509  -4.232  -2.273  0.00  0.00    -0.010 A 
ATOM     21  C   UNL     1      -1.567  -4.692  -3.038  0.00  0.00    +0.006 A 
ATOM     22  C   UNL     1      -2.065  -5.967  -2.842  0.00  0.00    +0.001 A 
ATOM     23  C   UNL     1      -1.509  -6.788  -1.882  0.00  0.00    +0.008 A 
ATOM     24  C   UNL     1      -0.444  -6.330  -1.109  0.00  0.00    -0.015 A 
ATOM     25  C   UNL     1       0.057  -5.046  -1.314  0.00  0.00    +0.015 A 
BRANCH  24  26
ATOM     26  C   UNL     1       0.158  -7.208  -0.075  0.00  0.00    +0.018 A 
ATOM     27  C   UNL     1       1.222  -6.764   0.713  0.00  0.00    +0.122 A 
ATOM     28  N   UNL     1       1.728  -7.579   1.623  0.00  0.00    -0.243 NA
ATOM     29  C   UNL     1       1.242  -8.793   1.791  0.00  0.00    +0.221 A 
ATOM     30  N   UNL     1       0.239  -9.251   1.069  0.00  0.00    -0.243 NA
ATOM     31  C   UNL     1      -0.329  -8.500   0.141  0.00  0.00    +0.122 A 
ENDBRANCH  24  26
ENDBRANCH   1  20
TORSDOF 3
