REMARK  Name = ZINC09325568
REMARK  8 active torsions:
REMARK  status: ('A' for Active; 'I' for Inactive)
REMARK    1  A    between atoms: C_1  and  C_2
REMARK    2  A    between atoms: C_2  and  O_3
REMARK    3  A    between atoms: O_3  and  C_4
REMARK    4  A    between atoms: C_7  and  C_9
REMARK    5  A    between atoms: C_13  and  N_14
REMARK    6  A    between atoms: C_15  and  C_17
REMARK    7  A    between atoms: C_29  and  O_31
REMARK    8  A    between atoms: O_31  and  C_32
REMARK                            x       y       z     vdW  Elec       q    Type
REMARK                         _______ _______ _______ _____ _____    ______ ____
ROOT
ATOM      1  C   UNL     1      -3.871  -2.420   0.007  0.00  0.00    +0.069 A 
ATOM      2  C   UNL     1      -5.240  -2.910   0.010  0.00  0.00    -0.020 A 
ATOM      3  C   UNL     1      -6.191  -1.951   0.023  0.00  0.00    +0.013 A 
ATOM      4  S   UNL     1      -5.299  -0.423   0.032  0.00  0.00    -0.076 S 
ATOM      5  C   UNL     1      -3.681  -1.044   0.014  0.00  0.00    +0.085 A 
ATOM      6  C   UNL     1      -7.676  -2.158   0.035  0.00  0.00    +0.153 C 
ATOM      7  N   UNL     1      -7.917  -3.594  -0.210  0.00  0.00    -0.262 N 
ATOM      8  C   UNL     1      -7.046  -4.556   0.483  0.00  0.00    +0.116 C 
ATOM      9  C   UNL     1      -5.606  -4.389  -0.007  0.00  0.00    +0.056 C 
ATOM     10  C   UNL     1      -8.898  -4.008  -1.036  0.00  0.00    +0.403 C 
ATOM     11  O   UNL     1      -9.076  -5.195  -1.220  0.00  0.00    -0.226 OA
ENDROOT
BRANCH   1  15
ATOM     12  C   UNL     1      -1.169  -4.612  -1.182  0.00  0.00    +0.407 C 
ATOM     13  O   UNL     1      -0.693  -5.000  -0.134  0.00  0.00    -0.226 OA
ATOM     14  N   UNL     1      -2.215  -3.762  -1.174  0.00  0.00    -0.217 N 
ATOM     15  C   UNL     1      -2.734  -3.343  -0.002  0.00  0.00    +0.255 C 
ATOM     16  O   UNL     1      -2.257  -3.732   1.048  0.00  0.00    -0.270 OA
ATOM     17  H   UNL     1      -2.595  -3.452  -2.011  0.00  0.00    +0.161 HD
BRANCH  12  18
ATOM     18  O   UNL     1      -0.651  -5.030  -2.352  0.00  0.00    -0.450 OA
BRANCH  18  20
ATOM     19  C   UNL     1       0.923  -6.306  -3.703  0.00  0.00    +0.048 C 
ATOM     20  C   UNL     1       0.475  -5.944  -2.285  0.00  0.00    +0.230 C 
ENDBRANCH  18  20
ENDBRANCH  12  18
ENDBRANCH   1  15
BRANCH   5  21
ATOM     21  N   UNL     1      -2.489  -0.340   0.012  0.00  0.00    -0.275 N 
ATOM     22  C   UNL     1      -2.502   1.008   0.019  0.00  0.00    +0.250 C 
ATOM     23  O   UNL     1      -3.561   1.605   0.028  0.00  0.00    -0.270 OA
ATOM     24  H   UNL     1      -1.644  -0.816   0.005  0.00  0.00    +0.156 HD
BRANCH  22  25
ATOM     25  C   UNL     1      -1.231   1.759   0.017  0.00  0.00    +0.055 A 
ATOM     26  C   UNL     1      -0.013   1.076   0.008  0.00  0.00    +0.016 A 
ATOM     27  C   UNL     1       1.171   1.782   0.001  0.00  0.00    +0.021 A 
ATOM     28  C   UNL     1       1.155   3.168   0.008  0.00  0.00    +0.042 A 
ATOM     29  C   UNL     1      -0.049   3.852   0.023  0.00  0.00    +0.040 A 
ATOM     30  C   UNL     1      -1.241   3.157   0.031  0.00  0.00    +0.054 A 
ATOM     31 CL   UNL     1      -2.750   4.016   0.050  0.00  0.00    -0.083 Cl
ATOM     32 CL   UNL     1       2.650   4.050  -0.003  0.00  0.00    -0.083 Cl
ENDBRANCH  22  25
ENDBRANCH   5  21
BRANCH  10  33
ATOM     33  O   UNL     1      -9.680  -3.105  -1.657  0.00  0.00    -0.454 OA
ATOM     34  C   UNL     1     -10.716  -3.622  -2.533  0.00  0.00    +0.282 C 
ENDBRANCH  10  33
TORSDOF 6
