REMARK  Name = ZINC08378270
REMARK  5 active torsions:
REMARK  status: ('A' for Active; 'I' for Inactive)
REMARK    1  A    between atoms: C_1  and  O_2
REMARK    2  A    between atoms: O_2  and  C_3
REMARK    3  A    between atoms: C_3  and  C_5
REMARK    4  A    between atoms: C_8  and  C_11
REMARK    5  A    between atoms: C_14  and  C_19
REMARK                            x       y       z     vdW  Elec       q    Type
REMARK                         _______ _______ _______ _____ _____    ______ ____
ROOT
ATOM      1  C   UNL     1      -2.554   3.865   0.047  0.00  0.00    +0.127 C 
ATOM      2  C   UNL     1      -3.096   3.879  -1.367  0.00  0.00    +0.023 C 
ATOM      3  C   UNL     1      -4.298   3.338  -1.582  0.00  0.00    +0.038 C 
ATOM      4  N   UNL     1      -5.029   2.778  -0.539  0.00  0.00    -0.297 N 
ATOM      5  C   UNL     1      -4.593   2.742   0.728  0.00  0.00    +0.135 C 
ATOM      6  S   UNL     1      -5.583   2.026   1.927  0.00  0.00    -0.019 S 
ATOM      7  N   UNL     1      -3.398   3.252   1.086  0.00  0.00    -0.316 N 
ATOM      8  H   UNL     1      -5.898   2.396  -0.738  0.00  0.00    +0.154 HD
ATOM      9  H   UNL     1      -3.100   3.215   2.008  0.00  0.00    +0.149 HD
ENDROOT
BRANCH   3  10
ATOM     10  C   UNL     1      -4.861   3.333  -2.952  0.00  0.00    -0.004 A 
ATOM     11  C   UNL     1      -4.141   3.896  -4.006  0.00  0.00    +0.012 A 
ATOM     12  C   UNL     1      -4.668   3.885  -5.281  0.00  0.00    +0.039 A 
ATOM     13  C   UNL     1      -5.914   3.326  -5.513  0.00  0.00    +0.123 A 
ATOM     14  C   UNL     1      -6.635   2.770  -4.468  0.00  0.00    +0.039 A 
ATOM     15  C   UNL     1      -6.115   2.772  -3.191  0.00  0.00    +0.012 A 
ATOM     16  F   UNL     1      -6.428   3.321  -6.763  0.00  0.00    -0.205 F 
ENDBRANCH   3  10
BRANCH   1  20
ATOM     17  C   UNL     1       1.186   1.792   0.000  0.00  0.00    +0.059 A 
ATOM     18  C   UNL     1      -0.013   1.076   0.008  0.00  0.00    +0.015 A 
ATOM     19  C   UNL     1      -1.216   1.751   0.017  0.00  0.00    +0.006 A 
ATOM     20  C   UNL     1      -1.236   3.134   0.031  0.00  0.00    -0.023 A 
ATOM     21  C   UNL     1      -0.052   3.850   0.023  0.00  0.00    +0.006 A 
ATOM     22  C   UNL     1       1.158   3.188   0.008  0.00  0.00    +0.015 A 
BRANCH  17  23
ATOM     23  C   UNL     1       2.478   1.076  -0.016  0.00  0.00    +0.339 C 
ATOM     24  O   UNL     1       2.499  -0.139  -0.024  0.00  0.00    -0.245 OA
BRANCH  23  26
ATOM     25  C   UNL     1       4.864   1.000  -0.040  0.00  0.00    +0.280 C 
ATOM     26  O   UNL     1       3.633   1.770  -0.024  0.00  0.00    -0.464 OA
ENDBRANCH  23  26
ENDBRANCH  17  23
ENDBRANCH   1  20
TORSDOF 4
