REMARK  Name = ZINC13346792
REMARK  7 active torsions:
REMARK  status: ('A' for Active; 'I' for Inactive)
REMARK    1  A    between atoms: C_1  and  C_2
REMARK    2  A    between atoms: C_3  and  C_7
REMARK    3  A    between atoms: N_9  and  N_10
REMARK    4  A    between atoms: N_10  and  S_11
REMARK    5  A    between atoms: S_11  and  C_14
REMARK    6  A    between atoms: C_17  and  O_22
REMARK    7  A    between atoms: C_18  and  C_20
REMARK                            x       y       z     vdW  Elec       q    Type
REMARK                         _______ _______ _______ _____ _____    ______ ____
ROOT
ATOM      1  S   UNL     1       0.063  -4.543  -0.006  0.00  0.00    +0.074 S 
ATOM      2  O   UNL     1       0.608  -4.946  -1.255  0.00  0.00    -0.152 OA
ATOM      3  O   UNL     1       0.631  -4.938   1.236  0.00  0.00    -0.152 OA
ENDROOT
BRANCH   1   4
ATOM      4  C   UNL     1       0.039  -2.781  -0.011  0.00  0.00    +0.108 A 
ATOM      5  C   UNL     1       0.041  -2.088   1.188  0.00  0.00    +0.032 A 
ATOM      6  C   UNL     1       0.023  -0.707   1.198  0.00  0.00    +0.048 A 
ATOM      7  C   UNL     1       0.002  -0.004   0.002  0.00  0.00    +0.131 A 
ATOM      8  C   UNL     1      -0.006  -0.702  -1.214  0.00  0.00    +0.106 A 
ATOM      9  C   UNL     1       0.020  -2.099  -1.208  0.00  0.00    +0.047 A 
BRANCH   8  10
ATOM     10  C   UNL     1      -0.035   0.034  -2.491  0.00  0.00    +0.390 C 
ATOM     11  O   UNL     1      -0.052   1.249  -2.492  0.00  0.00    -0.240 OA
ATOM     12  O   UNL     1      -0.042  -0.641  -3.657  0.00  0.00    -0.240 OA
ENDBRANCH   8  10
BRANCH   7  13
ATOM     13  O   UNL     1      -0.016   1.352   0.009  0.00  0.00    -0.506 OA
ATOM     14  H   UNL     1       0.862   1.758   0.003  0.00  0.00    +0.292 HD
ENDBRANCH   7  13
ENDBRANCH   1   4
BRANCH   1  15
ATOM     15  N   UNL     1      -1.512  -5.053   0.010  0.00  0.00    -0.108 NA
ATOM     16  H   UNL     1      -1.837  -5.600   0.743  0.00  0.00    +0.172 HD
BRANCH  15  19
ATOM     17  C   UNL     1      -3.037  -5.650  -1.718  0.00  0.00    +0.262 C 
ATOM     18  O   UNL     1      -2.885  -6.822  -1.429  0.00  0.00    -0.269 OA
ATOM     19  N   UNL     1      -2.375  -4.696  -1.034  0.00  0.00    -0.228 N 
ATOM     20  H   UNL     1      -2.497  -3.761  -1.264  0.00  0.00    +0.171 HD
BRANCH  17  23
ATOM     21  C   UNL     1      -4.714  -7.615  -3.498  0.00  0.00    +0.087 C 
ATOM     22  C   UNL     1      -4.682  -6.112  -3.600  0.00  0.00    +0.114 A 
ATOM     23  C   UNL     1      -3.945  -5.274  -2.816  0.00  0.00    +0.078 A 
ATOM     24  C   UNL     1      -4.250  -3.916  -3.292  0.00  0.00    +0.054 A 
ATOM     25  C   UNL     1      -5.119  -4.066  -4.303  0.00  0.00    +0.196 A 
ATOM     26  O   UNL     1      -5.371  -5.373  -4.476  0.00  0.00    -0.467 OA
ENDBRANCH  17  23
ENDBRANCH  15  19
ENDBRANCH   1  15
TORSDOF 6
