REMARK  Name = ZINC39608310
REMARK  9 active torsions:
REMARK  status: ('A' for Active; 'I' for Inactive)
REMARK    1  A    between atoms: C_1  and  C_2
REMARK    2  A    between atoms: C_3  and  C_8
REMARK    3  A    between atoms: C_4  and  C_7
REMARK    4  A    between atoms: C_12  and  C_21
REMARK    5  A    between atoms: N_23  and  C_24
REMARK    6  A    between atoms: C_24  and  C_26
REMARK    7  A    between atoms: C_24  and  C_27
REMARK    8  A    between atoms: C_27  and  C_28
REMARK    9  A    between atoms: C_27  and  C_29
REMARK                            x       y       z     vdW  Elec       q    Type
REMARK                         _______ _______ _______ _____ _____    ______ ____
ROOT
ATOM      1  C   UNL     1      -0.009  -0.437  -2.579  0.00  0.00    +0.252 C 
ATOM      2  O   UNL     1       1.040  -0.243  -3.162  0.00  0.00    -0.270 OA
ATOM      3  N   UNL     1      -1.180  -0.251  -3.220  0.00  0.00    -0.296 N 
ATOM      4  C   UNL     1      -2.549  -0.427  -2.680  0.00  0.00    +0.121 C 
ATOM      5  C   UNL     1      -3.361   0.741  -3.283  0.00  0.00    +0.100 C 
ATOM      6  C   UNL     1      -2.596   1.132  -4.559  0.00  0.00    -0.004 C 
ATOM      7  C   UNL     1      -1.390   0.183  -4.622  0.00  0.00    +0.115 C 
ATOM      8  C   UNL     1      -3.483   0.942  -5.785  0.00  0.00    -0.010 C 
ATOM      9  C   UNL     1      -2.721   1.393  -7.035  0.00  0.00    -0.082 C 
ATOM     10  N   UNL     1      -2.340   2.803  -6.896  0.00  0.00    +0.379 N 
ATOM     11  C   UNL     1      -1.412   2.962  -5.770  0.00  0.00    -0.082 C 
ATOM     12  C   UNL     1      -2.119   2.578  -4.466  0.00  0.00    -0.010 C 
ATOM     13  H   UNL     1      -1.892   3.114  -7.745  0.00  0.00    -0.086 HD
ATOM     14  H   UNL     1      -3.165   3.359  -6.732  0.00  0.00    -0.086 HD
ENDROOT
BRANCH   1  17
ATOM     15  C   UNL     1      -0.026   1.495   0.019  0.00  0.00    +0.070 C 
ATOM     16  C   UNL     1      -0.009  -0.012   0.011  0.00  0.00    +0.093 A 
ATOM     17  C   UNL     1      -0.001  -0.875  -1.171  0.00  0.00    +0.101 A 
ATOM     18  C   UNL     1       0.015  -2.163  -0.720  0.00  0.00    +0.147 A 
ATOM     19  O   UNL     1       0.018  -2.134   0.615  0.00  0.00    -0.359 OA
ATOM     20  N   UNL     1       0.008  -0.790   1.053  0.00  0.00    -0.083 NA
ATOM     21  C   UNL     1       0.028  -3.402  -1.578  0.00  0.00    +0.090 C 
ENDBRANCH   1  17
BRANCH   5  22
ATOM     22  C   UNL     1      -3.407   1.900  -2.320  0.00  0.00    +0.218 C 
ATOM     23  O   UNL     1      -2.530   2.036  -1.493  0.00  0.00    -0.275 OA
ATOM     24  N   UNL     1      -4.422   2.784  -2.378  0.00  0.00    -0.312 N 
ATOM     25  H   UNL     1      -5.123   2.675  -3.040  0.00  0.00    +0.149 HD
BRANCH  24  26
ATOM     26  C   UNL     1      -4.467   3.910  -1.443  0.00  0.00    +0.072 C 
ATOM     27  C   UNL     1      -5.126   3.462  -0.137  0.00  0.00    +0.028 C 
BRANCH  26  28
ATOM     28  C   UNL     1      -5.279   5.052  -2.058  0.00  0.00    +0.003 C 
ATOM     29  C   UNL     1      -6.734   4.610  -2.229  0.00  0.00    +0.009 C 
ATOM     30  C   UNL     1      -5.222   6.272  -1.136  0.00  0.00    +0.009 C 
ENDBRANCH  26  28
ENDBRANCH  24  26
ENDBRANCH   5  22
TORSDOF 4
