REMARK  Name = ZINC39237433
REMARK  11 active torsions:
REMARK  status: ('A' for Active; 'I' for Inactive)
REMARK    1  A    between atoms: C_1  and  C_2
REMARK    2  A    between atoms: C_2  and  C_3
REMARK    3  A    between atoms: C_3  and  C_5
REMARK    4  A    between atoms: C_3  and  S_24
REMARK    5  A    between atoms: N_7  and  C_8
REMARK    6  A    between atoms: C_10  and  C_19
REMARK    7  A    between atoms: C_19  and  O_21
REMARK    8  A    between atoms: O_21  and  C_22
REMARK    9  A    between atoms: C_22  and  C_23
REMARK   10  A    between atoms: S_24  and  C_25
REMARK   11  A    between atoms: C_30  and  N_32
REMARK                            x       y       z     vdW  Elec       q    Type
REMARK                         _______ _______ _______ _____ _____    ______ ____
ROOT
ATOM      1  C   UNL     1       0.746  -1.898   1.345  0.00  0.00    +0.227 C 
ATOM      2  O   UNL     1       1.753  -2.507   1.053  0.00  0.00    -0.275 OA
ATOM      3  N   UNL     1      -0.351  -2.565   1.756  0.00  0.00    -0.301 N 
ATOM      4  H   UNL     1      -1.156  -2.077   1.989  0.00  0.00    +0.150 HD
ENDROOT
BRANCH   3   5
ATOM      5  C   UNL     1      -0.327  -4.027   1.849  0.00  0.00    +0.153 C 
ATOM      6  C   UNL     1      -0.858  -4.517   3.218  0.00  0.00    +0.155 C 
ATOM      7  C   UNL     1       0.259  -4.699   4.215  0.00  0.00    -0.044 C 
ATOM      8  C   UNL     1       1.494  -4.806   3.741  0.00  0.00    -0.013 C 
ATOM      9  S   UNL     1       1.396  -4.668   1.970  0.00  0.00    -0.106 S 
ATOM     10  C   UNL     1       2.753  -5.008   4.538  0.00  0.00    +0.042 C 
ATOM     11  C   UNL     1       2.464  -4.685   6.009  0.00  0.00    +0.005 C 
ATOM     12  C   UNL     1       1.175  -5.404   6.420  0.00  0.00    +0.005 C 
ATOM     13  C   UNL     1      -0.017  -4.757   5.716  0.00  0.00    +0.032 C 
BRANCH   6  14
ATOM     14  C   UNL     1      -1.836  -3.505   3.757  0.00  0.00    +0.317 C 
ATOM     15  O   UNL     1      -1.611  -2.945   4.803  0.00  0.00    -0.250 OA
BRANCH  14  16
ATOM     16  O   UNL     1      -2.958  -3.227   3.075  0.00  0.00    -0.464 OA
BRANCH  16  17
ATOM     17  C   UNL     1      -3.841  -2.258   3.645  0.00  0.00    +0.229 C 
ATOM     18  C   UNL     1      -5.055  -2.075   2.732  0.00  0.00    +0.048 C 
ENDBRANCH  16  17
ENDBRANCH  14  16
ENDBRANCH   6  14
ENDBRANCH   3   5
BRANCH   1  19
ATOM     19  C   UNL     1       0.721  -0.394   1.248  0.00  0.00    +0.140 C 
BRANCH  19  21
ATOM     20  C   UNL     1      -1.445  -0.388   0.003  0.00  0.00    +0.005 C 
ATOM     21  C   UNL     1       0.028   0.022  -0.051  0.00  0.00    +0.020 C 
ENDBRANCH  19  21
BRANCH  19  22
ATOM     22  S   UNL     1       2.420   0.241   1.257  0.00  0.00    -0.075 S 
BRANCH  22  23
ATOM     23  C   UNL     1       2.223   1.985   1.414  0.00  0.00    +0.171 A 
ATOM     24  N   UNL     1       3.328   2.774   1.520  0.00  0.00    -0.302 N 
ATOM     25  C   UNL     1       3.196   4.112   1.641  0.00  0.00    +0.254 A 
ATOM     26  O   UNL     1       4.181   4.827   1.736  0.00  0.00    -0.268 OA
ATOM     27  C   UNL     1       1.912   4.665   1.655  0.00  0.00    +0.113 A 
ATOM     28  C   UNL     1       0.818   3.817   1.543  0.00  0.00    +0.124 A 
ATOM     29  N   UNL     1       1.010   2.499   1.421  0.00  0.00    -0.209 NA
ATOM     30  H   UNL     1       4.212   2.374   1.509  0.00  0.00    +0.171 HD
BRANCH  28  31
ATOM     31  N   UNL     1      -0.462   4.333   1.553  0.00  0.00    -0.343 N 
ATOM     32  H   UNL     1      -0.599   5.289   1.639  0.00  0.00    +0.144 HD
ATOM     33  H   UNL     1      -1.225   3.739   1.475  0.00  0.00    +0.144 HD
ENDBRANCH  28  31
ENDBRANCH  22  23
ENDBRANCH  19  22
ENDBRANCH   1  19
TORSDOF 9
