REMARK  Name = ZINC00116031
REMARK  8 active torsions:
REMARK  status: ('A' for Active; 'I' for Inactive)
REMARK    1  A    between atoms: C_1  and  C_2
REMARK    2  A    between atoms: C_2  and  C_3
REMARK    3  A    between atoms: C_3  and  C_5
REMARK    4  A    between atoms: C_3  and  O_6
REMARK    5  A    between atoms: O_6  and  C_7
REMARK    6  A    between atoms: C_7  and  C_9
REMARK    7  A    between atoms: C_10  and  C_24
REMARK    8  A    between atoms: C_15  and  C_17
REMARK                            x       y       z     vdW  Elec       q    Type
REMARK                         _______ _______ _______ _____ _____    ______ ____
ROOT
ATOM      1  C   UNL     1       2.432   4.297   1.494  0.00  0.00    +0.078 C 
ATOM      2  C   UNL     1       3.718   4.141   1.877  0.00  0.00    +0.021 C 
ATOM      3  N   UNL     1       4.545   3.269   1.229  0.00  0.00    -0.273 N 
ATOM      4  C   UNL     1       4.163   2.516   0.189  0.00  0.00    +0.304 C 
ATOM      5  O   UNL     1       4.972   1.768  -0.324  0.00  0.00    -0.252 OA
ATOM      6  N   UNL     1       2.911   2.562  -0.307  0.00  0.00    -0.288 N 
ATOM      7  C   UNL     1       1.940   3.473   0.322  0.00  0.00    +0.145 C 
ATOM      8  C   UNL     1       4.248   4.942   3.038  0.00  0.00    +0.061 C 
ATOM      9  H   UNL     1       5.461   3.190   1.539  0.00  0.00    +0.156 HD
ATOM     10  H   UNL     1       2.656   2.007  -1.060  0.00  0.00    +0.151 HD
ENDROOT
BRANCH   7  11
ATOM     11  C   UNL     1       0.768   2.649   0.793  0.00  0.00    -0.004 A 
ATOM     12  C   UNL     1       0.972   1.371   1.277  0.00  0.00    +0.007 A 
ATOM     13  C   UNL     1      -0.102   0.616   1.709  0.00  0.00    +0.000 A 
ATOM     14  C   UNL     1      -1.381   1.137   1.653  0.00  0.00    +0.001 A 
ATOM     15  C   UNL     1      -1.586   2.418   1.175  0.00  0.00    +0.020 A 
ATOM     16  C   UNL     1      -0.511   3.174   0.742  0.00  0.00    +0.046 A 
ATOM     17 CL   UNL     1      -0.767   4.780   0.135  0.00  0.00    -0.083 Cl
ENDBRANCH   7  11
BRANCH   1  18
ATOM     18  C   UNL     1       1.574   5.200   2.165  0.00  0.00    +0.339 C 
ATOM     19  O   UNL     1       0.752   4.783   2.958  0.00  0.00    -0.245 OA
BRANCH  18  20
ATOM     20  O   UNL     1       1.667   6.525   1.924  0.00  0.00    -0.458 OA
BRANCH  20  21
ATOM     21  C   UNL     1       0.698   7.368   2.550  0.00  0.00    +0.173 C 
ATOM     22  C   UNL     1       1.165   7.718   3.965  0.00  0.00    +0.052 C 
BRANCH  21  24
ATOM     23  C   UNL     1      -0.026   8.311   0.353  0.00  0.00    +0.007 C 
ATOM     24  C   UNL     1       0.536   8.652   1.735  0.00  0.00    +0.041 C 
ENDBRANCH  21  24
ENDBRANCH  20  21
ENDBRANCH  18  20
ENDBRANCH   1  18
TORSDOF 5
