REMARK  Name = ZINC38140739
REMARK  9 active torsions:
REMARK  status: ('A' for Active; 'I' for Inactive)
REMARK    1  A    between atoms: C_1  and  C_2
REMARK    2  A    between atoms: C_7  and  C_9
REMARK    3  A    between atoms: C_7  and  C_10
REMARK    4  A    between atoms: N_13  and  C_17
REMARK    5  A    between atoms: C_17  and  C_18
REMARK    6  A    between atoms: N_20  and  C_21
REMARK    7  A    between atoms: C_21  and  C_22
REMARK    8  A    between atoms: C_22  and  C_24
REMARK    9  A    between atoms: C_22  and  N_29
REMARK                            x       y       z     vdW  Elec       q    Type
REMARK                         _______ _______ _______ _____ _____    ______ ____
ROOT
ATOM      1  C   UNL     1      -1.713  -3.525  -5.194  0.00  0.00    +0.231 C 
ATOM      2  O   UNL     1      -1.258  -2.533  -5.724  0.00  0.00    -0.274 OA
ATOM      3  N   UNL     1      -2.953  -3.949  -5.511  0.00  0.00    -0.315 N 
ATOM      4  H   UNL     1      -3.317  -4.742  -5.088  0.00  0.00    +0.149 HD
ENDROOT
BRANCH   1   5
ATOM      5  C   UNL     1      -0.893  -4.283  -4.183  0.00  0.00    +0.213 C 
BRANCH   5  17
ATOM      6  C   UNL     1       2.344   1.394  -2.517  0.00  0.00    +0.007 C 
ATOM      7  C   UNL     1       2.112  -0.090  -2.212  0.00  0.00    -0.011 C 
ATOM      8  C   UNL     1       2.408  -0.914  -3.467  0.00  0.00    +0.038 C 
ATOM      9  C   UNL     1       2.135  -2.387  -3.190  0.00  0.00    +0.113 C 
ATOM     10  C   UNL     1       2.876  -2.906  -1.974  0.00  0.00    +0.041 C 
ATOM     11  C   UNL     1       2.849  -2.002  -0.754  0.00  0.00    -0.032 C 
ATOM     12  C   UNL     1       3.064  -0.534  -1.105  0.00  0.00    +0.009 C 
ATOM     13  C   UNL     1       1.536  -2.171   0.017  0.00  0.00    +0.011 C 
ATOM     14  C   UNL     1       3.995  -2.433   0.186  0.00  0.00    +0.011 C 
ATOM     15  C   UNL     1       0.652  -2.653  -3.111  0.00  0.00    +0.247 C 
ATOM     16  O   UNL     1      -0.172  -2.107  -2.409  0.00  0.00    -0.273 OA
ATOM     17  N   UNL     1       0.405  -3.626  -4.016  0.00  0.00    -0.215 N 
ATOM     18  C   UNL     1       1.494  -3.911  -4.737  0.00  0.00    +0.310 C 
ATOM     19  O   UNL     1       1.519  -4.742  -5.624  0.00  0.00    -0.252 OA
ATOM     20  N   UNL     1       2.558  -3.176  -4.369  0.00  0.00    -0.285 N 
ATOM     21  H   UNL     1       3.433  -3.155  -4.783  0.00  0.00    +0.151 HD
ENDBRANCH   5  17
ENDBRANCH   1   5
BRANCH   3  22
ATOM     22  C   UNL     1      -3.750  -3.212  -6.495  0.00  0.00    +0.096 C 
BRANCH  22  23
ATOM     23  C   UNL     1      -5.051  -3.970  -6.767  0.00  0.00    +0.016 C 
BRANCH  23  24
ATOM     24  N   UNL     1      -4.739  -5.333  -7.217  0.00  0.00    +0.387 N 
ATOM     25  C   UNL     1      -3.850  -5.270  -8.383  0.00  0.00    -0.078 C 
ATOM     26  C   UNL     1      -3.457  -6.687  -8.807  0.00  0.00    -0.019 C 
ATOM     27  C   UNL     1      -4.720  -7.475  -9.168  0.00  0.00    -0.004 C 
ATOM     28  C   UNL     1      -5.672  -7.471  -7.969  0.00  0.00    -0.019 C 
ATOM     29  C   UNL     1      -5.983  -6.025  -7.576  0.00  0.00    -0.078 C 
ATOM     30  H   UNL     1      -4.279  -5.835  -6.473  0.00  0.00    -0.081 HD
ENDBRANCH  23  24
BRANCH  23  31
ATOM     31  C   UNL     1      -5.835  -3.254  -7.837  0.00  0.00    +0.093 A 
ATOM     32  C   UNL     1      -6.970  -2.559  -7.648  0.00  0.00    +0.043 A 
ATOM     33  C   UNL     1      -7.360  -2.059  -8.912  0.00  0.00    +0.041 A 
ATOM     34  C   UNL     1      -6.439  -2.480  -9.798  0.00  0.00    +0.195 A 
ATOM     35  O   UNL     1      -5.515  -3.198  -9.140  0.00  0.00    -0.469 OA
ENDBRANCH  23  31
ENDBRANCH  22  23
ENDBRANCH   3  22
TORSDOF 6
