REMARK  Name = ZINC15543209
REMARK  4 active torsions:
REMARK  status: ('A' for Active; 'I' for Inactive)
REMARK    1  A    between atoms: C_1  and  C_2
REMARK    2  A    between atoms: C_3  and  C_21
REMARK    3  A    between atoms: N_9  and  N_12
REMARK    4  A    between atoms: C_13  and  C_15
REMARK                            x       y       z     vdW  Elec       q    Type
REMARK                         _______ _______ _______ _____ _____    ______ ____
ROOT
ATOM      1  C   UNL     1      -0.018   1.503   0.010  0.00  0.00    +0.052 C 
ATOM      2  C   UNL     1       0.002  -0.004   0.002  0.00  0.00    -0.003 A 
ATOM      3  C   UNL     1      -1.050  -0.858   0.002  0.00  0.00    +0.007 A 
ATOM      4  C   UNL     1      -0.788  -2.293  -0.007  0.00  0.00    +0.082 A 
ATOM      5  C   UNL     1       0.570  -2.650  -0.015  0.00  0.00    +0.116 A 
ATOM      6  S   UNL     1       1.415  -1.090  -0.018  0.00  0.00    -0.073 S 
ATOM      7  N   UNL     1       0.963  -3.921  -0.024  0.00  0.00    -0.228 NA
ATOM      8  C   UNL     1       0.092  -4.894  -0.026  0.00  0.00    +0.223 A 
ATOM      9  N   UNL     1      -1.242  -4.643  -0.019  0.00  0.00    -0.212 N 
ATOM     10  C   UNL     1      -1.716  -3.383  -0.009  0.00  0.00    +0.280 A 
ATOM     11  O   UNL     1      -2.917  -3.173  -0.003  0.00  0.00    -0.265 OA
ENDROOT
BRANCH   3  12
ATOM     12  C   UNL     1      -2.440  -0.344   0.011  0.00  0.00    -0.016 A 
ATOM     13  C   UNL     1      -3.266  -0.581   1.109  0.00  0.00    +0.008 A 
ATOM     14  C   UNL     1      -4.560  -0.100   1.112  0.00  0.00    +0.001 A 
ATOM     15  C   UNL     1      -5.037   0.615   0.029  0.00  0.00    +0.000 A 
ATOM     16  C   UNL     1      -4.222   0.853  -1.064  0.00  0.00    +0.001 A 
ATOM     17  C   UNL     1      -2.925   0.382  -1.075  0.00  0.00    +0.008 A 
ENDBRANCH   3  12
BRANCH   9  18
ATOM     18  N   UNL     1      -2.143  -5.715  -0.022  0.00  0.00    -0.214 N 
ATOM     19  C   UNL     1      -2.341  -6.432   1.101  0.00  0.00    +0.269 C 
ATOM     20  O   UNL     1      -1.737  -6.148   2.119  0.00  0.00    -0.268 OA
ATOM     21  H   UNL     1      -2.625  -5.941  -0.833  0.00  0.00    +0.176 HD
BRANCH  19  22
ATOM     22  C   UNL     1      -3.283  -7.554   1.098  0.00  0.00    +0.077 A 
ATOM     23  C   UNL     1      -3.632  -8.405   2.136  0.00  0.00    +0.022 A 
ATOM     24  C   UNL     1      -4.555  -9.375   1.828  0.00  0.00    +0.028 A 
ATOM     25  C   UNL     1      -5.052  -9.435   0.565  0.00  0.00    +0.079 A 
ATOM     26  S   UNL     1      -4.286  -8.175  -0.239  0.00  0.00    -0.072 S 
ATOM     27 CL   UNL     1      -6.216 -10.555  -0.071  0.00  0.00    -0.076 Cl
ENDBRANCH  19  22
ENDBRANCH   9  18
TORSDOF 3
