REMARK  Name = ZINC40736308
REMARK  12 active torsions:
REMARK  status: ('A' for Active; 'I' for Inactive)
REMARK    1  A    between atoms: C_1  and  C_2
REMARK    2  A    between atoms: C_2  and  N_3
REMARK    3  A    between atoms: N_3  and  C_4
REMARK    4  A    between atoms: C_4  and  C_5
REMARK    5  A    between atoms: C_5  and  O_6
REMARK    6  A    between atoms: C_8  and  N_19
REMARK    7  A    between atoms: C_9  and  N_13
REMARK    8  A    between atoms: N_13  and  N_14
REMARK    9  A    between atoms: N_14  and  C_15
REMARK   10  A    between atoms: C_15  and  C_16
REMARK   11  A    between atoms: C_15  and  C_17
REMARK   12  A    between atoms: C_15  and  C_18
REMARK                            x       y       z     vdW  Elec       q    Type
REMARK                         _______ _______ _______ _____ _____    ______ ____
ROOT
ATOM      1  N   UNL     1      -1.369  -0.519   0.013  0.00  0.00    -0.312 N 
ATOM      2  C   UNL     1      -2.096  -0.791   1.166  0.00  0.00    +0.147 A 
ATOM      3  C   UNL     1      -1.550  -0.533   2.425  0.00  0.00    +0.105 A 
ATOM      4  C   UNL     1      -2.323  -0.824   3.550  0.00  0.00    +0.136 A 
ATOM      5  N   UNL     1      -3.541  -1.333   3.381  0.00  0.00    -0.332 N 
ATOM      6  C   UNL     1      -4.019  -1.561   2.175  0.00  0.00    +0.200 A 
ATOM      7  N   UNL     1      -3.325  -1.296   1.087  0.00  0.00    -0.221 NA
ATOM      8  H   UNL     1      -4.085  -1.538   4.158  0.00  0.00    +0.168 HD
ENDROOT
BRANCH   3   9
ATOM      9  N   UNL     1      -0.259   0.004   2.555  0.00  0.00    -0.353 N 
ATOM     10  H   UNL     1       0.237   0.271   1.766  0.00  0.00    +0.143 HD
ATOM     11  H   UNL     1       0.137   0.107   3.435  0.00  0.00    +0.143 HD
ENDBRANCH   3   9
BRANCH   1  13
ATOM     12  C   UNL     1       0.849  -1.535  -0.152  0.00  0.00    +0.024 C 
ATOM     13  C   UNL     1      -0.601  -1.584  -0.637  0.00  0.00    +0.103 C 
ENDBRANCH   1  13
BRANCH   4  14
ATOM     14  N   UNL     1      -1.827  -0.587   4.827  0.00  0.00    -0.264 N 
ATOM     15  H   UNL     1      -0.938  -0.217   4.941  0.00  0.00    +0.168 HD
BRANCH  14  16
ATOM     16  N   UNL     1      -2.592  -0.876   5.921  0.00  0.00    -0.236 NA
ATOM     17  H   UNL     1      -3.480  -0.399   5.878  0.00  0.00    +0.145 HD
BRANCH  16  18
ATOM     18  C   UNL     1      -1.879  -0.550   7.163  0.00  0.00    +0.028 C 
ATOM     19  C   UNL     1      -1.541   0.942   7.181  0.00  0.00    +0.029 C 
ATOM     20  C   UNL     1      -2.766  -0.887   8.364  0.00  0.00    +0.029 C 
ATOM     21  C   UNL     1      -0.587  -1.366   7.239  0.00  0.00    +0.029 C 
ENDBRANCH  16  18
ENDBRANCH  14  16
ENDBRANCH   4  14
BRANCH   1  22
ATOM     22  C   UNL     1      -1.371   0.833  -0.553  0.00  0.00    +0.134 C 
BRANCH  22  23
ATOM     23  C   UNL     1      -2.521   0.965  -1.554  0.00  0.00    +0.174 C 
BRANCH  23  24
ATOM     24  O   UNL     1      -3.768   0.841  -0.866  0.00  0.00    -0.393 OA
ATOM     25  H   UNL     1      -4.542   0.915  -1.440  0.00  0.00    +0.209 HD
ENDBRANCH  23  24
ENDBRANCH  22  23
ENDBRANCH   1  22
TORSDOF 8
