REMARK  Name = ZINC66234671
REMARK  5 active torsions:
REMARK  status: ('A' for Active; 'I' for Inactive)
REMARK    1  A    between atoms: C_3  and  C_8
REMARK    2  A    between atoms: C_5  and  O_7
REMARK    3  A    between atoms: C_8  and  C_9
REMARK    4  A    between atoms: C_9  and  N_10
REMARK    5  A    between atoms: C_17  and  C_19
REMARK                            x       y       z     vdW  Elec       q    Type
REMARK                         _______ _______ _______ _____ _____    ______ ____
ROOT
ATOM      1  N   UNL     1       5.378   3.199   1.411  0.00  0.00    -0.299 N 
ATOM      2  C   UNL     1       5.967   3.539   2.574  0.00  0.00    +0.303 C 
ATOM      3  O   UNL     1       5.456   3.221   3.630  0.00  0.00    -0.253 OA
ATOM      4  N   UNL     1       7.123   4.233   2.567  0.00  0.00    -0.276 N 
ATOM      5  C   UNL     1       7.845   4.687   1.364  0.00  0.00    +0.110 C 
ATOM      6  C   UNL     1       9.316   4.849   1.822  0.00  0.00    +0.021 C 
ATOM      7  C   UNL     1       9.135   5.399   3.262  0.00  0.00    +0.032 C 
ATOM      8  C   UNL     1       7.869   4.668   3.757  0.00  0.00    +0.146 C 
ATOM      9  H   UNL     1       5.786   3.453   0.568  0.00  0.00    +0.150 HD
ENDROOT
BRANCH   8  10
ATOM     10  C   UNL     1       7.021   5.604   4.579  0.00  0.00    +0.154 A 
ATOM     11  N   UNL     1       6.278   6.578   4.126  0.00  0.00    -0.132 NA
ATOM     12  N   UNL     1       5.686   7.166   5.107  0.00  0.00    -0.134 NA
ATOM     13  C   UNL     1       6.024   6.591   6.226  0.00  0.00    +0.134 A 
ATOM     14  N   UNL     1       6.884   5.590   5.923  0.00  0.00    -0.313 N 
ATOM     15  C   UNL     1       7.542   4.691   6.871  0.00  0.00    +0.125 C 
ATOM     16  C   UNL     1       6.663   4.532   8.115  0.00  0.00    +0.022 C 
ATOM     17  C   UNL     1       7.013   5.615   9.135  0.00  0.00    +0.002 C 
ATOM     18  C   UNL     1       6.750   7.001   8.555  0.00  0.00    +0.008 C 
ATOM     19  C   UNL     1       5.550   6.947   7.612  0.00  0.00    +0.076 C 
ENDBRANCH   8  10
BRANCH   1  20
ATOM     20  C   UNL     1       4.122   2.445   1.419  0.00  0.00    +0.110 C 
BRANCH  20  21
ATOM     21  C   UNL     1       3.671   2.190  -0.021  0.00  0.00    +0.054 C 
BRANCH  21  24
ATOM     22  C   UNL     1      -0.017   1.377   0.010  0.00  0.00    +0.004 A 
ATOM     23  C   UNL     1       1.171   2.086   0.002  0.00  0.00    +0.004 A 
ATOM     24  C   UNL     1       2.379   1.415  -0.013  0.00  0.00    -0.042 A 
ATOM     25  C   UNL     1       2.403   0.033  -0.021  0.00  0.00    +0.049 A 
ATOM     26  C   UNL     1       1.214  -0.680  -0.013  0.00  0.00    +0.117 A 
ATOM     27  C   UNL     1       0.002  -0.004   0.002  0.00  0.00    +0.045 A 
BRANCH  26  28
ATOM     28  O   UNL     1       1.235  -2.039  -0.021  0.00  0.00    -0.507 OA
ATOM     29  H   UNL     1       1.249  -2.437   0.860  0.00  0.00    +0.292 HD
ENDBRANCH  26  28
ENDBRANCH  21  24
ENDBRANCH  20  21
ENDBRANCH   1  20
TORSDOF 5
