REMARK  Name = ZINC62826722
REMARK  3 active torsions:
REMARK  status: ('A' for Active; 'I' for Inactive)
REMARK    1  A    between atoms: C_3  and  C_9
REMARK    2  A    between atoms: C_4  and  N_8
REMARK    3  A    between atoms: C_11  and  C_14
REMARK                            x       y       z     vdW  Elec       q    Type
REMARK                         _______ _______ _______ _____ _____    ______ ____
ROOT
ATOM      1  C   UNL     1       3.667   2.147  -0.080  0.00  0.00    +0.261 A 
ATOM      2  N   UNL     1       3.936   3.251   0.580  0.00  0.00    -0.184 NA
ATOM      3  C   UNL     1       5.188   3.652   0.310  0.00  0.00    +0.241 A 
ATOM      4  N   UNL     1       5.732   2.804  -0.528  0.00  0.00    -0.052 NA
ATOM      5  O   UNL     1       4.756   1.808  -0.793  0.00  0.00    -0.332 OA
ENDROOT
BRANCH   1   8
ATOM      6  C   UNL     1      -0.008   1.384  -0.137  0.00  0.00    +0.002 A 
ATOM      7  C   UNL     1       1.180   2.083  -0.173  0.00  0.00    +0.015 A 
ATOM      8  C   UNL     1       2.393   1.404  -0.042  0.00  0.00    +0.061 A 
ATOM      9  C   UNL     1       2.393   0.012   0.127  0.00  0.00    +0.051 A 
ATOM     10  C   UNL     1       1.187  -0.677   0.161  0.00  0.00    +0.039 A 
ATOM     11  C   UNL     1      -0.005   0.009   0.030  0.00  0.00    +0.017 A 
ATOM     12 BR   UNL     1       1.177  -2.554   0.388  0.00  0.00    -0.048 Br
BRANCH   9  13
ATOM     13  N   UNL     1       3.595  -0.677   0.259  0.00  0.00    -0.357 N 
ATOM     14  H   UNL     1       4.429  -0.187   0.329  0.00  0.00    +0.142 HD
ATOM     15  H   UNL     1       3.599  -1.647   0.280  0.00  0.00    +0.142 HD
ENDBRANCH   9  13
ENDBRANCH   1   8
BRANCH   3  16
ATOM     16  C   UNL     1       5.848   4.858   0.870  0.00  0.00    +0.222 A 
ATOM     17  N   UNL     1       7.097   5.260   0.602  0.00  0.00    -0.212 NA
ATOM     18  H   UNL     1       6.173   7.460   2.559  0.00  0.00    +0.190 HD
ATOM     19  C   UNL     1       7.359   6.358   1.259  0.00  0.00    +0.216 A 
ATOM     20  N   UNL     1       6.270   6.692   1.975  0.00  0.00    -0.265 N 
ATOM     21  N   UNL     1       5.300   5.712   1.706  0.00  0.00    -0.149 NA
ENDBRANCH   3  16
TORSDOF 3
