REMARK  Name = ZINC56316132
REMARK  10 active torsions:
REMARK  status: ('A' for Active; 'I' for Inactive)
REMARK    1  A    between atoms: C_1  and  C_2
REMARK    2  A    between atoms: C_2  and  C_4
REMARK    3  A    between atoms: C_2  and  N_11
REMARK    4  A    between atoms: N_9  and  C_10
REMARK    5  A    between atoms: C_15  and  N_18
REMARK    6  A    between atoms: C_19  and  O_21
REMARK    7  A    between atoms: O_21  and  C_22
REMARK    8  A    between atoms: C_22  and  C_23
REMARK    9  A    between atoms: C_22  and  C_24
REMARK   10  A    between atoms: C_22  and  C_25
REMARK                            x       y       z     vdW  Elec       q    Type
REMARK                         _______ _______ _______ _____ _____    ______ ____
ROOT
ATOM      1  N   UNL     1       0.713  -0.491   1.192  0.00  0.00    -0.290 NA
ATOM      2  C   UNL     1       0.063  -0.020   2.422  0.00  0.00    +0.085 C 
ATOM      3  C   UNL     1       0.739  -0.662   3.636  0.00  0.00    +0.017 C 
ATOM      4  C   UNL     1       2.224  -0.286   3.644  0.00  0.00    +0.025 C 
ATOM      5  C   UNL     1       2.866  -0.745   2.332  0.00  0.00    +0.090 C 
ATOM      6  C   UNL     1       2.128  -0.100   1.156  0.00  0.00    +0.107 C 
ENDROOT
BRANCH   5   7
ATOM      7  N   UNL     1       4.273  -0.339   2.309  0.00  0.00    -0.277 N 
ATOM      8  C   UNL     1       5.209  -1.117   2.888  0.00  0.00    +0.401 C 
ATOM      9  O   UNL     1       4.885  -2.156   3.429  0.00  0.00    -0.226 OA
ATOM     10  H   UNL     1       4.532   0.490   1.876  0.00  0.00    +0.152 HD
BRANCH   8  11
ATOM     11  O   UNL     1       6.502  -0.745   2.866  0.00  0.00    -0.445 OA
BRANCH  11  12
ATOM     12  C   UNL     1       7.440  -1.618   3.499  0.00  0.00    +0.107 C 
ATOM     13  C   UNL     1       7.396  -2.990   2.823  0.00  0.00    +0.055 C 
ATOM     14  C   UNL     1       8.848  -1.032   3.373  0.00  0.00    +0.055 C 
ATOM     15  C   UNL     1       7.080  -1.766   4.979  0.00  0.00    +0.055 C 
ENDBRANCH  11  12
ENDBRANCH   8  11
ENDBRANCH   5   7
BRANCH   1  17
ATOM     16  C   UNL     1      -0.019   1.526   0.010  0.00  0.00    +0.034 C 
ATOM     17  C   UNL     1       0.002  -0.004   0.002  0.00  0.00    +0.140 C 
BRANCH  17  18
ATOM     18  C   UNL     1      -1.412  -0.526   0.013  0.00  0.00    +0.237 C 
ATOM     19  O   UNL     1      -1.790  -1.233   0.922  0.00  0.00    -0.274 OA
ATOM     20  N   UNL     1      -2.256  -0.206  -0.988  0.00  0.00    -0.239 N 
ATOM     21  C   UNL     1      -3.520  -0.672  -0.979  0.00  0.00    +0.306 C 
ATOM     22  O   UNL     1      -3.899  -1.381  -0.067  0.00  0.00    -0.252 OA
ATOM     23  N   UNL     1      -4.364  -0.353  -1.980  0.00  0.00    -0.302 N 
ATOM     24  C   UNL     1      -5.738  -0.860  -1.970  0.00  0.00    +0.129 C 
ATOM     25  H   UNL     1      -1.953   0.360  -1.716  0.00  0.00    +0.159 HD
ATOM     26  H   UNL     1      -4.061   0.213  -2.707  0.00  0.00    +0.150 HD
ENDBRANCH  17  18
ENDBRANCH   1  17
TORSDOF 5
