REMARK  Name = ZINC19418608
REMARK  6 active torsions:
REMARK  status: ('A' for Active; 'I' for Inactive)
REMARK    1  A    between atoms: C_1  and  C_2
REMARK    2  A    between atoms: C_3  and  C_21
REMARK    3  A    between atoms: C_4  and  C_12
REMARK    4  A    between atoms: C_5  and  C_9
REMARK    5  A    between atoms: C_6  and  C_8
REMARK    6  A    between atoms: C_16  and  N_18
REMARK                            x       y       z     vdW  Elec       q    Type
REMARK                         _______ _______ _______ _____ _____    ______ ____
ROOT
ATOM      1  C   UNL     1       2.544   6.558   2.540  0.00  0.00    +0.061 C 
ATOM      2  C   UNL     1       1.874   6.226   1.232  0.00  0.00    +0.014 C 
ATOM      3  C   UNL     1       0.646   5.681   1.235  0.00  0.00    +0.043 C 
ATOM      4  C   UNL     1      -0.057   5.325  -0.044  0.00  0.00    +0.092 C 
ATOM      5  C   UNL     1       0.596   6.001  -1.216  0.00  0.00    +0.043 C 
ATOM      6  C   UNL     1       1.825   6.533  -1.122  0.00  0.00    +0.014 C 
ATOM      7  N   UNL     1       2.523   6.482   0.054  0.00  0.00    -0.321 N 
ATOM      8  C   UNL     1       2.444   7.195  -2.327  0.00  0.00    +0.061 C 
ATOM      9  H   UNL     1       3.611   6.647   0.051  0.00  0.00    +0.152 HD
ENDROOT
BRANCH   4  10
ATOM     10  C   UNL     1      -0.004   3.832  -0.240  0.00  0.00    -0.033 A 
ATOM     11  C   UNL     1       1.217   3.190  -0.335  0.00  0.00    +0.005 A 
ATOM     12  C   UNL     1       1.265   1.820  -0.515  0.00  0.00    +0.003 A 
ATOM     13  C   UNL     1       0.093   1.092  -0.599  0.00  0.00    +0.033 A 
ATOM     14  C   UNL     1      -1.128   1.734  -0.508  0.00  0.00    +0.126 A 
ATOM     15  C   UNL     1      -1.176   3.104  -0.324  0.00  0.00    +0.037 A 
BRANCH  14  16
ATOM     16  N   UNL     1      -2.383   0.956  -0.603  0.00  0.00    +0.056 N 
ATOM     17  O   UNL     1      -2.340  -0.251  -0.761  0.00  0.00    -0.126 OA
ATOM     18  O   UNL     1      -3.458   1.522  -0.523  0.00  0.00    -0.126 OA
ENDBRANCH  14  16
ENDBRANCH   4  10
BRANCH   5  19
ATOM     19  C   UNL     1      -0.101   6.079  -2.447  0.00  0.00    +0.240 C 
ATOM     20  O   UNL     1       0.415   6.624  -3.405  0.00  0.00    -0.271 OA
ATOM     21  N   UNL     1      -1.336   5.550  -2.557  0.00  0.00    -0.326 N 
ATOM     22  H   UNL     1      -1.877   5.610  -3.513  0.00  0.00    +0.145 HD
ATOM     23  H   UNL     1      -1.802   5.057  -1.691  0.00  0.00    +0.145 HD
ENDBRANCH   5  19
BRANCH   3  24
ATOM     24  C   UNL     1       0.000   5.437   2.472  0.00  0.00    +0.240 C 
ATOM     25  O   UNL     1      -0.914   6.155   2.833  0.00  0.00    -0.271 OA
ATOM     26  N   UNL     1       0.398   4.410   3.249  0.00  0.00    -0.326 N 
ATOM     27  H   UNL     1      -0.104   4.220   4.209  0.00  0.00    +0.145 HD
ATOM     28  H   UNL     1       1.224   3.761   2.922  0.00  0.00    +0.145 HD
ENDBRANCH   3  24
TORSDOF 4
