REMARK  Name = ZINC02712039
REMARK  8 active torsions:
REMARK  status: ('A' for Active; 'I' for Inactive)
REMARK    1  A    between atoms: C_1  and  C_2
REMARK    2  A    between atoms: C_2  and  O_3
REMARK    3  A    between atoms: O_3  and  C_4
REMARK    4  A    between atoms: C_4  and  C_6
REMARK    5  A    between atoms: N_9  and  C_12
REMARK    6  A    between atoms: C_12  and  C_14
REMARK    7  A    between atoms: C_12  and  C_21
REMARK    8  A    between atoms: C_22  and  O_29
REMARK                            x       y       z     vdW  Elec       q    Type
REMARK                         _______ _______ _______ _____ _____    ______ ____
ROOT
ATOM      1  C   UNL     1       1.887  -4.596  -6.149  0.00  0.00    +0.006 C 
ENDROOT
BRANCH   1   2
ATOM      2  C   UNL     1       1.813  -6.098  -6.043  0.00  0.00    +0.045 A 
ATOM      3  C   UNL     1       2.794  -7.002  -6.151  0.00  0.00    +0.225 A 
ATOM      4  N   UNL     1       2.527  -8.344  -6.023  0.00  0.00    -0.174 N 
ATOM      5  C   UNL     1       1.236  -8.702  -5.784  0.00  0.00    +0.199 A 
ATOM      6  S   UNL     1       0.395  -7.138  -5.732  0.00  0.00    -0.050 S 
ATOM      7  N   UNL     1       1.152 -10.001  -5.690  0.00  0.00    -0.208 NA
ATOM      8  C   UNL     1       2.361 -10.533  -5.860  0.00  0.00    +0.246 A 
ATOM      9  N   UNL     1       3.227  -9.578  -6.065  0.00  0.00    -0.150 NA
BRANCH   3  10
ATOM     10  O   UNL     1       4.068  -6.588  -6.391  0.00  0.00    -0.492 OA
ATOM     11  H   UNL     1       4.710  -7.309  -6.454  0.00  0.00    +0.294 HD
ENDBRANCH   3  10
ENDBRANCH   1   2
BRANCH   1  15
ATOM     12  C   UNL     1       1.468  -2.353  -2.550  0.00  0.00    +0.094 C 
ATOM     13  C   UNL     1       0.736  -1.893  -3.814  0.00  0.00    -0.004 C 
ATOM     14  C   UNL     1       1.396  -2.529  -5.039  0.00  0.00    -0.077 C 
ATOM     15  N   UNL     1       1.323  -3.992  -4.935  0.00  0.00    +0.387 N 
ATOM     16  C   UNL     1       2.084  -4.446  -3.764  0.00  0.00    -0.077 C 
ATOM     17  C   UNL     1       1.450  -3.884  -2.490  0.00  0.00    -0.004 C 
ATOM     18  H   UNL     1       0.359  -4.273  -4.838  0.00  0.00    -0.080 HD
BRANCH  12  19
ATOM     19  C   UNL     1       0.775  -1.794  -1.334  0.00  0.00    +0.310 C 
ATOM     20  O   UNL     1       0.314  -2.540  -0.504  0.00  0.00    -0.251 OA
BRANCH  19  21
ATOM     21  O   UNL     1       0.671  -0.465  -1.174  0.00  0.00    -0.465 OA
BRANCH  21  23
ATOM     22  C   UNL     1      -0.019   1.526   0.010  0.00  0.00    +0.048 C 
ATOM     23  C   UNL     1       0.002  -0.004   0.002  0.00  0.00    +0.229 C 
ENDBRANCH  21  23
ENDBRANCH  19  21
ENDBRANCH  12  19
ENDBRANCH   1  15
BRANCH   1  24
ATOM     24  C   UNL     1       1.102  -4.138  -7.350  0.00  0.00    -0.053 A 
ATOM     25  C   UNL     1      -0.274  -4.025  -7.274  0.00  0.00    +0.002 A 
ATOM     26  C   UNL     1      -0.996  -3.605  -8.375  0.00  0.00    +0.003 A 
ATOM     27  C   UNL     1      -0.343  -3.297  -9.554  0.00  0.00    +0.038 A 
ATOM     28  C   UNL     1       1.034  -3.410  -9.632  0.00  0.00    +0.124 A 
ATOM     29  C   UNL     1       1.757  -3.825  -8.526  0.00  0.00    +0.040 A 
ATOM     30  F   UNL     1       1.674  -3.110 -10.783  0.00  0.00    -0.205 F 
ENDBRANCH   1  24
TORSDOF 7
