REMARK  Name = ZINC65742832
REMARK  14 active torsions:
REMARK  status: ('A' for Active; 'I' for Inactive)
REMARK    1  A    between atoms: C_1  and  C_2
REMARK    2  A    between atoms: C_2  and  C_4
REMARK    3  A    between atoms: C_2  and  N_13
REMARK    4  A    between atoms: C_4  and  C_5
REMARK    5  A    between atoms: C_5  and  C_6
REMARK    6  A    between atoms: C_9  and  O_12
REMARK    7  A    between atoms: N_13  and  C_14
REMARK    8  A    between atoms: N_13  and  C_22
REMARK    9  A    between atoms: C_14  and  C_15
REMARK   10  A    between atoms: C_18  and  O_21
REMARK   11  A    between atoms: C_22  and  C_23
REMARK   12  A    between atoms: C_23  and  C_25
REMARK   13  A    between atoms: C_23  and  O_32
REMARK   14  A    between atoms: C_28  and  O_31
REMARK                            x       y       z     vdW  Elec       q    Type
REMARK                         _______ _______ _______ _____ _____    ______ ____
ROOT
ATOM      1  N   UNL     1      -2.054  -0.385  -0.296  0.00  0.00    +0.386 N 
ATOM      2  H   UNL     1      -2.769   0.072   0.250  0.00  0.00    -0.081 HD
ENDROOT
BRANCH   1   4
ATOM      3  C   UNL     1       0.350  -0.561  -0.732  0.00  0.00    -0.013 C 
ATOM      4  C   UNL     1      -0.740   0.172   0.054  0.00  0.00    -0.071 C 
BRANCH   4   5
ATOM      5  C   UNL     1      -0.708   1.661  -0.296  0.00  0.00    -0.011 C 
BRANCH   5   6
ATOM      6  C   UNL     1      -1.709   2.413   0.583  0.00  0.00    +0.033 C 
BRANCH   6   7
ATOM      7  C   UNL     1      -1.734   3.866   0.185  0.00  0.00    -0.047 A 
ATOM      8  C   UNL     1      -0.873   4.763   0.790  0.00  0.00    +0.007 A 
ATOM      9  C   UNL     1      -0.895   6.095   0.427  0.00  0.00    +0.045 A 
ATOM     10  C   UNL     1      -1.782   6.534  -0.546  0.00  0.00    +0.117 A 
ATOM     11  C   UNL     1      -2.645   5.632  -1.151  0.00  0.00    +0.045 A 
ATOM     12  C   UNL     1      -2.616   4.299  -0.788  0.00  0.00    +0.007 A 
BRANCH  10  13
ATOM     13  O   UNL     1      -1.806   7.844  -0.904  0.00  0.00    -0.507 OA
ATOM     14  H   UNL     1      -1.208   8.064  -1.632  0.00  0.00    +0.292 HD
ENDBRANCH  10  13
ENDBRANCH   6   7
ENDBRANCH   5   6
ENDBRANCH   4   5
ENDBRANCH   1   4
BRANCH   1  15
ATOM     15  C   UNL     1      -2.314  -0.167  -1.725  0.00  0.00    -0.043 C 
BRANCH  15  16
ATOM     16  C   UNL     1      -3.727  -0.580  -2.048  0.00  0.00    -0.064 A 
ATOM     17  C   UNL     1      -3.978  -1.843  -2.551  0.00  0.00    +0.005 A 
ATOM     18  C   UNL     1      -5.272  -2.224  -2.848  0.00  0.00    +0.045 A 
ATOM     19  C   UNL     1      -6.320  -1.339  -2.641  0.00  0.00    +0.117 A 
ATOM     20  C   UNL     1      -6.065  -0.072  -2.135  0.00  0.00    +0.045 A 
ATOM     21  C   UNL     1      -4.769   0.302  -1.835  0.00  0.00    +0.005 A 
BRANCH  19  22
ATOM     22  O   UNL     1      -7.594  -1.711  -2.932  0.00  0.00    -0.507 OA
ATOM     23  H   UNL     1      -8.061  -2.128  -2.195  0.00  0.00    +0.292 HD
ENDBRANCH  19  22
ENDBRANCH  15  16
ENDBRANCH   1  15
BRANCH   1  24
ATOM     24  C   UNL     1      -2.067  -1.826  -0.011  0.00  0.00    -0.041 C 
BRANCH  24  25
ATOM     25  C   UNL     1      -1.970  -2.048   1.500  0.00  0.00    +0.128 C 
BRANCH  25  26
ATOM     26  C   UNL     1      -2.193  -3.506   1.809  0.00  0.00    -0.021 A 
ATOM     27  C   UNL     1      -1.135  -4.394   1.750  0.00  0.00    +0.009 A 
ATOM     28  C   UNL     1      -1.337  -5.731   2.032  0.00  0.00    +0.046 A 
ATOM     29  C   UNL     1      -2.603  -6.182   2.376  0.00  0.00    +0.117 A 
ATOM     30  C   UNL     1      -3.663  -5.289   2.436  0.00  0.00    +0.046 A 
ATOM     31  C   UNL     1      -3.455  -3.952   2.157  0.00  0.00    +0.009 A 
BRANCH  29  32
ATOM     32  O   UNL     1      -2.805  -7.497   2.654  0.00  0.00    -0.507 OA
ATOM     33  H   UNL     1      -2.687  -7.725   3.587  0.00  0.00    +0.292 HD
ENDBRANCH  29  32
ENDBRANCH  25  26
BRANCH  25  34
ATOM     34  O   UNL     1      -0.673  -1.657   1.957  0.00  0.00    -0.389 OA
ATOM     35  H   UNL     1       0.052  -2.150   1.549  0.00  0.00    +0.210 HD
ENDBRANCH  25  34
ENDBRANCH  24  25
ENDBRANCH   1  24
TORSDOF 13
