REMARK  Name = ZINC43005593
REMARK  10 active torsions:
REMARK  status: ('A' for Active; 'I' for Inactive)
REMARK    1  A    between atoms: C_1  and  C_2
REMARK    2  A    between atoms: C_2  and  C_3
REMARK    3  A    between atoms: C_2  and  C_4
REMARK    4  A    between atoms: C_2  and  C_5
REMARK    5  A    between atoms: C_5  and  C_6
REMARK    6  A    between atoms: N_8  and  C_9
REMARK    7  A    between atoms: N_8  and  C_10
REMARK    8  A    between atoms: C_11  and  N_26
REMARK    9  A    between atoms: N_12  and  C_19
REMARK   10  A    between atoms: C_19  and  C_20
REMARK                            x       y       z     vdW  Elec       q    Type
REMARK                         _______ _______ _______ _____ _____    ______ ____
ROOT
ATOM      1  C   UNL     1       4.281   0.262  -2.180  0.00  0.00    +0.139 A 
ATOM      2  C   UNL     1       5.175   0.077  -3.215  0.00  0.00    +0.128 A 
ATOM      3  N   UNL     1       6.433   0.625  -3.122  0.00  0.00    -0.276 N 
ATOM      4  C   UNL     1       6.788   1.333  -2.035  0.00  0.00    +0.331 A 
ATOM      5  O   UNL     1       7.906   1.810  -1.972  0.00  0.00    -0.246 OA
ATOM      6  N   UNL     1       5.931   1.524  -1.016  0.00  0.00    -0.273 N 
ATOM      7  H   UNL     1       6.212   2.039  -0.244  0.00  0.00    +0.173 HD
ATOM      8  C   UNL     1       4.685   1.013  -1.060  0.00  0.00    +0.277 A 
ATOM      9  O   UNL     1       3.914   1.196  -0.133  0.00  0.00    -0.266 OA
ENDROOT
BRANCH   1  12
ATOM     10  C   UNL     1       2.815  -1.626  -2.229  0.00  0.00    +0.220 C 
ATOM     11  O   UNL     1       3.782  -2.359  -2.241  0.00  0.00    -0.275 OA
ATOM     12  N   UNL     1       2.983  -0.287  -2.245  0.00  0.00    -0.267 N 
ATOM     13  C   UNL     1       1.818   0.596  -2.332  0.00  0.00    +0.138 C 
BRANCH  10  14
ATOM     14  C   UNL     1       1.427  -2.211  -2.194  0.00  0.00    +0.102 C 
BRANCH  14  16
ATOM     15  C   UNL     1       2.293  -4.192  -0.943  0.00  0.00    +0.011 C 
ATOM     16  C   UNL     1       1.517  -3.738  -2.181  0.00  0.00    -0.029 C 
ATOM     17  C   UNL     1       2.241  -4.217  -3.441  0.00  0.00    +0.011 C 
ATOM     18  C   UNL     1       0.108  -4.332  -2.146  0.00  0.00    +0.011 C 
ENDBRANCH  14  16
ENDBRANCH  10  14
ENDBRANCH   1  12
BRANCH   2  19
ATOM     19  N   UNL     1       4.812  -0.647  -4.325  0.00  0.00    -0.343 N 
ATOM     20  H   UNL     1       3.947  -1.084  -4.358  0.00  0.00    +0.144 HD
ATOM     21  H   UNL     1       5.421  -0.720  -5.077  0.00  0.00    +0.144 HD
ENDBRANCH   2  19
BRANCH   3  22
ATOM     22  C   UNL     1       7.392   0.436  -4.213  0.00  0.00    +0.163 C 
BRANCH  22  23
ATOM     23  C   UNL     1       7.249   1.559  -5.208  0.00  0.00    -0.028 A 
ATOM     24  C   UNL     1       6.366   1.439  -6.265  0.00  0.00    +0.005 A 
ATOM     25  C   UNL     1       6.235   2.469  -7.177  0.00  0.00    +0.000 A 
ATOM     26  C   UNL     1       6.987   3.620  -7.032  0.00  0.00    +0.000 A 
ATOM     27  C   UNL     1       7.869   3.741  -5.974  0.00  0.00    +0.000 A 
ATOM     28  C   UNL     1       7.997   2.713  -5.060  0.00  0.00    +0.005 A 
ENDBRANCH  22  23
ENDBRANCH   3  22
TORSDOF 6
