REMARK  Name = ZINC17214464
REMARK  10 active torsions:
REMARK  status: ('A' for Active; 'I' for Inactive)
REMARK    1  A    between atoms: C_1  and  C_2
REMARK    2  A    between atoms: C_6  and  N_9
REMARK    3  A    between atoms: C_7  and  C_8
REMARK    4  A    between atoms: C_10  and  C_12
REMARK    5  A    between atoms: C_12  and  C_19
REMARK    6  A    between atoms: N_13  and  N_14
REMARK    7  A    between atoms: N_14  and  C_15
REMARK    8  A    between atoms: C_15  and  C_16
REMARK    9  A    between atoms: C_15  and  C_17
REMARK   10  A    between atoms: C_15  and  C_18
REMARK                            x       y       z     vdW  Elec       q    Type
REMARK                         _______ _______ _______ _____ _____    ______ ____
ROOT
ATOM      1  C   UNL     1      -4.880   1.770  -1.249  0.00  0.00    +0.150 C 
ATOM      2  N   UNL     1      -4.285   1.317  -2.316  0.00  0.00    -0.184 NA
ENDROOT
BRANCH   1   3
ATOM      3  C   UNL     1      -6.325   2.194  -1.315  0.00  0.00    +0.214 C 
ATOM      4  C   UNL     1      -6.873   2.005  -2.715  0.00  0.00    +0.245 C 
ATOM      5  O   UNL     1      -6.970   0.964  -3.329  0.00  0.00    -0.273 OA
ATOM      6  N   UNL     1      -7.232   3.234  -3.135  0.00  0.00    -0.266 N 
ATOM      7  C   UNL     1      -6.990   4.164  -2.204  0.00  0.00    +0.137 C 
ATOM      8  S   UNL     1      -7.328   5.829  -2.411  0.00  0.00    -0.018 S 
ATOM      9  N   UNL     1      -6.450   3.644  -1.087  0.00  0.00    -0.310 N 
ATOM     10  H   UNL     1      -7.666   3.368  -4.137  0.00  0.00    +0.157 HD
ATOM     11  H   UNL     1      -6.123   4.081  -0.132  0.00  0.00    +0.149 HD
ENDBRANCH   1   3
BRANCH   1  13
ATOM     12  N   UNL     1      -4.798   2.183   1.149  0.00  0.00    -0.280 N 
ATOM     13  C   UNL     1      -4.146   1.867   0.012  0.00  0.00    +0.266 C 
ATOM     14  O   UNL     1      -2.946   1.662   0.035  0.00  0.00    -0.268 OA
ATOM     15  H   UNL     1      -5.888   2.324   1.136  0.00  0.00    +0.155 HD
BRANCH  12  21
ATOM     16  C   UNL     1      -4.438   4.145   5.641  0.00  0.00    +0.044 C 
ATOM     17  C   UNL     1      -3.889   3.276   4.539  0.00  0.00    -0.046 A 
ATOM     18  C   UNL     1      -2.684   2.620   4.711  0.00  0.00    +0.004 A 
ATOM     19  C   UNL     1      -2.177   1.823   3.701  0.00  0.00    +0.002 A 
ATOM     20  C   UNL     1      -2.873   1.679   2.518  0.00  0.00    +0.023 A 
ATOM     21  C   UNL     1      -4.087   2.331   2.344  0.00  0.00    +0.037 A 
ATOM     22  C   UNL     1      -4.591   3.136   3.358  0.00  0.00    -0.026 A 
ATOM     23  C   UNL     1      -5.904   3.851   3.171  0.00  0.00    +0.046 C 
ENDBRANCH  12  21
ENDBRANCH   1  13
BRANCH   2  24
ATOM     24  N   UNL     1      -2.902   1.093  -2.306  0.00  0.00    -0.263 N 
ATOM     25  H   UNL     1      -2.403   1.181  -1.479  0.00  0.00    +0.169 HD
BRANCH  24  26
ATOM     26  C   UNL     1      -2.210   0.727  -3.544  0.00  0.00    +0.041 C 
ATOM     27  C   UNL     1      -2.398   1.837  -4.580  0.00  0.00    +0.032 C 
ATOM     28  C   UNL     1      -0.719   0.542  -3.259  0.00  0.00    +0.032 C 
ATOM     29  C   UNL     1      -2.792  -0.580  -4.086  0.00  0.00    +0.032 C 
ENDBRANCH  24  26
ENDBRANCH   2  24
TORSDOF 5
