REMARK  Name = ZINC40500134
REMARK  10 active torsions:
REMARK  status: ('A' for Active; 'I' for Inactive)
REMARK    1  A    between atoms: C_1  and  C_2
REMARK    2  A    between atoms: C_5  and  O_8
REMARK    3  A    between atoms: O_8  and  C_9
REMARK    4  A    between atoms: C_9  and  C_10
REMARK    5  A    between atoms: C_10  and  C_12
REMARK    6  A    between atoms: C_10  and  N_13
REMARK    7  A    between atoms: C_14  and  C_16
REMARK    8  A    between atoms: C_16  and  C_18
REMARK    9  A    between atoms: C_16  and  N_22
REMARK   10  A    between atoms: C_18  and  C_19
REMARK                            x       y       z     vdW  Elec       q    Type
REMARK                         _______ _______ _______ _____ _____    ______ ____
ROOT
ATOM      1  N   UNL     1       1.344  -6.688   0.389  0.00  0.00    -0.311 N 
ATOM      2  C   UNL     1       1.825  -7.937   0.544  0.00  0.00    +0.199 C 
ATOM      3  O   UNL     1       1.221  -8.740   1.223  0.00  0.00    -0.278 OA
ATOM      4  H   UNL     1       1.827  -6.046  -0.154  0.00  0.00    +0.149 HD
ENDROOT
BRANCH   1   5
ATOM      5  C   UNL     1       0.090  -6.300   1.040  0.00  0.00    +0.107 C 
ATOM      6  C   UNL     1      -1.091  -6.708   0.157  0.00  0.00    +0.031 C 
BRANCH   5   7
ATOM      7  C   UNL     1       0.072  -4.785   1.249  0.00  0.00    +0.251 C 
BRANCH   7   8
ATOM      8  O   UNL     1       0.057  -4.129  -0.021  0.00  0.00    -0.490 OA
BRANCH   8  13
ATOM      9  C   UNL     1      -0.018   1.503   0.010  0.00  0.00    +0.044 C 
ATOM     10  C   UNL     1       0.002  -0.004   0.002  0.00  0.00    -0.050 A 
ATOM     11  C   UNL     1       0.006  -0.688  -1.200  0.00  0.00    +0.007 A 
ATOM     12  C   UNL     1       0.024  -2.069  -1.210  0.00  0.00    +0.046 A 
ATOM     13  C   UNL     1       0.039  -2.770  -0.013  0.00  0.00    +0.121 A 
ATOM     14  C   UNL     1       0.036  -2.082   1.191  0.00  0.00    +0.046 A 
ATOM     15  C   UNL     1       0.023  -0.701   1.196  0.00  0.00    +0.007 A 
ENDBRANCH   8  13
ENDBRANCH   7   8
ENDBRANCH   5   7
ENDBRANCH   1   5
BRANCH   2  16
ATOM     16  C   UNL     1       3.115  -8.336  -0.126  0.00  0.00    +0.021 C 
BRANCH  16  17
ATOM     17  N   UNL     1       3.186  -9.801  -0.218  0.00  0.00    +0.386 N 
ATOM     18  H   UNL     1       3.151 -10.198   0.709  0.00  0.00    -0.089 HD
ATOM     19  H   UNL     1       2.406 -10.142  -0.760  0.00  0.00    -0.089 HD
ATOM     20  H   UNL     1       4.050 -10.068  -0.667  0.00  0.00    -0.089 HD
ENDBRANCH  16  17
BRANCH  16  21
ATOM     21  C   UNL     1       4.298  -7.819   0.696  0.00  0.00    +0.088 C 
BRANCH  21  22
ATOM     22  C   UNL     1       5.583  -8.111  -0.036  0.00  0.00    +0.209 C 
ATOM     23  O   UNL     1       5.555  -8.676  -1.108  0.00  0.00    -0.276 OA
ATOM     24  N   UNL     1       6.763  -7.743   0.502  0.00  0.00    -0.329 N 
ATOM     25  H   UNL     1       6.785  -7.290   1.360  0.00  0.00    +0.145 HD
ATOM     26  H   UNL     1       7.590  -7.930   0.032  0.00  0.00    +0.145 HD
ENDBRANCH  21  22
ENDBRANCH  16  21
ENDBRANCH   2  16
TORSDOF 8
