REMARK  Name = ZINC61592323
REMARK  4 active torsions:
REMARK  status: ('A' for Active; 'I' for Inactive)
REMARK    1  A    between atoms: C_1  and  N_2
REMARK    2  A    between atoms: C_8  and  S_9
REMARK    3  A    between atoms: S_9  and  C_10
REMARK    4  A    between atoms: C_15  and  N_16
REMARK                            x       y       z     vdW  Elec       q    Type
REMARK                         _______ _______ _______ _____ _____    ______ ____
ROOT
ATOM      1  C   UNL     1       0.101  -1.675   3.844  0.00  0.00    +0.038 A 
ATOM      2  C   UNL     1       0.214  -2.940   3.293  0.00  0.00    +0.045 A 
ATOM      3  C   UNL     1       0.269  -4.055   4.128  0.00  0.00    +0.079 A 
ATOM      4  C   UNL     1       0.207  -3.880   5.530  0.00  0.00    +0.066 A 
ATOM      5  C   UNL     1       0.092  -2.599   6.074  0.00  0.00    +0.039 A 
ATOM      6  C   UNL     1       0.045  -1.504   5.235  0.00  0.00    +0.039 A 
ATOM      7  C   UNL     1       0.266  -5.077   6.378  0.00  0.00    +0.259 A 
ATOM      8  O   UNL     1       0.218  -4.995   7.591  0.00  0.00    -0.267 OA
ATOM      9  N   UNL     1       0.377  -6.275   5.758  0.00  0.00    -0.313 N 
ATOM     10  H   UNL     1       0.418  -7.087   6.287  0.00  0.00    +0.170 HD
ATOM     11  C   UNL     1       0.429  -6.351   4.402  0.00  0.00    +0.199 A 
ATOM     12  N   UNL     1       0.379  -5.312   3.627  0.00  0.00    -0.237 NA
ENDROOT
BRANCH   6  13
ATOM     13  N   UNL     1      -0.063  -0.218   5.774  0.00  0.00    -0.357 N 
ATOM     14  H   UNL     1      -0.100   0.553   5.187  0.00  0.00    +0.142 HD
ATOM     15  H   UNL     1      -0.101  -0.097   6.736  0.00  0.00    +0.142 HD
ENDBRANCH   6  13
BRANCH   1  16
ATOM     16  S   UNL     1       0.032  -0.266   2.788  0.00  0.00    -0.048 S 
BRANCH  16  24
ATOM     17  C   UNL     1      -1.452   2.322   1.446  0.00  0.00    +0.156 C 
ATOM     18  N   UNL     1      -2.200   1.319   2.210  0.00  0.00    -0.274 N 
ATOM     19  C   UNL     1      -3.528   1.332   2.440  0.00  0.00    +0.345 A 
ATOM     20  O   UNL     1      -4.318   2.174   2.052  0.00  0.00    -0.245 OA
ATOM     21  N   UNL     1      -3.824   0.241   3.178  0.00  0.00    -0.226 N 
ATOM     22  H   UNL     1      -4.703  -0.015   3.496  0.00  0.00    +0.194 HD
ATOM     23  N   UNL     1      -2.626  -0.453   3.399  0.00  0.00    -0.144 NA
ATOM     24  C   UNL     1      -1.667   0.201   2.810  0.00  0.00    +0.197 A 
ENDBRANCH  16  24
ENDBRANCH   1  16
TORSDOF 3
