REMARK  Name = ZINC12556684
REMARK  10 active torsions:
REMARK  status: ('A' for Active; 'I' for Inactive)
REMARK    1  A    between atoms: C_1  and  C_2
REMARK    2  A    between atoms: C_3  and  C_25
REMARK    3  A    between atoms: C_7  and  N_11
REMARK    4  A    between atoms: N_11  and  C_12
REMARK    5  A    between atoms: N_11  and  C_13
REMARK    6  A    between atoms: C_13  and  C_14
REMARK    7  A    between atoms: C_14  and  C_15
REMARK    8  A    between atoms: C_15  and  C_16
REMARK    9  A    between atoms: C_17  and  C_23
REMARK   10  A    between atoms: C_18  and  N_22
REMARK                            x       y       z     vdW  Elec       q    Type
REMARK                         _______ _______ _______ _____ _____    ______ ____
ROOT
ATOM      1  C   UNL     1      -0.713   1.644   1.223  0.00  0.00    +0.106 C 
ENDROOT
BRANCH   1   2
ATOM      2  N   UNL     1      -0.086   1.177   2.467  0.00  0.00    -0.318 N 
ATOM      3  C   UNL     1       1.175   1.887   2.720  0.00  0.00    +0.130 C 
BRANCH   2  10
ATOM      4  C   UNL     1       0.138  -1.601   3.157  0.00  0.00    +0.045 C 
ATOM      5  C   UNL     1      -0.819  -1.192   4.246  0.00  0.00    -0.028 A 
ATOM      6  C   UNL     1      -1.262  -2.094   5.135  0.00  0.00    -0.008 A 
ATOM      7  S   UNL     1      -2.340  -1.144   6.191  0.00  0.00    -0.074 S 
ATOM      8  C   UNL     1      -2.167   0.439   5.410  0.00  0.00    +0.114 A 
ATOM      9  C   UNL     1      -1.278   0.183   4.343  0.00  0.00    +0.051 A 
ATOM     10  C   UNL     1      -0.953   1.309   3.538  0.00  0.00    +0.133 A 
ATOM     11  N   UNL     1      -1.494   2.483   3.821  0.00  0.00    -0.220 NA
ATOM     12  C   UNL     1      -2.325   2.648   4.835  0.00  0.00    +0.224 A 
ATOM     13  N   UNL     1      -2.660   1.643   5.621  0.00  0.00    -0.228 NA
ATOM     14  C   UNL     1      -0.927  -3.561   5.221  0.00  0.00    +0.052 C 
ENDBRANCH   2  10
ENDBRANCH   1   2
BRANCH   1  15
ATOM     15  C   UNL     1       0.168   1.257   0.033  0.00  0.00    +0.025 C 
BRANCH  15  16
ATOM     16  C   UNL     1      -0.484   1.743  -1.263  0.00  0.00    +0.060 C 
BRANCH  16  17
ATOM     17  C   UNL     1       0.383   1.362  -2.435  0.00  0.00    +0.082 A 
ATOM     18  C   UNL     1       0.300   0.157  -3.171  0.00  0.00    +0.113 A 
ATOM     19  C   UNL     1       1.278   0.217  -4.160  0.00  0.00    +0.129 A 
ATOM     20  N   UNL     1       1.913   1.399  -4.021  0.00  0.00    -0.263 N 
ATOM     21  H   UNL     1       2.669   1.727  -4.588  0.00  0.00    +0.190 HD
ATOM     22  N   UNL     1       1.335   2.089  -2.949  0.00  0.00    -0.176 NA
BRANCH  19  23
ATOM     23  N   UNL     1       1.548  -0.753  -5.107  0.00  0.00    -0.342 N 
ATOM     24  H   UNL     1       1.031  -1.573  -5.122  0.00  0.00    +0.144 HD
ATOM     25  H   UNL     1       2.256  -0.614  -5.756  0.00  0.00    +0.144 HD
ENDBRANCH  19  23
BRANCH  18  26
ATOM     26  C   UNL     1      -0.616  -0.919  -2.943  0.00  0.00    +0.104 C 
ATOM     27  N   UNL     1      -1.343  -1.773  -2.762  0.00  0.00    -0.191 NA
ENDBRANCH  18  26
ENDBRANCH  16  17
ENDBRANCH  15  16
ENDBRANCH   1  15
TORSDOF 7
