REMARK  Name = ZINC63846442
REMARK  5 active torsions:
REMARK  status: ('A' for Active; 'I' for Inactive)
REMARK    1  A    between atoms: C_1  and  N_2
REMARK    2  A    between atoms: C_9  and  N_12
REMARK    3  A    between atoms: C_13  and  C_15
REMARK    4  A    between atoms: C_15  and  N_16
REMARK    5  A    between atoms: C_18  and  C_21
REMARK                            x       y       z     vdW  Elec       q    Type
REMARK                         _______ _______ _______ _____ _____    ______ ____
ROOT
ATOM      1  N   UNL     1       3.813  -5.393   1.923  0.00  0.00    -0.262 N 
ATOM      2  C   UNL     1       5.060  -5.419   2.435  0.00  0.00    +0.117 A 
ATOM      3  C   UNL     1       5.739  -6.429   1.818  0.00  0.00    +0.020 A 
ATOM      4  C   UNL     1       4.859  -7.032   0.898  0.00  0.00    +0.142 A 
ATOM      5  N   UNL     1       3.710  -6.413   0.970  0.00  0.00    -0.179 NA
ENDROOT
BRANCH   3   6
ATOM      6  C   UNL     1       7.148  -6.822   2.070  0.00  0.00    -0.014 A 
ATOM      7  C   UNL     1       7.903  -6.131   3.024  0.00  0.00    +0.011 A 
ATOM      8  C   UNL     1       9.200  -6.475   3.272  0.00  0.00    +0.029 A 
ATOM      9  C   UNL     1       9.790  -7.529   2.569  0.00  0.00    +0.078 A 
ATOM     10  C   UNL     1       9.033  -8.232   1.604  0.00  0.00    +0.065 A 
ATOM     11  C   UNL     1       7.709  -7.877   1.362  0.00  0.00    +0.024 A 
ATOM     12  C   UNL     1       9.686  -9.335   0.883  0.00  0.00    +0.259 A 
ATOM     13  O   UNL     1       9.091  -9.979   0.040  0.00  0.00    -0.267 OA
ATOM     14  N   UNL     1      10.976  -9.605   1.194  0.00  0.00    -0.313 N 
ATOM     15  H   UNL     1      11.439 -10.325   0.739  0.00  0.00    +0.170 HD
ATOM     16  C   UNL     1      11.627  -8.875   2.138  0.00  0.00    +0.199 A 
ATOM     17  N   UNL     1      11.076  -7.897   2.790  0.00  0.00    -0.237 NA
ENDBRANCH   3   6
BRANCH   1  18
ATOM     18  C   UNL     1       2.748  -4.462   2.303  0.00  0.00    +0.239 C 
BRANCH  18  20
ATOM     19  N   UNL     1       1.240  -2.854   1.181  0.00  0.00    -0.293 N 
ATOM     20  C   UNL     1       2.230  -3.762   1.073  0.00  0.00    +0.236 C 
ATOM     21  O   UNL     1       2.704  -4.015  -0.014  0.00  0.00    -0.274 OA
ATOM     22  H   UNL     1       0.861  -2.651   2.051  0.00  0.00    +0.151 HD
BRANCH  19  31
ATOM     23  C   UNL     1      -0.018   1.461   0.010  0.00  0.00    +0.150 C 
ATOM     24  N   UNL     1       0.002  -0.004   0.002  0.00  0.00    -0.268 N 
ATOM     25  C   UNL     1      -1.140  -0.802   0.003  0.00  0.00    +0.050 A 
ATOM     26  C   UNL     1      -2.492  -0.470   0.012  0.00  0.00    +0.025 A 
ATOM     27  C   UNL     1      -3.449  -1.464   0.012  0.00  0.00    +0.002 A 
ATOM     28  C   UNL     1      -3.072  -2.795   0.003  0.00  0.00    +0.000 A 
ATOM     29  C   UNL     1      -1.730  -3.133  -0.007  0.00  0.00    +0.009 A 
ATOM     30  C   UNL     1      -0.773  -2.143  -0.006  0.00  0.00    +0.011 A 
ATOM     31  C   UNL     1       0.737  -2.173  -0.014  0.00  0.00    +0.191 C 
ATOM     32  N   UNL     1       1.139  -0.754  -0.013  0.00  0.00    -0.216 NA
ATOM     33  H   UNL     1       1.721  -0.545   0.784  0.00  0.00    +0.147 HD
ENDBRANCH  19  31
ENDBRANCH  18  20
ENDBRANCH   1  18
TORSDOF 4
