REMARK  Name = ZINC66939652
REMARK  8 active torsions:
REMARK  status: ('A' for Active; 'I' for Inactive)
REMARK    1  A    between atoms: C_3  and  S_21
REMARK    2  A    between atoms: C_6  and  C_7
REMARK    3  A    between atoms: C_7  and  N_8
REMARK    4  A    between atoms: N_8  and  C_9
REMARK    5  A    between atoms: C_9  and  C_11
REMARK    6  A    between atoms: C_9  and  C_18
REMARK    7  A    between atoms: S_21  and  N_24
REMARK    8  A    between atoms: N_24  and  C_25
REMARK                            x       y       z     vdW  Elec       q    Type
REMARK                         _______ _______ _______ _____ _____    ______ ____
ROOT
ATOM      1  C   UNL     1      -1.293  -0.775   0.011  0.00  0.00    +0.117 C 
ENDROOT
BRANCH   1   7
ATOM      2  C   UNL     1      -0.017   1.378   0.010  0.00  0.00    +0.007 A 
ATOM      3  C   UNL     1       1.171   2.086   0.002  0.00  0.00    +0.029 A 
ATOM      4  C   UNL     1       2.377   1.411  -0.013  0.00  0.00    +0.105 A 
ATOM      5  C   UNL     1       2.396   0.029  -0.020  0.00  0.00    +0.029 A 
ATOM      6  C   UNL     1       1.208  -0.679  -0.012  0.00  0.00    +0.007 A 
ATOM      7  C   UNL     1       0.002  -0.004   0.002  0.00  0.00    -0.033 A 
BRANCH   4   8
ATOM      8  S   UNL     1       3.891   2.312  -0.024  0.00  0.00    +0.059 S 
ATOM      9  O   UNL     1       4.872   1.453  -0.588  0.00  0.00    -0.153 OA
ATOM     10  O   UNL     1       3.597   3.593  -0.566  0.00  0.00    -0.153 OA
BRANCH   8  11
ATOM     11  N   UNL     1       4.327   2.556   1.555  0.00  0.00    -0.187 NA
ATOM     12  H   UNL     1       4.356   3.455   1.917  0.00  0.00    +0.148 HD
BRANCH  11  13
ATOM     13  C   UNL     1       4.670   1.412   2.405  0.00  0.00    +0.077 C 
ATOM     14  C   UNL     1       4.307   1.501   3.888  0.00  0.00    +0.022 C 
ATOM     15  C   UNL     1       5.769   1.614   3.450  0.00  0.00    +0.022 C 
ENDBRANCH  11  13
ENDBRANCH   8  11
ENDBRANCH   4   8
ENDBRANCH   1   7
BRANCH   1  16
ATOM     16  N   UNL     1      -1.727  -1.018  -1.371  0.00  0.00    -0.298 NA
ATOM     17  H   UNL     1      -1.809  -0.152  -1.882  0.00  0.00    +0.123 HD
BRANCH  16  18
ATOM     18  C   UNL     1      -2.989  -1.770  -1.402  0.00  0.00    +0.171 C 
BRANCH  18  19
ATOM     19  C   UNL     1      -3.711  -1.486  -2.694  0.00  0.00    -0.021 A 
ATOM     20  C   UNL     1      -3.001  -1.397  -3.877  0.00  0.00    +0.008 A 
ATOM     21  C   UNL     1      -3.662  -1.137  -5.062  0.00  0.00    +0.038 A 
ATOM     22  C   UNL     1      -5.036  -0.967  -5.065  0.00  0.00    +0.123 A 
ATOM     23  C   UNL     1      -5.746  -1.057  -3.880  0.00  0.00    +0.038 A 
ATOM     24  C   UNL     1      -5.084  -1.322  -2.697  0.00  0.00    +0.008 A 
ATOM     25  F   UNL     1      -5.683  -0.713  -6.224  0.00  0.00    -0.205 F 
ENDBRANCH  18  19
BRANCH  18  26
ATOM     26  C   UNL     1      -2.698  -3.245  -1.302  0.00  0.00    +0.232 C 
ATOM     27  O   UNL     1      -1.552  -3.632  -1.215  0.00  0.00    -0.274 OA
ATOM     28  N   UNL     1      -3.711  -4.134  -1.311  0.00  0.00    -0.328 N 
ATOM     29  H   UNL     1      -4.628  -3.824  -1.381  0.00  0.00    +0.145 HD
ATOM     30  H   UNL     1      -3.524  -5.083  -1.247  0.00  0.00    +0.145 HD
ENDBRANCH  18  26
ENDBRANCH  16  18
ENDBRANCH   1  16
TORSDOF 8
