REMARK  Name = ZINC48661500
REMARK  6 active torsions:
REMARK  status: ('A' for Active; 'I' for Inactive)
REMARK    1  A    between atoms: C_1  and  C_2
REMARK    2  A    between atoms: C_2  and  C_4
REMARK    3  A    between atoms: C_2  and  N_14
REMARK    4  A    between atoms: C_15  and  C_17
REMARK    5  A    between atoms: N_19  and  C_20
REMARK    6  A    between atoms: C_24  and  C_26
REMARK                            x       y       z     vdW  Elec       q    Type
REMARK                         _______ _______ _______ _____ _____    ______ ____
ROOT
ATOM      1  N   UNL     1       0.807  -0.183   1.289  0.00  0.00    -0.304 N 
ATOM      2  C   UNL     1       0.106  -0.483   2.400  0.00  0.00    +0.300 C 
ATOM      3  O   UNL     1      -1.101  -0.357   2.409  0.00  0.00    -0.265 OA
ATOM      4  H   UNL     1       1.772  -0.283   1.282  0.00  0.00    +0.149 HD
ENDROOT
BRANCH   2   5
ATOM      5  C   UNL     1       0.815  -0.972   3.621  0.00  0.00    +0.303 C 
ATOM      6  O   UNL     1       2.022  -1.098   3.612  0.00  0.00    -0.265 OA
ATOM      7  N   UNL     1       0.114  -1.272   4.732  0.00  0.00    -0.278 N 
ATOM      8  H   UNL     1      -0.840  -1.099   4.765  0.00  0.00    +0.155 HD
BRANCH   7   9
ATOM      9  C   UNL     1       0.762  -1.833   5.836  0.00  0.00    +0.035 A 
ATOM     10  C   UNL     1       0.326  -1.536   7.123  0.00  0.00    +0.023 A 
ATOM     11  C   UNL     1       0.964  -2.088   8.218  0.00  0.00    +0.003 A 
ATOM     12  C   UNL     1       2.037  -2.938   8.041  0.00  0.00    +0.013 A 
ATOM     13  C   UNL     1       2.481  -3.243   6.754  0.00  0.00    +0.040 A 
ATOM     14  C   UNL     1       1.835  -2.691   5.649  0.00  0.00    +0.036 A 
BRANCH  13  15
ATOM     15  C   UNL     1       3.630  -4.154   6.563  0.00  0.00    +0.248 A 
ATOM     16  N   UNL     1       4.152  -4.519   5.415  0.00  0.00    -0.108 NA
ATOM     17  N   UNL     1       5.137  -5.317   5.631  0.00  0.00    -0.116 NA
ATOM     18  C   UNL     1       5.283  -5.492   6.915  0.00  0.00    +0.332 A 
ATOM     19  O   UNL     1       4.341  -4.759   7.535  0.00  0.00    -0.423 OA
ENDBRANCH  13  15
ENDBRANCH   7   9
ENDBRANCH   2   5
BRANCH   1  21
ATOM     20  C   UNL     1      -0.095   1.809   0.193  0.00  0.00    +0.028 C 
ATOM     21  C   UNL     1       0.112   0.297   0.092  0.00  0.00    +0.076 C 
BRANCH  21  22
ATOM     22  C   UNL     1       0.951  -0.021  -1.147  0.00  0.00    -0.010 C 
ATOM     23  C   UNL     1       1.158  -1.534  -1.249  0.00  0.00    +0.012 C 
ATOM     24  C   UNL     1       1.998  -1.852  -2.488  0.00  0.00    -0.010 C 
ATOM     25  C   UNL     1       1.271  -1.351  -3.738  0.00  0.00    +0.007 C 
ATOM     26  C   UNL     1       1.065   0.161  -3.636  0.00  0.00    -0.010 C 
ATOM     27  C   UNL     1       0.225   0.479  -2.397  0.00  0.00    +0.012 C 
ATOM     28  C   UNL     1       2.423   0.855  -3.524  0.00  0.00    +0.007 C 
ATOM     29  C   UNL     1       3.149   0.355  -2.273  0.00  0.00    -0.010 C 
ATOM     30  C   UNL     1       3.356  -1.158  -2.375  0.00  0.00    +0.007 C 
ATOM     31  C   UNL     1       2.310   0.673  -1.034  0.00  0.00    +0.012 C 
ENDBRANCH  21  22
ENDBRANCH   1  21
TORSDOF 5
