REMARK  Name = ZINC51667420
REMARK  7 active torsions:
REMARK  status: ('A' for Active; 'I' for Inactive)
REMARK    1  A    between atoms: C_3  and  C_9
REMARK    2  A    between atoms: C_5  and  C_7
REMARK    3  A    between atoms: C_9  and  N_10
REMARK    4  A    between atoms: N_10  and  C_11
REMARK    5  A    between atoms: C_14  and  S_18
REMARK    6  A    between atoms: C_16  and  N_17
REMARK    7  A    between atoms: S_18  and  N_21
REMARK                            x       y       z     vdW  Elec       q    Type
REMARK                         _______ _______ _______ _____ _____    ______ ____
ROOT
ATOM      1  C   UNL     1       5.280   3.165   1.603  0.00  0.00    +0.048 A 
ATOM      2  C   UNL     1       6.038   3.644   0.545  0.00  0.00    +0.027 A 
ATOM      3  C   UNL     1       7.201   4.350   0.792  0.00  0.00    +0.030 A 
ATOM      4  C   UNL     1       7.613   4.579   2.092  0.00  0.00    +0.107 A 
ATOM      5  C   UNL     1       6.863   4.105   3.153  0.00  0.00    +0.053 A 
ATOM      6  C   UNL     1       5.693   3.401   2.914  0.00  0.00    +0.048 A 
ENDROOT
BRANCH   6   7
ATOM      7  N   UNL     1       4.929   2.924   3.987  0.00  0.00    -0.356 N 
ATOM      8  H   UNL     1       4.113   2.429   3.819  0.00  0.00    +0.142 HD
ATOM      9  H   UNL     1       5.218   3.089   4.899  0.00  0.00    +0.142 HD
ENDBRANCH   6   7
BRANCH   4  10
ATOM     10  S   UNL     1       9.097   5.479   2.397  0.00  0.00    +0.056 S 
ATOM     11  O   UNL     1       9.550   5.088   3.687  0.00  0.00    -0.153 OA
ATOM     12  O   UNL     1       9.901   5.343   1.234  0.00  0.00    -0.153 OA
BRANCH  10  13
ATOM     13  N   UNL     1       8.686   7.079   2.505  0.00  0.00    -0.204 NA
ATOM     14  H   UNL     1       7.761   7.351   2.400  0.00  0.00    +0.144 HD
ATOM     15  H   UNL     1       9.371   7.745   2.672  0.00  0.00    +0.144 HD
ENDBRANCH  10  13
ENDBRANCH   4  10
BRANCH   1  16
ATOM     16  N   UNL     1       4.102   2.451   1.356  0.00  0.00    -0.338 N 
ATOM     17  H   UNL     1       3.571   2.119   2.097  0.00  0.00    +0.146 HD
BRANCH  16  18
ATOM     18  C   UNL     1       3.671   2.204  -0.023  0.00  0.00    +0.137 C 
BRANCH  18  21
ATOM     19  C   UNL     1      -0.017   1.375   0.010  0.00  0.00    +0.002 A 
ATOM     20  C   UNL     1       1.170   2.086   0.002  0.00  0.00    +0.005 A 
ATOM     21  C   UNL     1       2.383   1.421  -0.013  0.00  0.00    -0.029 A 
ATOM     22  C   UNL     1       2.416   0.041  -0.021  0.00  0.00    +0.024 A 
ATOM     23  C   UNL     1       1.223  -0.682  -0.013  0.00  0.00    +0.052 A 
ATOM     24  C   UNL     1       0.002  -0.004   0.002  0.00  0.00    +0.019 A 
BRANCH  23  25
ATOM     25  C   UNL     1       1.250  -2.114  -0.022  0.00  0.00    +0.099 C 
ATOM     26  N   UNL     1       1.271  -3.250  -0.029  0.00  0.00    -0.191 NA
ENDBRANCH  23  25
ENDBRANCH  18  21
ENDBRANCH  16  18
ENDBRANCH   1  16
TORSDOF 7
