REMARK  Name = ZINC39984219
REMARK  8 active torsions:
REMARK  status: ('A' for Active; 'I' for Inactive)
REMARK    1  A    between atoms: C_1  and  O_2
REMARK    2  A    between atoms: O_2  and  C_3
REMARK    3  A    between atoms: C_6  and  O_31
REMARK    4  A    between atoms: C_9  and  C_14
REMARK    5  A    between atoms: N_16  and  C_17
REMARK    6  A    between atoms: C_17  and  C_18
REMARK    7  A    between atoms: C_18  and  N_20
REMARK    8  A    between atoms: O_31  and  C_32
REMARK                            x       y       z     vdW  Elec       q    Type
REMARK                         _______ _______ _______ _____ _____    ______ ____
ROOT
ATOM      1  C   UNL     1      -0.812  -5.121  -1.162  0.00  0.00    +0.234 C 
ATOM      2  O   UNL     1      -0.290  -5.371  -0.097  0.00  0.00    -0.274 OA
ATOM      3  N   UNL     1      -1.180  -6.123  -1.985  0.00  0.00    -0.305 N 
ATOM      4  H   UNL     1      -1.597  -5.923  -2.837  0.00  0.00    +0.149 HD
ENDROOT
BRANCH   1  11
ATOM      5  C   UNL     1       0.530  -0.597  -1.012  0.00  0.00    +0.119 C 
ATOM      6  C   UNL     1       1.071   0.150  -1.988  0.00  0.00    +0.046 C 
ATOM      7  C   UNL     1       1.742  -0.419  -3.154  0.00  0.00    +0.049 C 
ATOM      8  C   UNL     1       1.508  -1.722  -3.509  0.00  0.00    +0.125 C 
ATOM      9  C   UNL     1       0.600  -2.436  -2.589  0.00  0.00    +0.017 C 
ATOM     10  C   UNL     1      -0.285  -3.377  -2.829  0.00  0.00    +0.010 C 
ATOM     11  C   UNL     1      -1.051  -3.689  -1.566  0.00  0.00    +0.165 C 
ATOM     12  N   UNL     1      -0.551  -2.776  -0.518  0.00  0.00    -0.289 NA
ATOM     13  C   UNL     1       0.607  -2.097  -1.105  0.00  0.00    +0.154 C 
ATOM     14  H   UNL     1      -1.261  -2.114  -0.246  0.00  0.00    +0.124 HD
BRANCH   5  16
ATOM     15  C   UNL     1      -0.106   1.423   0.063  0.00  0.00    +0.276 C 
ATOM     16  O   UNL     1      -0.074  -0.006   0.048  0.00  0.00    -0.497 OA
ENDBRANCH   5  16
BRANCH   8  17
ATOM     17  O   UNL     1       2.061  -2.304  -4.606  0.00  0.00    -0.495 OA
ATOM     18  C   UNL     1       2.922  -1.491  -5.406  0.00  0.00    +0.277 C 
ENDBRANCH   8  17
ENDBRANCH   1  11
BRANCH   3  19
ATOM     19  C   UNL     1      -0.948  -7.515  -1.592  0.00  0.00    +0.202 C 
BRANCH  19  20
ATOM     20  C   UNL     1      -1.445  -8.434  -2.679  0.00  0.00    +0.256 C 
ATOM     21  O   UNL     1      -1.945  -7.969  -3.685  0.00  0.00    -0.272 OA
BRANCH  20  22
ATOM     22  N   UNL     1      -1.337  -9.750  -2.537  0.00  0.00    -0.155 NA
ATOM     23  C   UNL     1      -1.869 -10.563  -3.447  0.00  0.00    +0.164 A 
ATOM     24  N   UNL     1      -2.452 -10.226  -4.625  0.00  0.00    -0.335 N 
ATOM     25  H   UNL     1      -2.517  -9.294  -4.886  0.00  0.00    +0.168 HD
ATOM     26  C   UNL     1      -2.954 -11.214  -5.451  0.00  0.00    +0.055 A 
ATOM     27  C   UNL     1      -3.588 -11.090  -6.696  0.00  0.00    +0.027 A 
ATOM     28  C   UNL     1      -4.023 -12.205  -7.374  0.00  0.00    +0.002 A 
ATOM     29  C   UNL     1      -3.850 -13.476  -6.851  0.00  0.00    +0.001 A 
ATOM     30  C   UNL     1      -3.227 -13.625  -5.624  0.00  0.00    +0.017 A 
ATOM     31  C   UNL     1      -2.791 -12.512  -4.946  0.00  0.00    +0.039 A 
ATOM     32  S   UNL     1      -1.964 -12.241  -3.400  0.00  0.00    -0.052 S 
ENDBRANCH  20  22
ENDBRANCH  19  20
ENDBRANCH   3  19
TORSDOF 6
