REMARK  Name = ZINC08284663
REMARK  7 active torsions:
REMARK  status: ('A' for Active; 'I' for Inactive)
REMARK    1  A    between atoms: C_1  and  C_2
REMARK    2  A    between atoms: C_3  and  C_23
REMARK    3  A    between atoms: C_7  and  N_11
REMARK    4  A    between atoms: N_11  and  N_12
REMARK    5  A    between atoms: C_13  and  C_14
REMARK    6  A    between atoms: C_13  and  C_15
REMARK    7  A    between atoms: C_20  and  O_21
REMARK                            x       y       z     vdW  Elec       q    Type
REMARK                         _______ _______ _______ _____ _____    ______ ____
ROOT
ATOM      1  N   UNL     1       0.262   1.092   2.839  0.00  0.00    -0.220 N 
ATOM      2  H   UNL     1       0.110   1.724   2.119  0.00  0.00    +0.176 HD
ENDROOT
BRANCH   1   9
ATOM      3  C   UNL     1      -1.604   1.383   0.675  0.00  0.00    +0.045 C 
ATOM      4  C   UNL     1      -1.431  -0.112   0.602  0.00  0.00    -0.028 A 
ATOM      5  C   UNL     1      -2.089  -0.827  -0.322  0.00  0.00    -0.008 A 
ATOM      6  S   UNL     1      -1.564  -2.501  -0.005  0.00  0.00    -0.074 S 
ATOM      7  C   UNL     1      -0.474  -2.196   1.360  0.00  0.00    +0.114 A 
ATOM      8  C   UNL     1      -0.545  -0.795   1.528  0.00  0.00    +0.052 A 
ATOM      9  C   UNL     1       0.256  -0.267   2.579  0.00  0.00    +0.150 A 
ATOM     10  N   UNL     1       0.995  -1.091   3.305  0.00  0.00    -0.219 NA
ATOM     11  C   UNL     1       1.015  -2.394   3.086  0.00  0.00    +0.224 A 
ATOM     12  N   UNL     1       0.287  -2.944   2.133  0.00  0.00    -0.228 NA
ATOM     13  C   UNL     1      -3.045  -0.333  -1.377  0.00  0.00    +0.052 C 
ENDBRANCH   1   9
BRANCH   1  14
ATOM     14  N   UNL     1       0.488   1.554   4.142  0.00  0.00    -0.185 NA
ATOM     15  C   UNL     1       0.494   2.829   4.386  0.00  0.00    +0.067 C 
ATOM     16  C   UNL     1       0.258   3.812   3.268  0.00  0.00    +0.068 C 
BRANCH  15  17
ATOM     17  C   UNL     1       0.732   3.316   5.757  0.00  0.00    +0.040 A 
ATOM     18  C   UNL     1       0.733   4.687   6.025  0.00  0.00    +0.033 A 
ATOM     19  C   UNL     1       0.957   5.136   7.311  0.00  0.00    +0.042 A 
ATOM     20  C   UNL     1       1.179   4.232   8.337  0.00  0.00    +0.023 A 
ATOM     21  C   UNL     1       1.179   2.873   8.083  0.00  0.00    +0.047 A 
ATOM     22  C   UNL     1       0.951   2.406   6.800  0.00  0.00    +0.126 A 
ATOM     23 CL   UNL     1       0.959   6.840   7.644  0.00  0.00    -0.084 Cl
BRANCH  22  24
ATOM     24  O   UNL     1       0.946   1.070   6.551  0.00  0.00    -0.506 OA
ATOM     25  H   UNL     1       1.813   0.710   6.319  0.00  0.00    +0.292 HD
ENDBRANCH  22  24
ENDBRANCH  15  17
ENDBRANCH   1  14
TORSDOF 4
