REMARK  Name = ZINC63303026
REMARK  8 active torsions:
REMARK  status: ('A' for Active; 'I' for Inactive)
REMARK    1  A    between atoms: C_1  and  O_2
REMARK    2  A    between atoms: O_2  and  C_3
REMARK    3  A    between atoms: C_6  and  C_9
REMARK    4  A    between atoms: C_9  and  C_10
REMARK    5  A    between atoms: C_10  and  N_11
REMARK    6  A    between atoms: C_12  and  C_14
REMARK    7  A    between atoms: C_17  and  C_21
REMARK    8  A    between atoms: C_21  and  C_22
REMARK                            x       y       z     vdW  Elec       q    Type
REMARK                         _______ _______ _______ _____ _____    ______ ____
ROOT
ATOM      1  C   UNL     1       6.620  -4.335  -6.328  0.00  0.00    +0.297 C 
ATOM      2  N   UNL     1       6.126  -5.728  -6.480  0.00  0.00    -0.265 NA
ATOM      3  C   UNL     1       6.390  -6.012  -7.916  0.00  0.00    +0.154 C 
ATOM      4  N   UNL     1       6.111  -4.719  -8.584  0.00  0.00    -0.181 NA
ATOM      5  O   UNL     1       6.256  -3.676  -7.555  0.00  0.00    -0.270 OA
ATOM      6  H   UNL     1       6.641  -6.361  -5.886  0.00  0.00    +0.126 HD
ATOM      7  H   UNL     1       5.184  -4.709  -8.981  0.00  0.00    +0.156 HD
ENDROOT
BRANCH   1   9
ATOM      8  N   UNL     1       4.636  -3.373  -5.207  0.00  0.00    -0.312 N 
ATOM      9  C   UNL     1       5.951  -3.666  -5.155  0.00  0.00    +0.259 C 
ATOM     10  O   UNL     1       6.595  -3.392  -4.164  0.00  0.00    -0.271 OA
ATOM     11  H   UNL     1       4.121  -3.592  -5.999  0.00  0.00    +0.149 HD
BRANCH   8  12
ATOM     12  C   UNL     1       3.986  -2.723  -4.066  0.00  0.00    +0.109 C 
BRANCH  12  13
ATOM     13  C   UNL     1       2.505  -2.503  -4.381  0.00  0.00    +0.054 C 
BRANCH  13  17
ATOM     14  C   UNL     1       0.606  -0.607  -1.056  0.00  0.00    +0.120 A 
ATOM     15  C   UNL     1       1.173   0.161  -2.062  0.00  0.00    +0.046 A 
ATOM     16  C   UNL     1       1.786  -0.455  -3.136  0.00  0.00    +0.007 A 
ATOM     17  C   UNL     1       1.835  -1.835  -3.209  0.00  0.00    -0.046 A 
ATOM     18  C   UNL     1       1.270  -2.602  -2.207  0.00  0.00    +0.007 A 
ATOM     19  C   UNL     1       0.661  -1.992  -1.128  0.00  0.00    +0.046 A 
BRANCH  14  21
ATOM     20  C   UNL     1      -0.017   1.425   0.010  0.00  0.00    +0.277 C 
ATOM     21  O   UNL     1       0.002  -0.004   0.002  0.00  0.00    -0.495 OA
ENDBRANCH  14  21
ENDBRANCH  13  17
ENDBRANCH  12  13
ENDBRANCH   8  12
ENDBRANCH   1   9
BRANCH   3  22
ATOM     22  C   UNL     1       5.447  -7.101  -8.431  0.00  0.00    +0.070 C 
BRANCH  22  23
ATOM     23  C   UNL     1       5.816  -7.456  -9.849  0.00  0.00    -0.039 C 
ATOM     24  C   UNL     1       6.615  -8.469 -10.252  0.00  0.00    -0.001 A 
ATOM     25  C   UNL     1       7.353  -9.505  -9.520  0.00  0.00    +0.010 A 
ATOM     26  C   UNL     1       8.086 -10.404 -10.216  0.00  0.00    +0.001 A 
ATOM     27  C   UNL     1       8.159 -10.371 -11.615  0.00  0.00    +0.002 A 
ATOM     28  C   UNL     1       7.508  -9.450 -12.357  0.00  0.00    +0.026 A 
ATOM     29  C   UNL     1       6.707  -8.456 -11.730  0.00  0.00    +0.043 A 
ATOM     30  N   UNL     1       5.993  -7.473 -12.221  0.00  0.00    -0.380 N 
ATOM     31  C   UNL     1       5.361  -6.753 -11.109  0.00  0.00    +0.144 C 
ATOM     32  H   UNL     1       5.896  -7.259 -13.162  0.00  0.00    +0.160 HD
ENDBRANCH  22  23
ENDBRANCH   3  22
TORSDOF 7
