REMARK  Name = ZINC10368846
REMARK  7 active torsions:
REMARK  status: ('A' for Active; 'I' for Inactive)
REMARK    1  A    between atoms: C_1  and  C_2
REMARK    2  A    between atoms: N_4  and  C_27
REMARK    3  A    between atoms: N_13  and  C_18
REMARK    4  A    between atoms: N_16  and  C_17
REMARK    5  A    between atoms: C_18  and  C_19
REMARK    6  A    between atoms: C_27  and  C_28
REMARK    7  A    between atoms: N_30  and  N_31
REMARK                            x       y       z     vdW  Elec       q    Type
REMARK                         _______ _______ _______ _____ _____    ______ ____
ROOT
ATOM      1  C   UNL     1       1.661   7.095  -0.574  0.00  0.00    +0.064 C 
ATOM      2  C   UNL     1       0.926   5.817  -0.261  0.00  0.00    +0.054 C 
ATOM      3  N   UNL     1      -0.343   5.849  -0.246  0.00  0.00    -0.184 NA
ATOM      4  N   UNL     1      -1.130   4.718   0.026  0.00  0.00    -0.184 N 
ATOM      5  C   UNL     1      -0.493   3.492   0.022  0.00  0.00    +0.221 A 
ATOM      6  N   UNL     1      -1.000   2.287   0.019  0.00  0.00    -0.195 NA
ATOM      7  C   UNL     1      -0.017   1.381   0.010  0.00  0.00    +0.170 A 
ATOM      8  C   UNL     1       1.195   2.070   0.002  0.00  0.00    +0.153 A 
ATOM      9  N   UNL     1       0.873   3.410   0.012  0.00  0.00    -0.299 N 
ATOM     10  C   UNL     1       1.743   4.585   0.016  0.00  0.00    +0.177 C 
ATOM     11  C   UNL     1       2.396   1.337  -0.014  0.00  0.00    +0.283 A 
ATOM     12  O   UNL     1       3.469   1.915  -0.022  0.00  0.00    -0.265 OA
ATOM     13  N   UNL     1       2.350  -0.011  -0.020  0.00  0.00    -0.255 N 
ATOM     14  C   UNL     1       1.175  -0.664  -0.013  0.00  0.00    +0.334 A 
ATOM     15  O   UNL     1       1.172  -1.880  -0.019  0.00  0.00    -0.246 OA
ATOM     16  N   UNL     1       0.002  -0.004   0.002  0.00  0.00    -0.279 N 
ATOM     17  C   UNL     1      -1.258  -0.752   0.010  0.00  0.00    +0.155 C 
ENDROOT
BRANCH  13  18
ATOM     18  C   UNL     1       3.600  -0.775  -0.037  0.00  0.00    +0.169 C 
BRANCH  18  19
ATOM     19  C   UNL     1       4.014  -1.030  -1.463  0.00  0.00    +0.026 A 
ATOM     20  C   UNL     1       4.830  -0.123  -2.119  0.00  0.00    +0.130 A 
ATOM     21  C   UNL     1       5.211  -0.358  -3.429  0.00  0.00    +0.039 A 
ATOM     22  C   UNL     1       4.777  -1.497  -4.082  0.00  0.00    +0.004 A 
ATOM     23  C   UNL     1       3.962  -2.401  -3.427  0.00  0.00    +0.020 A 
ATOM     24  C   UNL     1       3.585  -2.171  -2.116  0.00  0.00    +0.049 A 
ATOM     25 CL   UNL     1       2.567  -3.311  -1.292  0.00  0.00    -0.083 Cl
ATOM     26  F   UNL     1       5.255   0.989  -1.481  0.00  0.00    -0.205 F 
ENDBRANCH  18  19
ENDBRANCH  13  18
BRANCH   4  27
ATOM     27  C   UNL     1      -2.564   4.833   0.301  0.00  0.00    +0.232 C 
BRANCH  27  28
ATOM     28  C   UNL     1      -2.779   5.013   1.782  0.00  0.00    +0.246 C 
ATOM     29  O   UNL     1      -1.827   5.042   2.534  0.00  0.00    -0.273 OA
ATOM     30  N   UNL     1      -4.028   5.142   2.271  0.00  0.00    -0.252 N 
ATOM     31  H   UNL     1      -4.789   5.119   1.670  0.00  0.00    +0.169 HD
BRANCH  30  32
ATOM     32  N   UNL     1      -4.223   5.305   3.614  0.00  0.00    -0.254 NA
ATOM     33  H   UNL     1      -3.709   6.101   3.959  0.00  0.00    +0.140 HD
ATOM     34  H   UNL     1      -5.205   5.387   3.829  0.00  0.00    +0.140 HD
ENDBRANCH  30  32
ENDBRANCH  27  28
ENDBRANCH   4  27
TORSDOF 5
