REMARK  Name = ZINC37022591
REMARK  3 active torsions:
REMARK  status: ('A' for Active; 'I' for Inactive)
REMARK    1  A    between atoms: C_8  and  C_11
REMARK    2  A    between atoms: C_11  and  S_12
REMARK    3  A    between atoms: S_12  and  C_13
REMARK                            x       y       z     vdW  Elec       q    Type
REMARK                         _______ _______ _______ _____ _____    ______ ____
ROOT
ATOM      1  C   UNL     1       2.654  -3.804   0.474  0.00  0.00    +0.111 C 
ENDROOT
BRANCH   1   9
ATOM      2  C   UNL     1      -0.019   1.536   0.011  0.00  0.00    +0.005 C 
ATOM      3  C   UNL     1       1.454   1.996  -0.001  0.00  0.00    +0.005 C 
ATOM      4  C   UNL     1       2.235   0.792   0.584  0.00  0.00    +0.065 C 
ATOM      5  C   UNL     1       1.481  -0.419  -0.004  0.00  0.00    +0.171 C 
ATOM      6  C   UNL     1       0.002  -0.004   0.002  0.00  0.00    +0.065 C 
ATOM      7  O   UNL     1       1.928  -0.689  -1.331  0.00  0.00    -0.346 OA
ATOM      8  C   UNL     1       2.431  -2.043  -1.339  0.00  0.00    +0.195 C 
ATOM      9  C   UNL     1       2.743  -2.310   0.155  0.00  0.00    +0.157 C 
ATOM     10  O   UNL     1       1.684  -1.574   0.816  0.00  0.00    -0.342 OA
ENDBRANCH   1   9
BRANCH   1  11
ATOM     11  S   UNL     1       3.027  -4.071   2.229  0.00  0.00    -0.082 S 
BRANCH  11  12
ATOM     12  C   UNL     1       2.885  -5.815   2.434  0.00  0.00    +0.210 A 
ATOM     13  N   UNL     1       3.069  -6.481   3.580  0.00  0.00    -0.188 NA
ATOM     14  C   UNL     1       2.885  -7.768   3.379  0.00  0.00    +0.209 A 
ATOM     15  N   UNL     1       2.574  -7.946   2.078  0.00  0.00    -0.246 N 
ATOM     16  H   UNL     1       2.384  -8.789   1.637  0.00  0.00    +0.192 HD
ATOM     17  N   UNL     1       2.575  -6.671   1.490  0.00  0.00    -0.144 NA
ATOM     18  N   UNL     1       2.991  -8.763   4.333  0.00  0.00    -0.328 N 
ATOM     19  H   UNL     1       3.221  -8.536   5.248  0.00  0.00    +0.145 HD
ATOM     20  H   UNL     1       2.836  -9.689   4.088  0.00  0.00    +0.145 HD
ENDBRANCH  11  12
ENDBRANCH   1  11
TORSDOF 3
