REMARK  Name = ZINC03576710
REMARK  7 active torsions:
REMARK  status: ('A' for Active; 'I' for Inactive)
REMARK    1  A    between atoms: C_1  and  O_2
REMARK    2  A    between atoms: O_2  and  C_3
REMARK    3  A    between atoms: C_5  and  C_12
REMARK    4  A    between atoms: C_8  and  O_9
REMARK    5  A    between atoms: O_9  and  C_10
REMARK    6  A    between atoms: N_13  and  N_14
REMARK    7  A    between atoms: C_15  and  C_17
REMARK                            x       y       z     vdW  Elec       q    Type
REMARK                         _______ _______ _______ _____ _____    ______ ____
ROOT
ATOM      1  N   UNL     1       0.002  -0.004   0.002  0.00  0.00    -0.204 N 
ATOM      2  C   UNL     1      -1.156  -0.694   0.009  0.00  0.00    +0.276 C 
ATOM      3  O   UNL     1      -2.215  -0.102   0.023  0.00  0.00    -0.270 OA
ATOM      4  H   UNL     1       0.849  -0.478  -0.009  0.00  0.00    +0.177 HD
ENDROOT
BRANCH   2   5
ATOM      5  C   UNL     1      -1.135  -2.201   0.001  0.00  0.00    +0.297 C 
ATOM      6  C   UNL     1      -0.558  -2.703  -1.329  0.00  0.00    +0.283 C 
ATOM      7  O   UNL     1      -0.566  -4.135  -1.308  0.00  0.00    -0.484 OA
ATOM      8  C   UNL     1      -1.709  -4.734  -0.878  0.00  0.00    +0.162 A 
ATOM      9  C   UNL     1      -1.924  -6.075  -1.161  0.00  0.00    +0.049 A 
ATOM     10  C   UNL     1      -3.077  -6.699  -0.726  0.00  0.00    +0.004 A 
ATOM     11  C   UNL     1      -4.021  -5.989  -0.006  0.00  0.00    +0.004 A 
ATOM     12  C   UNL     1      -3.814  -4.652   0.279  0.00  0.00    +0.049 A 
ATOM     13  C   UNL     1      -2.659  -4.020  -0.157  0.00  0.00    +0.163 A 
ATOM     14  O   UNL     1      -2.470  -2.702   0.129  0.00  0.00    -0.472 OA
ENDBRANCH   2   5
BRANCH   1  16
ATOM     15  C   UNL     1       1.098   2.061   0.003  0.00  0.00    +0.138 C 
ATOM     16  N   UNL     1      -0.017   1.397   0.010  0.00  0.00    -0.188 NA
BRANCH  15  19
ATOM     17  C   UNL     1       2.253   5.634   0.010  0.00  0.00    +0.164 A 
ATOM     18  C   UNL     1       2.277   4.252   0.003  0.00  0.00    +0.059 A 
ATOM     19  C   UNL     1       1.078   3.535   0.011  0.00  0.00    -0.000 A 
ATOM     20  C   UNL     1      -0.140   4.219   0.020  0.00  0.00    +0.033 A 
ATOM     21  C   UNL     1      -0.157   5.599   0.033  0.00  0.00    +0.087 A 
ATOM     22  C   UNL     1       1.036   6.310   0.025  0.00  0.00    +0.180 A 
ATOM     23 CL   UNL     1      -1.671   6.447   0.051  0.00  0.00    -0.080 Cl
BRANCH  17  25
ATOM     24  C   UNL     1       4.631   5.577  -0.012  0.00  0.00    +0.277 C 
ATOM     25  O   UNL     1       3.419   6.334   0.003  0.00  0.00    -0.491 OA
ENDBRANCH  17  25
BRANCH  22  26
ATOM     26  O   UNL     1       1.015   7.669   0.031  0.00  0.00    -0.490 OA
ATOM     27  C   UNL     1       0.993   8.324  -1.239  0.00  0.00    +0.277 C 
ENDBRANCH  22  26
ENDBRANCH  15  19
ENDBRANCH   1  16
TORSDOF 5
