REMARK  Name = ZINC63386367
REMARK  1 active torsions:
REMARK  status: ('A' for Active; 'I' for Inactive)
REMARK    1  A    between atoms: C_7  and  C_17
REMARK                            x       y       z     vdW  Elec       q    Type
REMARK                         _______ _______ _______ _____ _____    ______ ____
ROOT
ATOM      1  C   UNL     1      -0.017   1.399   0.010  0.00  0.00    +0.022 A 
ATOM      2  C   UNL     1       1.110   2.141   0.003  0.00  0.00    +0.027 A 
ATOM      3  C   UNL     1       2.386   1.515  -0.013  0.00  0.00    +0.043 A 
ATOM      4  N   UNL     1       3.603   2.013   0.002  0.00  0.00    -0.376 N 
ATOM      5  C   UNL     1       4.553   0.913  -0.120  0.00  0.00    +0.128 C 
ATOM      6  C   UNL     1       5.570   0.881   1.024  0.00  0.00    +0.121 C 
ATOM      7  N   UNL     1       6.282  -0.405   0.976  0.00  0.00    -0.307 NA
ATOM      8  C   UNL     1       5.423  -1.554   1.278  0.00  0.00    +0.086 C 
ATOM      9  C   UNL     1       4.350  -1.713   0.185  0.00  0.00    +0.048 C 
ATOM     10  C   UNL     1       3.717  -0.353  -0.013  0.00  0.00    -0.035 C 
ATOM     11  C   UNL     1       2.436   0.032  -0.012  0.00  0.00    +0.001 A 
ATOM     12  C   UNL     1       1.162  -0.700  -0.008  0.00  0.00    +0.030 A 
ATOM     13  C   UNL     1       0.002  -0.004   0.002  0.00  0.00    +0.042 A 
ATOM     14 CL   UNL     1      -1.503  -0.870   0.005  0.00  0.00    -0.084 Cl
ATOM     15  H   UNL     1       6.750  -0.526   0.089  0.00  0.00    +0.123 HD
ATOM     16  H   UNL     1       3.830   2.953   0.081  0.00  0.00    +0.160 HD
ENDROOT
BRANCH   6  17
ATOM     17  C   UNL     1       6.551   2.013   0.862  0.00  0.00    +0.100 A 
ATOM     18  C   UNL     1       7.412   2.050  -0.227  0.00  0.00    +0.261 A 
ATOM     19  O   UNL     1       7.378   1.080  -1.145  0.00  0.00    -0.267 OA
ATOM     20  N   UNL     1       8.289   3.081  -0.352  0.00  0.00    -0.302 N 
ATOM     21  C   UNL     1       8.327   4.061   0.570  0.00  0.00    +0.161 A 
ATOM     22  S   UNL     1       9.442   5.347   0.386  0.00  0.00    -0.013 S 
ATOM     23  N   UNL     1       7.503   4.047   1.633  0.00  0.00    -0.302 N 
ATOM     24  C   UNL     1       6.605   3.039   1.797  0.00  0.00    +0.261 A 
ATOM     25  O   UNL     1       5.785   3.033   2.851  0.00  0.00    -0.267 OA
ATOM     26  H   UNL     1       8.893   3.111  -1.111  0.00  0.00    +0.171 HD
ATOM     27  H   UNL     1       7.546   4.763   2.285  0.00  0.00    +0.171 HD
ENDBRANCH   6  17
TORSDOF 1
