REMARK  Name = ZINC15228562
REMARK  11 active torsions:
REMARK  status: ('A' for Active; 'I' for Inactive)
REMARK    1  A    between atoms: C_1  and  C_2
REMARK    2  A    between atoms: C_2  and  C_3
REMARK    3  A    between atoms: C_2  and  C_4
REMARK    4  A    between atoms: C_2  and  N_48
REMARK    5  A    between atoms: C_4  and  O_5
REMARK    6  A    between atoms: C_6  and  C_7
REMARK    7  A    between atoms: C_6  and  N_48
REMARK    8  A    between atoms: C_7  and  C_9
REMARK    9  A    between atoms: C_7  and  O_26
REMARK   10  A    between atoms: C_9  and  O_10
REMARK   11  A    between atoms: O_10  and  C_11
REMARK                            x       y       z     vdW  Elec       q    Type
REMARK                         _______ _______ _______ _____ _____    ______ ____
ROOT
ATOM      1  O   UNL     1       0.010  -0.149   2.414  0.00  0.00    -0.489 OA
ENDROOT
BRANCH   1   2
ATOM      2  C   UNL     1       0.535  -0.527   3.611  0.00  0.00    +0.122 A 
ATOM      3  C   UNL     1       1.733  -1.233   3.652  0.00  0.00    +0.049 A 
ATOM      4  C   UNL     1       2.277  -1.623   4.856  0.00  0.00    +0.050 A 
ATOM      5  C   UNL     1       1.632  -1.313   6.050  0.00  0.00    +0.139 A 
ATOM      6  C   UNL     1       0.424  -0.600   6.007  0.00  0.00    +0.068 A 
ATOM      7  C   UNL     1      -0.119  -0.204   4.785  0.00  0.00    +0.061 A 
ATOM      8  C   UNL     1      -0.255  -0.274   7.277  0.00  0.00    +0.200 A 
ATOM      9  O   UNL     1      -1.305   0.342   7.300  0.00  0.00    -0.286 OA
ATOM     10  C   UNL     1       0.402  -0.731   8.518  0.00  0.00    +0.065 A 
ATOM     11  C   UNL     1      -0.166  -0.469   9.766  0.00  0.00    +0.015 A 
ATOM     12  C   UNL     1       0.468  -0.907  10.908  0.00  0.00    +0.001 A 
ATOM     13  C   UNL     1       1.664  -1.605  10.817  0.00  0.00    +0.004 A 
ATOM     14  C   UNL     1       2.233  -1.869   9.591  0.00  0.00    +0.047 A 
ATOM     15  C   UNL     1       1.611  -1.436   8.423  0.00  0.00    +0.139 A 
ATOM     16  O   UNL     1       2.171  -1.698   7.225  0.00  0.00    -0.455 OA
ENDBRANCH   1   2
BRANCH   1  17
ATOM     17  C   UNL     1       0.742  -0.511   1.242  0.00  0.00    +0.258 C 
BRANCH  17  18
ATOM     18  C   UNL     1       0.002  -0.004   0.002  0.00  0.00    +0.135 C 
BRANCH  18  19
ATOM     19  O   UNL     1      -0.017   1.425   0.010  0.00  0.00    -0.390 OA
ATOM     20  H   UNL     1       0.861   1.830   0.004  0.00  0.00    +0.210 HD
ENDBRANCH  18  19
BRANCH  18  21
ATOM     21  C   UNL     1       0.718  -0.497  -1.257  0.00  0.00    -0.047 C 
BRANCH  21  22
ATOM     22  N   UNL     1      -0.001  -0.005  -2.447  0.00  0.00    +0.386 N 
ATOM     23  H   UNL     1      -0.964  -0.360  -2.432  0.00  0.00    -0.085 HD
ATOM     24  H   UNL     1      -0.015   1.022  -2.433  0.00  0.00    -0.085 HD
BRANCH  22  26
ATOM     25  C   UNL     1       2.103   0.064  -3.712  0.00  0.00    -0.008 C 
ATOM     26  C   UNL     1       0.668  -0.466  -3.677  0.00  0.00    -0.050 C 
ATOM     27  C   UNL     1       0.689  -1.996  -3.709  0.00  0.00    -0.008 C 
BRANCH  26  28
ATOM     28  C   UNL     1      -0.099   0.059  -4.893  0.00  0.00    +0.143 C 
BRANCH  28  29
ATOM     29  O   UNL     1       0.544  -0.384  -6.090  0.00  0.00    -0.396 OA
ATOM     30  H   UNL     1       0.111  -0.087  -6.902  0.00  0.00    +0.209 HD
ENDBRANCH  28  29
ENDBRANCH  26  28
ENDBRANCH  22  26
ENDBRANCH  21  22
ENDBRANCH  18  21
ENDBRANCH  17  18
ENDBRANCH   1  17
TORSDOF 9
