REMARK  Name = ZINC32578414
REMARK  6 active torsions:
REMARK  status: ('A' for Active; 'I' for Inactive)
REMARK    1  A    between atoms: C_1  and  C_2
REMARK    2  A    between atoms: C_2  and  C_3
REMARK    3  A    between atoms: C_2  and  C_4
REMARK    4  A    between atoms: C_2  and  O_17
REMARK    5  A    between atoms: N_6  and  N_7
REMARK    6  A    between atoms: C_8  and  C_9
REMARK                            x       y       z     vdW  Elec       q    Type
REMARK                         _______ _______ _______ _____ _____    ______ ____
ROOT
ATOM      1  N   UNL     1      -1.203   5.955   0.042  0.00  0.00    -0.188 NA
ATOM      2  C   UNL     1      -0.070   5.321   0.029  0.00  0.00    +0.141 C 
ENDROOT
BRANCH   2   3
ATOM      3  C   UNL     1      -0.050   3.847   0.022  0.00  0.00    +0.031 A 
ATOM      4  C   UNL     1       1.168   3.161   0.007  0.00  0.00    +0.051 A 
ATOM      5  C   UNL     1       1.178   1.780   0.000  0.00  0.00    +0.021 A 
ATOM      6  C   UNL     1      -0.013   1.076   0.008  0.00  0.00    +0.003 A 
ATOM      7  C   UNL     1      -1.222   1.748   0.017  0.00  0.00    +0.021 A 
ATOM      8  C   UNL     1      -1.249   3.128   0.030  0.00  0.00    +0.051 A 
ATOM      9 CL   UNL     1      -2.768   3.969   0.048  0.00  0.00    -0.083 Cl
ATOM     10 CL   UNL     1       2.663   4.043  -0.003  0.00  0.00    -0.083 Cl
ENDBRANCH   2   3
BRANCH   1  13
ATOM     11  C   UNL     1      -2.398   8.013   0.063  0.00  0.00    +0.263 C 
ATOM     12  O   UNL     1      -3.440   7.393   0.070  0.00  0.00    -0.271 OA
ATOM     13  N   UNL     1      -1.222   7.355   0.049  0.00  0.00    -0.205 N 
ATOM     14  H   UNL     1      -0.277   7.918   0.042  0.00  0.00    +0.177 HD
BRANCH  11  16
ATOM     15  C   UNL     1      -2.313  10.038  -1.366  0.00  0.00    +0.051 C 
ATOM     16  C   UNL     1      -2.418   9.520   0.070  0.00  0.00    +0.137 C 
ATOM     17  C   UNL     1      -3.727  10.010   0.694  0.00  0.00    +0.051 C 
BRANCH  16  18
ATOM     18  O   UNL     1      -1.314  10.008   0.834  0.00  0.00    -0.380 OA
ATOM     19  H   UNL     1      -1.218   9.739   1.896  0.00  0.00    +0.211 HD
ENDBRANCH  16  18
ENDBRANCH  11  16
ENDBRANCH   1  13
TORSDOF 4
