REMARK  Name = ZINC20177974
REMARK  6 active torsions:
REMARK  status: ('A' for Active; 'I' for Inactive)
REMARK    1  A    between atoms: C_1  and  C_2
REMARK    2  A    between atoms: C_5  and  C_8
REMARK    3  A    between atoms: C_5  and  N_10
REMARK    4  A    between atoms: N_10  and  C_11
REMARK    5  A    between atoms: C_11  and  C_12
REMARK    6  A    between atoms: C_12  and  O_13
REMARK                            x       y       z     vdW  Elec       q    Type
REMARK                         _______ _______ _______ _____ _____    ______ ____
ROOT
ATOM      1  C   UNL     1      -4.345   1.409   0.051  0.00  0.00    +0.007 C 
ATOM      2  C   UNL     1      -2.909   1.938   0.040  0.00  0.00    -0.014 C 
ATOM      3  C   UNL     1      -2.193   1.445  -1.219  0.00  0.00    +0.006 C 
ATOM      4  C   UNL     1      -0.758   1.975  -1.229  0.00  0.00    +0.037 C 
ATOM      5  C   UNL     1      -0.018   1.468   0.010  0.00  0.00    +0.107 C 
ATOM      6  C   UNL     1      -0.734   1.961   1.269  0.00  0.00    +0.037 C 
ATOM      7  C   UNL     1      -2.169   1.432   1.280  0.00  0.00    +0.006 C 
ENDROOT
BRANCH   5   8
ATOM      8  C   UNL     1       0.002  -0.004   0.002  0.00  0.00    +0.085 C 
ATOM      9  N   UNL     1       0.018  -1.140  -0.004  0.00  0.00    -0.195 NA
ENDBRANCH   5   8
BRANCH   5  10
ATOM     10  N   UNL     1       1.360   1.976  -0.000  0.00  0.00    -0.297 NA
ATOM     11  H   UNL     1       1.875   1.621  -0.905  0.00  0.00    +0.123 HD
BRANCH  10  12
ATOM     12  C   UNL     1       2.103   1.509   1.178  0.00  0.00    +0.110 C 
BRANCH  12  13
ATOM     13  C   UNL     1       3.530   2.058   1.132  0.00  0.00    +0.171 C 
BRANCH  13  14
ATOM     14  O   UNL     1       3.497   3.482   1.246  0.00  0.00    -0.394 OA
ATOM     15  H   UNL     1       4.435   4.056   1.233  0.00  0.00    +0.209 HD
ENDBRANCH  13  14
ENDBRANCH  12  13
ENDBRANCH  10  12
ENDBRANCH   5  10
TORSDOF 5
