REMARK  Name = ZINC65143345
REMARK  14 active torsions:
REMARK  status: ('A' for Active; 'I' for Inactive)
REMARK    1  A    between atoms: C_1  and  C_2
REMARK    2  A    between atoms: C_5  and  S_20
REMARK    3  A    between atoms: C_7  and  C_8
REMARK    4  A    between atoms: N_10  and  N_11
REMARK    5  A    between atoms: N_14  and  C_15
REMARK    6  A    between atoms: C_15  and  C_16
REMARK    7  A    between atoms: C_16  and  C_17
REMARK    8  A    between atoms: C_17  and  C_18
REMARK    9  A    between atoms: C_17  and  C_19
REMARK   10  A    between atoms: S_20  and  N_23
REMARK   11  A    between atoms: N_23  and  C_24
REMARK   12  A    between atoms: C_24  and  C_25
REMARK   13  A    between atoms: C_24  and  C_26
REMARK   14  A    between atoms: C_24  and  C_27
REMARK                            x       y       z     vdW  Elec       q    Type
REMARK                         _______ _______ _______ _____ _____    ______ ____
ROOT
ATOM      1  C   UNL     1       0.426   1.473  -2.192  0.00  0.00    +0.044 C 
ATOM      2  C   UNL     1       0.812   0.209  -1.468  0.00  0.00    -0.038 A 
ATOM      3  C   UNL     1       0.265  -1.000  -1.847  0.00  0.00    +0.006 A 
ATOM      4  C   UNL     1       0.619  -2.161  -1.184  0.00  0.00    +0.029 A 
ATOM      5  C   UNL     1       1.522  -2.119  -0.136  0.00  0.00    +0.106 A 
ATOM      6  C   UNL     1       2.076  -0.917   0.253  0.00  0.00    +0.042 A 
ATOM      7  C   UNL     1       1.728   0.258  -0.416  0.00  0.00    +0.043 A 
ENDROOT
BRANCH   7   8
ATOM      8  C   UNL     1       2.322   1.548  -0.008  0.00  0.00    +0.260 C 
ATOM      9  O   UNL     1       2.096   2.553  -0.654  0.00  0.00    -0.269 OA
ATOM     10  N   UNL     1       3.116   1.611   1.080  0.00  0.00    -0.229 N 
ATOM     11  H   UNL     1       3.297   0.809   1.595  0.00  0.00    +0.173 HD
BRANCH  10  12
ATOM     12  N   UNL     1       3.679   2.834   1.466  0.00  0.00    -0.218 N 
ATOM     13  C   UNL     1       4.473   2.897   2.554  0.00  0.00    +0.316 C 
ATOM     14  O   UNL     1       4.961   3.959   2.889  0.00  0.00    -0.251 OA
ATOM     15  N   UNL     1       4.724   1.783   3.270  0.00  0.00    -0.298 N 
ATOM     16  H   UNL     1       3.498   3.636   0.951  0.00  0.00    +0.174 HD
ATOM     17  H   UNL     1       4.334   0.936   3.002  0.00  0.00    +0.150 HD
BRANCH  15  18
ATOM     18  C   UNL     1       5.586   1.851   4.452  0.00  0.00    +0.106 C 
BRANCH  18  19
ATOM     19  C   UNL     1       5.707   0.460   5.077  0.00  0.00    +0.022 C 
BRANCH  19  20
ATOM     20  C   UNL     1       6.607   0.531   6.311  0.00  0.00    -0.016 C 
ATOM     21  C   UNL     1       5.939   1.398   7.381  0.00  0.00    +0.007 C 
ATOM     22  C   UNL     1       6.829  -0.879   6.863  0.00  0.00    +0.007 C 
ENDBRANCH  19  20
ENDBRANCH  18  19
ENDBRANCH  15  18
ENDBRANCH  10  12
ENDBRANCH   7   8
BRANCH   5  23
ATOM     23  S   UNL     1       1.965  -3.604   0.703  0.00  0.00    +0.059 S 
ATOM     24  O   UNL     1       2.191  -3.251   2.061  0.00  0.00    -0.153 OA
ATOM     25  O   UNL     1       1.013  -4.586   0.320  0.00  0.00    -0.153 OA
BRANCH  23  26
ATOM     26  N   UNL     1       3.424  -4.095   0.092  0.00  0.00    -0.185 NA
ATOM     27  H   UNL     1       4.208  -4.109   0.663  0.00  0.00    +0.149 HD
BRANCH  26  28
ATOM     28  C   UNL     1       3.529  -4.508  -1.309  0.00  0.00    +0.032 C 
ATOM     29  C   UNL     1       2.930  -3.425  -2.207  0.00  0.00    +0.029 C 
ATOM     30  C   UNL     1       5.002  -4.714  -1.670  0.00  0.00    +0.029 C 
ATOM     31  C   UNL     1       2.766  -5.819  -1.513  0.00  0.00    +0.029 C 
ENDBRANCH  26  28
ENDBRANCH  23  26
ENDBRANCH   5  23
TORSDOF 8
