REMARK  Name = ZINC39324777
REMARK  9 active torsions:
REMARK  status: ('A' for Active; 'I' for Inactive)
REMARK    1  A    between atoms: C_1  and  C_2
REMARK    2  A    between atoms: C_2  and  C_3
REMARK    3  A    between atoms: C_2  and  C_4
REMARK    4  A    between atoms: C_2  and  C_5
REMARK    5  A    between atoms: N_20  and  C_23
REMARK    6  A    between atoms: C_25  and  C_31
REMARK    7  A    between atoms: C_25  and  C_33
REMARK    8  A    between atoms: C_26  and  N_30
REMARK    9  A    between atoms: C_27  and  C_28
REMARK                            x       y       z     vdW  Elec       q    Type
REMARK                         _______ _______ _______ _____ _____    ______ ____
ROOT
ATOM      1  C   UNL     1       0.718  -0.497  -1.257  0.00  0.00    -0.001 C 
ATOM      2  C   UNL     1       0.754  -2.032  -1.264  0.00  0.00    +0.031 C 
ATOM      3  C   UNL     1       1.430  -2.467  -2.539  0.00  0.00    -0.021 C 
ATOM      4  C   UNL     1       2.391  -1.742  -3.076  0.00  0.00    -0.028 C 
ATOM      5  C   UNL     1       2.929  -0.484  -2.462  0.00  0.00    +0.043 C 
ATOM      6  C   UNL     1       2.156   0.017  -1.266  0.00  0.00    +0.014 C 
ATOM      7  C   UNL     1       3.060   0.571  -3.555  0.00  0.00    +0.117 C 
ATOM      8  C   UNL     1       3.471   1.892  -2.983  0.00  0.00    -0.007 A 
ATOM      9  C   UNL     1       4.598   2.276  -2.289  0.00  0.00    +0.022 A 
ATOM     10  C   UNL     1       4.670   3.607  -1.891  0.00  0.00    +0.018 A 
ATOM     11  C   UNL     1       3.657   4.500  -2.180  0.00  0.00    +0.017 A 
ATOM     12  C   UNL     1       2.522   4.120  -2.878  0.00  0.00    +0.025 A 
ATOM     13  C   UNL     1       2.437   2.787  -3.283  0.00  0.00    +0.040 A 
ATOM     14  N   UNL     1       1.432   2.144  -3.984  0.00  0.00    -0.273 N 
ATOM     15  C   UNL     1       1.712   0.840  -4.188  0.00  0.00    +0.234 C 
ATOM     16  O   UNL     1       1.014   0.034  -4.768  0.00  0.00    -0.274 OA
ATOM     17  C   UNL     1       0.209   2.802  -4.451  0.00  0.00    +0.138 C 
ATOM     18 BR   UNL     1       6.188   4.207  -0.935  0.00  0.00    -0.050 Br
ATOM     19  C   UNL     1       4.052   0.100  -4.614  0.00  0.00    +0.199 C 
ATOM     20  C   UNL     1       3.753  -1.297  -5.071  0.00  0.00    +0.055 C 
ATOM     21  C   UNL     1       2.994  -2.172  -4.365  0.00  0.00    +0.074 C 
ENDROOT
BRANCH   1  23
ATOM     22  C   UNL     1      -0.019   1.526   0.010  0.00  0.00    +0.011 C 
ATOM     23  C   UNL     1       0.002  -0.004   0.002  0.00  0.00    -0.035 C 
ATOM     24  C   UNL     1       0.742  -0.511   1.242  0.00  0.00    +0.011 C 
ATOM     25  C   UNL     1      -1.433  -0.534   0.013  0.00  0.00    +0.011 C 
ENDBRANCH   1  23
BRANCH  20  26
ATOM     26  N   UNL     1       4.273  -1.711  -6.265  0.00  0.00    -0.358 N 
ATOM     27  H   UNL     1       4.820  -1.106  -6.792  0.00  0.00    +0.142 HD
ATOM     28  H   UNL     1       4.096  -2.609  -6.586  0.00  0.00    +0.142 HD
ENDBRANCH  20  26
BRANCH  21  29
ATOM     29  C   UNL     1       2.776  -3.499  -4.857  0.00  0.00    +0.101 C 
ATOM     30  N   UNL     1       2.602  -4.551  -5.247  0.00  0.00    -0.191 NA
ENDBRANCH  21  29
BRANCH  19  31
ATOM     31  C   UNL     1       3.987   1.008  -5.770  0.00  0.00    +0.092 C 
ATOM     32  N   UNL     1       3.938   1.709  -6.663  0.00  0.00    -0.194 NA
ENDBRANCH  19  31
BRANCH  19  33
ATOM     33  C   UNL     1       5.411   0.139  -4.050  0.00  0.00    +0.092 C 
ATOM     34  N   UNL     1       6.460   0.170  -3.615  0.00  0.00    -0.194 NA
ENDBRANCH  19  33
TORSDOF 5
