REMARK  Name = ZINC39982719
REMARK  8 active torsions:
REMARK  status: ('A' for Active; 'I' for Inactive)
REMARK    1  A    between atoms: C_1  and  C_2
REMARK    2  A    between atoms: C_4  and  C_9
REMARK    3  A    between atoms: C_5  and  C_8
REMARK    4  A    between atoms: C_9  and  O_10
REMARK    5  A    between atoms: O_10  and  C_11
REMARK    6  A    between atoms: C_14  and  C_17
REMARK    7  A    between atoms: C_17  and  C_18
REMARK    8  A    between atoms: C_23  and  N_26
REMARK                            x       y       z     vdW  Elec       q    Type
REMARK                         _______ _______ _______ _____ _____    ______ ____
ROOT
ATOM      1  C   UNL     1      -0.476   0.257  -9.524  0.00  0.00    +0.220 C 
ATOM      2  O   UNL     1       0.228   1.030  -8.909  0.00  0.00    -0.275 OA
ATOM      3  N   UNL     1      -0.771   0.498 -10.817  0.00  0.00    -0.301 N 
ATOM      4  C   UNL     1      -1.627  -0.425 -11.574  0.00  0.00    +0.110 C 
ATOM      5  C   UNL     1      -0.893  -0.841 -12.853  0.00  0.00    +0.044 C 
ATOM      6  C   UNL     1      -0.479   0.411 -13.629  0.00  0.00    +0.095 C 
ATOM      7  C   UNL     1       0.475   1.250 -12.776  0.00  0.00    +0.044 C 
ATOM      8  C   UNL     1      -0.247   1.692 -11.494  0.00  0.00    +0.110 C 
ENDROOT
BRANCH   6   9
ATOM      9  N   UNL     1       0.194   0.016 -14.869  0.00  0.00    -0.289 N 
ATOM     10  C   UNL     1      -0.219   0.342 -16.159  0.00  0.00    +0.070 A 
ATOM     11  C   UNL     1      -1.287   1.069 -16.662  0.00  0.00    +0.028 A 
ATOM     12  C   UNL     1      -1.433   1.221 -18.027  0.00  0.00    +0.002 A 
ATOM     13  C   UNL     1      -0.518   0.650 -18.895  0.00  0.00    +0.002 A 
ATOM     14  C   UNL     1       0.549  -0.076 -18.404  0.00  0.00    +0.028 A 
ATOM     15  C   UNL     1       0.705  -0.233 -17.035  0.00  0.00    +0.067 A 
ATOM     16  N   UNL     1       1.649  -0.890 -16.250  0.00  0.00    -0.306 N 
ATOM     17  H   UNL     1       2.416  -1.384 -16.579  0.00  0.00    +0.170 HD
ATOM     18  C   UNL     1       1.319  -0.717 -14.956  0.00  0.00    +0.328 A 
ATOM     19  O   UNL     1       1.942  -1.160 -14.009  0.00  0.00    -0.247 OA
ENDBRANCH   6   9
BRANCH   1  20
ATOM     20  C   UNL     1      -1.021  -0.972  -8.843  0.00  0.00    +0.131 C 
BRANCH  20  24
ATOM     21  C   UNL     1       0.323  -1.068  -4.788  0.00  0.00    +0.121 A 
ATOM     22  C   UNL     1      -0.869  -0.435  -5.110  0.00  0.00    +0.046 A 
ATOM     23  C   UNL     1      -1.301  -0.405  -6.422  0.00  0.00    +0.007 A 
ATOM     24  C   UNL     1      -0.547  -1.006  -7.413  0.00  0.00    -0.038 A 
ATOM     25  C   UNL     1       0.641  -1.638  -7.094  0.00  0.00    +0.007 A 
ATOM     26  C   UNL     1       1.080  -1.665  -5.785  0.00  0.00    +0.046 A 
BRANCH  21  27
ATOM     27  O   UNL     1       0.750  -1.098  -3.498  0.00  0.00    -0.488 OA
BRANCH  27  28
ATOM     28  C   UNL     1      -0.081  -0.463  -2.524  0.00  0.00    +0.264 C 
BRANCH  28  31
ATOM     29  C   UNL     1      -0.293  -2.772  -0.274  0.00  0.00    +0.045 C 
ATOM     30  C   UNL     1       0.939  -1.890  -0.483  0.00  0.00    +0.176 C 
ATOM     31  C   UNL     1       0.549  -0.597  -1.162  0.00  0.00    +0.019 C 
ATOM     32  C   UNL     1       0.859   0.391  -0.349  0.00  0.00    +0.041 C 
ATOM     33  N   UNL     1       1.423  -0.084   0.821  0.00  0.00    -0.269 N 
ATOM     34  O   UNL     1       1.494  -1.500   0.782  0.00  0.00    -0.267 OA
ATOM     35  C   UNL     1       0.630   1.849  -0.654  0.00  0.00    +0.065 C 
ATOM     36  H   UNL     1       1.726   0.469   1.559  0.00  0.00    +0.194 HD
ENDBRANCH  28  31
ENDBRANCH  27  28
ENDBRANCH  21  27
ENDBRANCH  20  24
ENDBRANCH   1  20
TORSDOF 6
