REMARK  Name = ZINC35189322
REMARK  7 active torsions:
REMARK  status: ('A' for Active; 'I' for Inactive)
REMARK    1  A    between atoms: C_1  and  O_2
REMARK    2  A    between atoms: O_2  and  C_3
REMARK    3  A    between atoms: C_5  and  C_11
REMARK    4  A    between atoms: C_8  and  O_9
REMARK    5  A    between atoms: N_12  and  N_13
REMARK    6  A    between atoms: C_14  and  C_16
REMARK    7  A    between atoms: C_21  and  O_22
REMARK                            x       y       z     vdW  Elec       q    Type
REMARK                         _______ _______ _______ _____ _____    ______ ____
ROOT
ATOM      1  C   UNL     1       2.420   0.349  -4.200  0.00  0.00    +0.138 C 
ATOM      2  N   UNL     1       3.055  -0.228  -5.175  0.00  0.00    -0.187 NA
ENDROOT
BRANCH   1   5
ATOM      3  C   UNL     1       1.160  -0.551  -0.779  0.00  0.00    +0.163 A 
ATOM      4  C   UNL     1       1.318   0.112  -1.982  0.00  0.00    +0.059 A 
ATOM      5  C   UNL     1       2.248  -0.354  -2.915  0.00  0.00    -0.001 A 
ATOM      6  C   UNL     1       3.014  -1.486  -2.628  0.00  0.00    +0.028 A 
ATOM      7  C   UNL     1       2.851  -2.142  -1.425  0.00  0.00    +0.063 A 
ATOM      8  C   UNL     1       1.931  -1.676  -0.496  0.00  0.00    +0.173 A 
ATOM      9 BR   UNL     1       3.889  -3.675  -1.038  0.00  0.00    -0.046 Br
BRANCH   3  11
ATOM     10  C   UNL     1      -0.500   1.059  -0.224  0.00  0.00    +0.277 C 
ATOM     11  O   UNL     1       0.256  -0.100   0.132  0.00  0.00    -0.491 OA
ENDBRANCH   3  11
BRANCH   8  12
ATOM     12  O   UNL     1       1.778  -2.322   0.690  0.00  0.00    -0.503 OA
ATOM     13  H   UNL     1       1.113  -3.025   0.672  0.00  0.00    +0.292 HD
ENDBRANCH   8  12
ENDBRANCH   1   5
BRANCH   2  14
ATOM     14  N   UNL     1       3.105  -1.626  -5.248  0.00  0.00    -0.203 N 
ATOM     15  C   UNL     1       3.872  -2.224  -6.181  0.00  0.00    +0.270 C 
ATOM     16  O   UNL     1       4.520  -1.550  -6.960  0.00  0.00    -0.268 OA
ATOM     17  H   UNL     1       2.589  -2.163  -4.627  0.00  0.00    +0.178 HD
BRANCH  15  18
ATOM     18  C   UNL     1       3.925  -3.694  -6.258  0.00  0.00    +0.118 A 
ATOM     19  H   UNL     1       3.243  -6.647  -5.458  0.00  0.00    +0.188 HD
ATOM     20  C   UNL     1       3.248  -4.583  -5.447  0.00  0.00    +0.122 A 
ATOM     21  N   UNL     1       3.571  -5.822  -5.848  0.00  0.00    -0.280 N 
ATOM     22  N   UNL     1       4.461  -5.726  -6.923  0.00  0.00    -0.136 NA
ATOM     23  C   UNL     1       4.676  -4.462  -7.183  0.00  0.00    +0.244 A 
BRANCH  23  24
ATOM     24  O   UNL     1       5.480  -3.972  -8.162  0.00  0.00    -0.491 OA
ATOM     25  H   UNL     1       6.397  -3.835  -7.886  0.00  0.00    +0.294 HD
ENDBRANCH  23  24
ENDBRANCH  15  18
ENDBRANCH   2  14
TORSDOF 6
