REMARK  Name = ZINC39634783
REMARK  12 active torsions:
REMARK  status: ('A' for Active; 'I' for Inactive)
REMARK    1  A    between atoms: C_1  and  C_2
REMARK    2  A    between atoms: C_6  and  C_9
REMARK    3  A    between atoms: C_13  and  C_22
REMARK    4  A    between atoms: N_24  and  C_25
REMARK    5  A    between atoms: C_25  and  C_26
REMARK    6  A    between atoms: C_26  and  N_27
REMARK    7  A    between atoms: N_27  and  C_28
REMARK    8  A    between atoms: N_27  and  C_31
REMARK    9  A    between atoms: C_28  and  C_29
REMARK   10  A    between atoms: C_28  and  C_30
REMARK   11  A    between atoms: C_31  and  C_32
REMARK   12  A    between atoms: C_31  and  C_33
REMARK                            x       y       z     vdW  Elec       q    Type
REMARK                         _______ _______ _______ _____ _____    ______ ____
ROOT
ATOM      1  C   UNL     1      -1.093  -1.675   7.138  0.00  0.00    +0.251 C 
ATOM      2  O   UNL     1      -0.359  -1.879   8.085  0.00  0.00    -0.270 OA
ATOM      3  N   UNL     1      -2.325  -2.221   7.111  0.00  0.00    -0.296 N 
ATOM      4  C   UNL     1      -3.352  -2.095   6.050  0.00  0.00    +0.121 C 
ATOM      5  C   UNL     1      -3.989  -3.499   5.954  0.00  0.00    +0.100 C 
ATOM      6  C   UNL     1      -3.730  -4.142   7.327  0.00  0.00    -0.004 C 
ATOM      7  C   UNL     1      -2.957  -3.089   8.134  0.00  0.00    +0.115 C 
ATOM      8  C   UNL     1      -2.884  -5.402   7.169  0.00  0.00    -0.010 C 
ATOM      9  C   UNL     1      -2.688  -6.055   8.540  0.00  0.00    -0.082 C 
ATOM     10  N   UNL     1      -3.996  -6.388   9.117  0.00  0.00    +0.379 N 
ATOM     11  C   UNL     1      -4.768  -5.162   9.351  0.00  0.00    -0.082 C 
ATOM     12  C   UNL     1      -5.051  -4.471   8.014  0.00  0.00    -0.010 C 
ATOM     13  H   UNL     1      -4.501  -6.985   8.479  0.00  0.00    -0.086 HD
ATOM     14  H   UNL     1      -3.863  -6.872   9.992  0.00  0.00    -0.086 HD
ENDROOT
BRANCH   1  20
ATOM     15  C   UNL     1      -0.676   2.819   5.002  0.00  0.00    +0.047 C 
ATOM     16  C   UNL     1      -0.432   1.332   4.983  0.00  0.00    -0.014 A 
ATOM     17  C   UNL     1       0.224   0.754   3.911  0.00  0.00    +0.007 A 
ATOM     18  C   UNL     1       0.452  -0.610   3.884  0.00  0.00    +0.021 A 
ATOM     19  C   UNL     1       0.028  -1.406   4.929  0.00  0.00    +0.056 A 
ATOM     20  C   UNL     1      -0.635  -0.831   6.017  0.00  0.00    +0.091 A 
ATOM     21  C   UNL     1      -0.858   0.550   6.040  0.00  0.00    +0.140 A 
ATOM     22  F   UNL     1      -1.494   1.116   7.089  0.00  0.00    -0.204 F 
ATOM     23 CL   UNL     1       0.315  -3.118   4.892  0.00  0.00    -0.083 Cl
ENDBRANCH   1  20
BRANCH   5  24
ATOM     24  C   UNL     1      -5.470  -3.387   5.696  0.00  0.00    +0.218 C 
ATOM     25  O   UNL     1      -6.103  -2.474   6.183  0.00  0.00    -0.275 OA
ATOM     26  N   UNL     1      -6.090  -4.301   4.923  0.00  0.00    -0.317 N 
ATOM     27  H   UNL     1      -5.584  -5.031   4.534  0.00  0.00    +0.149 HD
BRANCH  26  28
ATOM     28  C   UNL     1      -7.529  -4.191   4.672  0.00  0.00    +0.085 C 
BRANCH  28  29
ATOM     29  C   UNL     1      -7.979  -5.345   3.773  0.00  0.00    -0.059 C 
BRANCH  29  30
ATOM     30  N   UNL     1      -9.396  -5.173   3.428  0.00  0.00    +0.384 N 
ATOM     31  H   UNL     1      -9.938  -5.069   4.272  0.00  0.00    -0.081 HD
BRANCH  30  32
ATOM     32  C   UNL     1      -9.555  -3.973   2.595  0.00  0.00    -0.074 C 
ATOM     33  C   UNL     1      -9.282  -4.328   1.132  0.00  0.00    -0.014 C 
ATOM     34  C   UNL     1     -10.982  -3.441   2.733  0.00  0.00    -0.014 C 
ENDBRANCH  30  32
BRANCH  30  35
ATOM     35  C   UNL     1      -9.866  -6.350   2.685  0.00  0.00    -0.074 C 
ATOM     36  C   UNL     1      -9.573  -7.614   3.495  0.00  0.00    -0.014 C 
ATOM     37  C   UNL     1     -11.373  -6.235   2.447  0.00  0.00    -0.014 C 
ENDBRANCH  30  35
ENDBRANCH  29  30
ENDBRANCH  28  29
ENDBRANCH  26  28
ENDBRANCH   5  24
TORSDOF 7
