REMARK  Name = ZINC31118629
REMARK  8 active torsions:
REMARK  status: ('A' for Active; 'I' for Inactive)
REMARK    1  A    between atoms: C_6  and  N_7
REMARK    2  A    between atoms: C_8  and  N_30
REMARK    3  A    between atoms: C_9  and  C_28
REMARK    4  A    between atoms: C_10  and  C_12
REMARK    5  A    between atoms: C_12  and  C_13
REMARK    6  A    between atoms: C_13  and  C_14
REMARK    7  A    between atoms: C_14  and  N_15
REMARK    8  A    between atoms: C_16  and  C_18
REMARK                            x       y       z     vdW  Elec       q    Type
REMARK                         _______ _______ _______ _____ _____    ______ ____
ROOT
ATOM      1  N   UNL     1      -1.331   2.790   2.979  0.00  0.00    -0.217 N 
ATOM      2  C   UNL     1      -2.116   1.690   3.015  0.00  0.00    +0.138 A 
ATOM      3  C   UNL     1      -1.755   0.894   1.931  0.00  0.00    +0.114 A 
ATOM      4  C   UNL     1      -0.718   1.572   1.248  0.00  0.00    +0.083 A 
ATOM      5  N   UNL     1      -0.474   2.687   1.879  0.00  0.00    -0.168 NA
ENDROOT
BRANCH   1  11
ATOM      6  C   UNL     1      -2.576   4.255   4.444  0.00  0.00    +0.030 A 
ATOM      7  C   UNL     1      -2.609   5.300   5.347  0.00  0.00    +0.040 A 
ATOM      8  C   UNL     1      -1.439   5.952   5.696  0.00  0.00    +0.124 A 
ATOM      9  C   UNL     1      -0.232   5.556   5.144  0.00  0.00    +0.040 A 
ATOM     10  C   UNL     1      -0.195   4.509   4.244  0.00  0.00    +0.030 A 
ATOM     11  C   UNL     1      -1.367   3.853   3.893  0.00  0.00    +0.068 A 
ATOM     12  F   UNL     1      -1.474   6.977   6.575  0.00  0.00    -0.205 F 
ENDBRANCH   1  11
BRANCH   2  13
ATOM     13  N   UNL     1      -3.092   1.408   3.951  0.00  0.00    -0.342 N 
ATOM     14  H   UNL     1      -3.672   0.476   3.878  0.00  0.00    +0.144 HD
ATOM     15  H   UNL     1      -3.291   2.116   4.770  0.00  0.00    +0.144 HD
ENDBRANCH   2  13
BRANCH   3  16
ATOM     16  C   UNL     1      -2.325  -0.370   1.575  0.00  0.00    +0.104 C 
ATOM     17  N   UNL     1      -2.777  -1.373   1.293  0.00  0.00    -0.191 NA
ENDBRANCH   3  16
BRANCH   4  18
ATOM     18  C   UNL     1      -0.013   1.086   0.008  0.00  0.00    +0.060 C 
BRANCH  18  19
ATOM     19  C   UNL     1      -0.753   1.593  -1.232  0.00  0.00    +0.025 C 
BRANCH  19  20
ATOM     20  C   UNL     1      -0.037   1.099  -2.490  0.00  0.00    +0.105 C 
BRANCH  20  21
ATOM     21  N   UNL     1      -0.745   1.585  -3.677  0.00  0.00    -0.309 N 
ATOM     22  C   UNL     1      -0.292   1.272  -4.907  0.00  0.00    +0.279 C 
ATOM     23  O   UNL     1       0.705   0.587  -5.032  0.00  0.00    -0.267 OA
ATOM     24  H   UNL     1      -1.647   2.204  -3.564  0.00  0.00    +0.149 HD
BRANCH  22  25
ATOM     25  C   UNL     1      -1.003   1.759  -6.098  0.00  0.00    +0.190 A 
ATOM     26  C   UNL     1      -0.639   1.508  -7.382  0.00  0.00    +0.063 A 
ATOM     27  C   UNL     1      -1.627   2.184  -8.223  0.00  0.00    +0.022 A 
ATOM     28  C   UNL     1      -1.810   2.308  -9.602  0.00  0.00    +0.031 A 
ATOM     29  C   UNL     1      -2.866   3.032 -10.083  0.00  0.00    +0.042 A 
ATOM     30  C   UNL     1      -3.756   3.644  -9.208  0.00  0.00    +0.023 A 
ATOM     31  C   UNL     1      -3.591   3.533  -7.845  0.00  0.00    +0.048 A 
ATOM     32  C   UNL     1      -2.525   2.802  -7.333  0.00  0.00    +0.136 A 
ATOM     33  O   UNL     1      -2.118   2.518  -6.080  0.00  0.00    -0.450 OA
ATOM     34 CL   UNL     1      -3.097   3.187 -11.796  0.00  0.00    -0.084 Cl
ENDBRANCH  22  25
ENDBRANCH  20  21
ENDBRANCH  19  20
ENDBRANCH  18  19
ENDBRANCH   4  18
TORSDOF 8
