REMARK  Name = ZINC39359024
REMARK  6 active torsions:
REMARK  status: ('A' for Active; 'I' for Inactive)
REMARK    1  A    between atoms: C_1  and  C_2
REMARK    2  A    between atoms: C_2  and  C_29
REMARK    3  A    between atoms: C_6  and  C_16
REMARK    4  A    between atoms: C_9  and  O_15
REMARK    5  A    between atoms: C_18  and  N_23
REMARK    6  A    between atoms: C_21  and  O_22
REMARK                            x       y       z     vdW  Elec       q    Type
REMARK                         _______ _______ _______ _____ _____    ______ ____
ROOT
ATOM      1  C   UNL     1      -0.019   1.526   0.010  0.00  0.00    +0.011 C 
ATOM      2  C   UNL     1       0.002  -0.004   0.002  0.00  0.00    -0.023 C 
ATOM      3  C   UNL     1      -1.429  -0.539   0.042  0.00  0.00    +0.057 C 
ATOM      4  C   UNL     1      -1.409  -2.054   0.057  0.00  0.00    +0.014 C 
ATOM      5  C   UNL     1      -0.399  -2.711   0.665  0.00  0.00    +0.024 C 
ATOM      6  C   UNL     1      -0.345  -4.230   0.738  0.00  0.00    +0.092 C 
ATOM      7  C   UNL     1      -1.411  -4.750  -0.178  0.00  0.00    +0.049 C 
ATOM      8  C   UNL     1      -1.486  -5.744  -1.036  0.00  0.00    +0.235 C 
ATOM      9  N   UNL     1      -2.664  -5.691  -1.716  0.00  0.00    -0.114 NA
ATOM     10  N   UNL     1      -3.417  -4.775  -1.363  0.00  0.00    -0.157 NA
ATOM     11  C   UNL     1      -2.778  -4.063  -0.255  0.00  0.00    +0.245 C 
ATOM     12  N   UNL     1      -2.456  -2.671  -0.581  0.00  0.00    -0.321 N 
ATOM     13  C   UNL     1       0.669  -2.019   1.261  0.00  0.00    +0.162 C 
ATOM     14  O   UNL     1       1.554  -2.649   1.806  0.00  0.00    -0.292 OA
ATOM     15  C   UNL     1       0.742  -0.517   1.242  0.00  0.00    +0.086 C 
ATOM     16  C   UNL     1       0.705  -0.503  -1.262  0.00  0.00    +0.011 C 
ATOM     17  H   UNL     1      -2.979  -2.190  -1.242  0.00  0.00    +0.148 HD
ENDROOT
BRANCH   6  18
ATOM     18  C   UNL     1      -0.610  -4.686   2.150  0.00  0.00    +0.008 A 
ATOM     19  C   UNL     1      -1.808  -4.377   2.763  0.00  0.00    +0.040 A 
ATOM     20  C   UNL     1      -2.052  -4.796   4.058  0.00  0.00    +0.127 A 
ATOM     21  C   UNL     1      -1.097  -5.525   4.742  0.00  0.00    +0.036 A 
ATOM     22  C   UNL     1       0.103  -5.836   4.134  0.00  0.00    +0.048 A 
ATOM     23  C   UNL     1       0.348  -5.422   2.832  0.00  0.00    +0.121 A 
BRANCH  20  24
ATOM     24  N   UNL     1      -3.337  -4.463   4.712  0.00  0.00    +0.056 N 
ATOM     25  O   UNL     1      -4.173  -3.825   4.115  0.00  0.00    -0.126 OA
ATOM     26  O   UNL     1      -3.551  -4.829   5.845  0.00  0.00    -0.126 OA
ENDBRANCH  20  24
BRANCH  23  27
ATOM     27  O   UNL     1       1.526  -5.732   2.229  0.00  0.00    -0.506 OA
ATOM     28  H   UNL     1       2.221  -5.074   2.364  0.00  0.00    +0.292 HD
ENDBRANCH  23  27
ENDBRANCH   6  18
BRANCH   8  29
ATOM     29  O   UNL     1      -0.524  -6.687  -1.218  0.00  0.00    -0.491 OA
ATOM     30  H   UNL     1      -0.743  -7.347  -1.890  0.00  0.00    +0.294 HD
ENDBRANCH   8  29
TORSDOF 4
