REMARK  Name = ZINC64870721
REMARK  7 active torsions:
REMARK  status: ('A' for Active; 'I' for Inactive)
REMARK    1  A    between atoms: C_1  and  C_2
REMARK    2  A    between atoms: C_2  and  C_3
REMARK    3  A    between atoms: C_2  and  C_4
REMARK    4  A    between atoms: C_4  and  C_5
REMARK    5  A    between atoms: C_5  and  N_6
REMARK    6  A    between atoms: C_12  and  C_19
REMARK    7  A    between atoms: C_22  and  C_25
REMARK                            x       y       z     vdW  Elec       q    Type
REMARK                         _______ _______ _______ _____ _____    ______ ____
ROOT
ATOM      1  N   UNL     1      -2.790  -2.565  -0.111  0.00  0.00    -0.261 N 
ATOM      2  C   UNL     1      -3.367  -2.891   1.066  0.00  0.00    +0.264 A 
ATOM      3  O   UNL     1      -2.760  -2.770   2.113  0.00  0.00    -0.267 OA
ATOM      4  C   UNL     1      -4.750  -3.399   1.049  0.00  0.00    +0.063 A 
ATOM      5  C   UNL     1      -5.414  -3.756   2.220  0.00  0.00    +0.016 A 
ATOM      6  C   UNL     1      -6.709  -4.225   2.150  0.00  0.00    +0.009 A 
ATOM      7  C   UNL     1      -7.349  -4.342   0.926  0.00  0.00    +0.006 A 
ATOM      8  C   UNL     1      -6.702  -3.991  -0.242  0.00  0.00    +0.034 A 
ATOM      9  C   UNL     1      -5.400  -3.517  -0.192  0.00  0.00    +0.056 A 
ATOM     10  N   UNL     1      -4.714  -3.153  -1.342  0.00  0.00    -0.307 N 
ATOM     11  H   UNL     1      -5.150  -3.229  -2.205  0.00  0.00    +0.170 HD
ATOM     12  C   UNL     1      -3.454  -2.691  -1.270  0.00  0.00    +0.330 A 
ATOM     13  O   UNL     1      -2.890  -2.378  -2.301  0.00  0.00    -0.246 OA
ENDROOT
BRANCH   7  14
ATOM     14  C   UNL     1      -8.764  -4.857   0.869  0.00  0.00    +0.274 C 
ATOM     15  N   UNL     1      -9.474  -4.530   2.111  0.00  0.00    -0.339 N 
ATOM     16  C   UNL     1      -9.843  -5.635   2.683  0.00  0.00    +0.134 C 
ATOM     17  N   UNL     1      -9.456  -6.731   1.952  0.00  0.00    -0.247 N 
ATOM     18  O   UNL     1      -8.768  -6.291   0.790  0.00  0.00    -0.243 OA
ATOM     19  H   UNL     1      -9.625  -7.656   2.190  0.00  0.00    +0.196 HD
ATOM     20  H   UNL     1      -9.640  -3.636   2.449  0.00  0.00    +0.164 HD
BRANCH  16  21
ATOM     21  C   UNL     1     -10.586  -5.705   3.961  0.00  0.00    +0.017 A 
ATOM     22  C   UNL     1     -11.462  -4.680   4.318  0.00  0.00    +0.013 A 
ATOM     23  C   UNL     1     -12.153  -4.751   5.510  0.00  0.00    +0.021 A 
ATOM     24  C   UNL     1     -11.978  -5.837   6.351  0.00  0.00    +0.041 A 
ATOM     25  C   UNL     1     -11.110  -6.857   6.002  0.00  0.00    +0.021 A 
ATOM     26  C   UNL     1     -10.418  -6.799   4.810  0.00  0.00    +0.013 A 
ATOM     27 CL   UNL     1     -12.851  -5.919   7.850  0.00  0.00    -0.084 Cl
ENDBRANCH  16  21
ENDBRANCH   7  14
BRANCH   1  28
ATOM     28  C   UNL     1      -1.416  -2.058  -0.121  0.00  0.00    +0.130 C 
BRANCH  28  29
ATOM     29  C   UNL     1      -1.433  -0.534   0.013  0.00  0.00    +0.025 C 
BRANCH  29  31
ATOM     30  C   UNL     1      -0.019   1.526   0.010  0.00  0.00    +0.007 C 
ATOM     31  C   UNL     1       0.002  -0.004   0.002  0.00  0.00    -0.016 C 
ATOM     32  C   UNL     1       0.742  -0.511   1.242  0.00  0.00    +0.007 C 
ENDBRANCH  29  31
ENDBRANCH  28  29
ENDBRANCH   1  28
TORSDOF 5
