REMARK  Name = ZINC07813408
REMARK  6 active torsions:
REMARK  status: ('A' for Active; 'I' for Inactive)
REMARK    1  A    between atoms: C_1  and  C_2
REMARK    2  A    between atoms: C_4  and  C_20
REMARK    3  A    between atoms: C_6  and  C_9
REMARK    4  A    between atoms: C_6  and  C_10
REMARK    5  A    between atoms: N_7  and  O_8
REMARK    6  A    between atoms: C_14  and  N_16
REMARK                            x       y       z     vdW  Elec       q    Type
REMARK                         _______ _______ _______ _____ _____    ______ ____
ROOT
ATOM      1  C   UNL     1       5.698   1.054  -1.133  0.00  0.00    +0.033 C 
ATOM      2  C   UNL     1       5.385  -0.030  -0.100  0.00  0.00    +0.134 C 
ATOM      3  C   UNL     1       3.955  -0.502  -0.246  0.00  0.00    +0.086 C 
ATOM      4  N   UNL     1       3.919  -1.791  -0.178  0.00  0.00    -0.140 N 
ATOM      5  C   UNL     1       5.269  -2.335   0.009  0.00  0.00    +0.179 C 
ATOM      6  N   UNL     1       6.203  -1.242  -0.352  0.00  0.00    -0.149 NA
ATOM      7  C   UNL     1       5.471  -2.741   1.470  0.00  0.00    +0.063 C 
ATOM      8  O   UNL     1       2.741  -2.571  -0.273  0.00  0.00    -0.167 OA
ENDROOT
BRANCH   5   9
ATOM      9  C   UNL     1       5.485  -3.523  -0.894  0.00  0.00    -0.000 A 
ATOM     10  C   UNL     1       4.475  -4.450  -1.070  0.00  0.00    +0.007 A 
ATOM     11  C   UNL     1       4.674  -5.539  -1.898  0.00  0.00    +0.003 A 
ATOM     12  C   UNL     1       5.882  -5.700  -2.550  0.00  0.00    +0.033 A 
ATOM     13  C   UNL     1       6.891  -4.773  -2.375  0.00  0.00    +0.127 A 
ATOM     14  C   UNL     1       6.691  -3.681  -1.550  0.00  0.00    +0.040 A 
BRANCH  13  15
ATOM     15  N   UNL     1       8.185  -4.946  -3.073  0.00  0.00    +0.056 N 
ATOM     16  O   UNL     1       8.360  -5.906  -3.802  0.00  0.00    -0.126 OA
ATOM     17  O   UNL     1       9.075  -4.128  -2.918  0.00  0.00    -0.126 OA
ENDBRANCH  13  15
ENDBRANCH   5   9
BRANCH   3  18
ATOM     18  C   UNL     1       2.782   0.376  -0.432  0.00  0.00    -0.001 A 
ATOM     19  C   UNL     1       2.794   1.678   0.071  0.00  0.00    +0.010 A 
ATOM     20  C   UNL     1       1.695   2.493  -0.105  0.00  0.00    +0.001 A 
ATOM     21  C   UNL     1       0.582   2.021  -0.779  0.00  0.00    +0.000 A 
ATOM     22  C   UNL     1       0.563   0.732  -1.280  0.00  0.00    +0.001 A 
ATOM     23  C   UNL     1       1.656  -0.093  -1.110  0.00  0.00    +0.010 A 
ENDBRANCH   3  18
BRANCH   6  24
ATOM     24  O   UNL     1       7.389  -1.262   0.504  0.00  0.00    -0.309 OA
ATOM     25  H   UNL     1       7.977  -0.505   0.379  0.00  0.00    +0.237 HD
ENDBRANCH   6  24
TORSDOF 4
