REMARK  Name = ZINC41296245
REMARK  8 active torsions:
REMARK  status: ('A' for Active; 'I' for Inactive)
REMARK    1  A    between atoms: C_1  and  C_2
REMARK    2  A    between atoms: C_2  and  C_3
REMARK    3  A    between atoms: C_2  and  C_4
REMARK    4  A    between atoms: C_8  and  O_10
REMARK    5  A    between atoms: O_10  and  C_11
REMARK    6  A    between atoms: C_11  and  C_12
REMARK    7  A    between atoms: C_14  and  N_18
REMARK    8  A    between atoms: N_15  and  C_17
REMARK                            x       y       z     vdW  Elec       q    Type
REMARK                         _______ _______ _______ _____ _____    ______ ____
ROOT
ATOM      1  O   UNL     1       0.114  -2.575   4.149  0.00  0.00    -0.486 OA
ENDROOT
BRANCH   1   6
ATOM      2  C   UNL     1       0.731  -0.503   1.223  0.00  0.00    -0.041 A 
ATOM      3  C   UNL     1       2.051  -0.147   1.433  0.00  0.00    +0.004 A 
ATOM      4  C   UNL     1       2.722  -0.604   2.552  0.00  0.00    +0.004 A 
ATOM      5  C   UNL     1       2.076  -1.417   3.463  0.00  0.00    +0.045 A 
ATOM      6  C   UNL     1       0.752  -1.776   3.254  0.00  0.00    +0.121 A 
ATOM      7  C   UNL     1       0.079  -1.311   2.134  0.00  0.00    +0.049 A 
BRANCH   2   9
ATOM      8  C   UNL     1      -0.019   1.526   0.010  0.00  0.00    +0.012 C 
ATOM      9  C   UNL     1       0.002  -0.004   0.002  0.00  0.00    +0.013 C 
ATOM     10  C   UNL     1       0.718  -0.497  -1.257  0.00  0.00    +0.012 C 
ENDBRANCH   2   9
ENDBRANCH   1   6
BRANCH   1  11
ATOM     11  C   UNL     1       0.868  -3.011   5.282  0.00  0.00    +0.286 C 
BRANCH  11  12
ATOM     12  C   UNL     1       0.003  -3.882   6.156  0.00  0.00    +0.102 A 
ATOM     13  C   UNL     1      -1.329  -4.225   5.907  0.00  0.00    +0.071 A 
ATOM     14  C   UNL     1      -1.752  -5.022   6.927  0.00  0.00    +0.114 A 
ATOM     15  N   UNL     1      -0.717  -5.171   7.785  0.00  0.00    -0.254 N 
ATOM     16  N   UNL     1       0.371  -4.451   7.275  0.00  0.00    -0.171 NA
ATOM     17  C   UNL     1      -0.730  -5.951   9.024  0.00  0.00    +0.174 C 
BRANCH  14  18
ATOM     18  N   UNL     1      -3.020  -5.581   7.063  0.00  0.00    -0.343 N 
ATOM     19  H   UNL     1      -3.698  -5.414   6.390  0.00  0.00    +0.144 HD
ATOM     20  H   UNL     1      -3.225  -6.138   7.830  0.00  0.00    +0.144 HD
ENDBRANCH  14  18
ENDBRANCH  11  12
ENDBRANCH   1  11
TORSDOF 5
