REMARK  Name = ZINC63530392
REMARK  8 active torsions:
REMARK  status: ('A' for Active; 'I' for Inactive)
REMARK    1  A    between atoms: C_1  and  C_2
REMARK    2  A    between atoms: C_2  and  C_3
REMARK    3  A    between atoms: C_2  and  N_4
REMARK    4  A    between atoms: C_7  and  C_9
REMARK    5  A    between atoms: C_9  and  N_10
REMARK    6  A    between atoms: C_11  and  C_13
REMARK    7  A    between atoms: C_13  and  N_14
REMARK    8  A    between atoms: C_15  and  C_17
REMARK                            x       y       z     vdW  Elec       q    Type
REMARK                         _______ _______ _______ _____ _____    ______ ____
ROOT
ATOM      1  N   UNL     1      -4.674  -2.218  -2.974  0.00  0.00    -0.314 N 
ATOM      2  C   UNL     1      -5.089  -2.596  -4.199  0.00  0.00    +0.230 C 
ATOM      3  O   UNL     1      -4.522  -2.179  -5.187  0.00  0.00    -0.274 OA
ATOM      4  H   UNL     1      -5.128  -2.552  -2.184  0.00  0.00    +0.149 HD
ENDROOT
BRANCH   1   5
ATOM      5  C   UNL     1      -3.539  -1.303  -2.835  0.00  0.00    +0.105 C 
BRANCH   5   9
ATOM      6  N   UNL     1      -1.376  -0.512   0.012  0.00  0.00    +0.381 N 
ATOM      7  C   UNL     1      -1.385  -1.992  -0.122  0.00  0.00    -0.078 C 
ATOM      8  C   UNL     1      -2.796  -2.326  -0.653  0.00  0.00    -0.015 C 
ATOM      9  C   UNL     1      -3.276  -1.037  -1.351  0.00  0.00    -0.012 C 
ATOM     10  C   UNL     1      -2.116  -0.033  -1.183  0.00  0.00    -0.074 C 
ATOM     11  H   UNL     1      -1.850  -0.230   0.857  0.00  0.00    -0.081 HD
BRANCH   6  13
ATOM     12  C   UNL     1      -0.019   1.526   0.010  0.00  0.00    -0.014 C 
ATOM     13  C   UNL     1       0.002  -0.004   0.002  0.00  0.00    -0.075 C 
ATOM     14  C   UNL     1       0.742  -0.511   1.242  0.00  0.00    -0.014 C 
ENDBRANCH   6  13
ENDBRANCH   5   9
ENDBRANCH   1   5
BRANCH   2  15
ATOM     15  C   UNL     1      -6.257  -3.538  -4.342  0.00  0.00    +0.200 C 
BRANCH  15  16
ATOM     16  N   UNL     1      -6.508  -3.792  -5.763  0.00  0.00    -0.303 N 
ATOM     17  C   UNL     1      -7.513  -4.611  -6.133  0.00  0.00    +0.246 C 
ATOM     18  O   UNL     1      -8.210  -5.138  -5.289  0.00  0.00    -0.270 OA
ATOM     19  H   UNL     1      -5.952  -3.371  -6.437  0.00  0.00    +0.150 HD
BRANCH  17  20
ATOM     20  C   UNL     1      -7.766  -4.867  -7.566  0.00  0.00    +0.055 A 
ATOM     21  C   UNL     1      -6.963  -4.268  -8.539  0.00  0.00    +0.016 A 
ATOM     22  C   UNL     1      -7.204  -4.511  -9.874  0.00  0.00    +0.021 A 
ATOM     23  C   UNL     1      -8.241  -5.348 -10.253  0.00  0.00    +0.042 A 
ATOM     24  C   UNL     1      -9.041  -5.946  -9.295  0.00  0.00    +0.040 A 
ATOM     25  C   UNL     1      -8.806  -5.716  -7.954  0.00  0.00    +0.054 A 
ATOM     26 CL   UNL     1      -9.806  -6.472  -6.753  0.00  0.00    -0.083 Cl
ATOM     27 CL   UNL     1      -8.538  -5.648 -11.937  0.00  0.00    -0.083 Cl
ENDBRANCH  17  20
ENDBRANCH  15  16
ENDBRANCH   2  15
TORSDOF 6
