REMARK  Name = ZINC62934947
REMARK  6 active torsions:
REMARK  status: ('A' for Active; 'I' for Inactive)
REMARK    1  A    between atoms: C_1  and  C_2
REMARK    2  A    between atoms: C_2  and  C_3
REMARK    3  A    between atoms: C_6  and  N_9
REMARK    4  A    between atoms: N_9  and  C_10
REMARK    5  A    between atoms: C_16  and  C_18
REMARK    6  A    between atoms: C_16  and  C_19
REMARK                            x       y       z     vdW  Elec       q    Type
REMARK                         _______ _______ _______ _____ _____    ______ ____
ROOT
ATOM      1  N   UNL     1       2.618  -1.928  -4.623  0.00  0.00    -0.258 N 
ATOM      2  C   UNL     1       1.840  -2.439  -5.755  0.00  0.00    +0.140 C 
ATOM      3  C   UNL     1       3.965  -1.956  -4.664  0.00  0.00    +0.309 C 
ATOM      4  O   UNL     1       4.610  -1.658  -3.677  0.00  0.00    -0.252 OA
ATOM      5  N   UNL     1       4.598  -2.314  -5.799  0.00  0.00    -0.284 N 
ATOM      6  C   UNL     1       3.943  -2.713  -7.059  0.00  0.00    +0.110 C 
ATOM      7  C   UNL     1       4.990  -2.417  -8.161  0.00  0.00    +0.038 C 
ATOM      8  C   UNL     1       6.312  -2.803  -7.446  0.00  0.00    +0.086 C 
ATOM      9  C   UNL     1       6.055  -2.366  -5.989  0.00  0.00    +0.127 C 
ATOM     10  C   UNL     1       6.553  -4.311  -7.530  0.00  0.00    +0.024 C 
ENDROOT
BRANCH   1  14
ATOM     11  C   UNL     1       0.667  -0.389  -1.279  0.00  0.00    -0.048 A 
ATOM     12  C   UNL     1      -0.061  -0.745  -2.400  0.00  0.00    +0.005 A 
ATOM     13  C   UNL     1       0.583  -1.256  -3.510  0.00  0.00    +0.024 A 
ATOM     14  C   UNL     1       1.963  -1.411  -3.500  0.00  0.00    +0.037 A 
ATOM     15  C   UNL     1       2.691  -1.053  -2.373  0.00  0.00    +0.024 A 
ATOM     16  C   UNL     1       2.042  -0.538  -1.268  0.00  0.00    +0.005 A 
BRANCH  11  18
ATOM     17  C   UNL     1      -0.129   1.690  -0.187  0.00  0.00    +0.009 C 
ATOM     18  C   UNL     1      -0.038   0.167  -0.069  0.00  0.00    +0.032 C 
ENDBRANCH  11  18
ENDBRANCH   1  14
BRANCH   8  19
ATOM     19  C   UNL     1       7.475  -2.043  -8.030  0.00  0.00    +0.363 C 
ATOM     20  O   UNL     1       7.296  -1.273  -8.958  0.00  0.00    -0.246 OA
ATOM     21  O   UNL     1       8.595  -2.197  -7.573  0.00  0.00    -0.246 OA
ENDBRANCH   8  19
TORSDOF 3
