REMARK  Name = ZINC27994043
REMARK  9 active torsions:
REMARK  status: ('A' for Active; 'I' for Inactive)
REMARK    1  A    between atoms: C_1  and  C_2
REMARK    2  A    between atoms: C_5  and  C_8
REMARK    3  A    between atoms: C_8  and  C_10
REMARK    4  A    between atoms: C_8  and  N_26
REMARK    5  A    between atoms: C_10  and  N_11
REMARK    6  A    between atoms: C_12  and  C_14
REMARK    7  A    between atoms: C_15  and  C_25
REMARK    8  A    between atoms: C_17  and  C_24
REMARK    9  A    between atoms: C_19  and  C_23
REMARK                            x       y       z     vdW  Elec       q    Type
REMARK                         _______ _______ _______ _____ _____    ______ ____
ROOT
ATOM      1  C   UNL     1       6.994   1.280  -0.142  0.00  0.00    +0.094 C 
ENDROOT
BRANCH   1   2
ATOM      2  N   UNL     1       7.451   1.932   1.088  0.00  0.00    -0.310 N 
ATOM      3  C   UNL     1       7.282   3.260   1.249  0.00  0.00    +0.280 C 
ATOM      4  O   UNL     1       6.751   3.916   0.373  0.00  0.00    -0.267 OA
ATOM      5  H   UNL     1       7.931   1.339   1.879  0.00  0.00    +0.149 HD
BRANCH   3   6
ATOM      6  C   UNL     1       7.741   3.914   2.482  0.00  0.00    +0.193 A 
ATOM      7  C   UNL     1       7.625   5.240   2.754  0.00  0.00    +0.008 A 
ATOM      8  C   UNL     1       8.210   5.435   4.079  0.00  0.00    +0.027 A 
ATOM      9  C   UNL     1       8.395   6.544   4.909  0.00  0.00    -0.039 A 
ATOM     10  C   UNL     1       8.995   6.387   6.126  0.00  0.00    +0.007 A 
ATOM     11  C   UNL     1       9.417   5.132   6.545  0.00  0.00    -0.047 A 
ATOM     12  C   UNL     1       9.248   4.027   5.740  0.00  0.00    +0.050 A 
ATOM     13  C   UNL     1       8.640   4.162   4.497  0.00  0.00    +0.137 A 
ATOM     14  O   UNL     1       8.341   3.288   3.517  0.00  0.00    -0.450 OA
ATOM     15  C   UNL     1      10.071   4.979   7.894  0.00  0.00    +0.044 C 
ATOM     16  C   UNL     1       7.936   7.908   4.462  0.00  0.00    +0.044 C 
ATOM     17  C   UNL     1       7.015   6.296   1.868  0.00  0.00    +0.048 C 
ENDBRANCH   3   6
ENDBRANCH   1   2
BRANCH   1  18
ATOM     18  C   UNL     1       7.427  -0.187  -0.132  0.00  0.00    -0.020 C 
BRANCH  18  23
ATOM     19  C   UNL     1      13.197  -0.493  -0.107  0.00  0.00    +0.044 C 
ATOM     20  C   UNL     1      11.693  -0.413  -0.114  0.00  0.00    -0.050 A 
ATOM     21  C   UNL     1      10.987  -0.577   1.063  0.00  0.00    +0.003 A 
ATOM     22  C   UNL     1       9.606  -0.504   1.057  0.00  0.00    +0.002 A 
ATOM     23  C   UNL     1       8.932  -0.267  -0.126  0.00  0.00    -0.059 A 
ATOM     24  C   UNL     1       9.638  -0.107  -1.304  0.00  0.00    +0.002 A 
ATOM     25  C   UNL     1      11.018  -0.175  -1.297  0.00  0.00    +0.003 A 
ENDBRANCH  18  23
BRANCH  18  26
ATOM     26  N   UNL     1       6.907  -0.860  -1.330  0.00  0.00    +0.385 N 
ATOM     27  C   UNL     1       5.444  -0.750  -1.401  0.00  0.00    -0.078 C 
ATOM     28  C   UNL     1       4.952  -1.331  -2.729  0.00  0.00    -0.019 C 
ATOM     29  C   UNL     1       5.378  -2.799  -2.827  0.00  0.00    -0.004 C 
ATOM     30  C   UNL     1       6.901  -2.889  -2.702  0.00  0.00    -0.019 C 
ATOM     31  C   UNL     1       7.337  -2.263  -1.375  0.00  0.00    -0.078 C 
ATOM     32  H   UNL     1       7.324  -0.352  -2.213  0.00  0.00    -0.081 HD
ENDBRANCH  18  26
ENDBRANCH   1  18
TORSDOF 5
