REMARK  Name = ZINC10577416
REMARK  4 active torsions:
REMARK  status: ('A' for Active; 'I' for Inactive)
REMARK    1  A    between atoms: C_1  and  C_2
REMARK    2  A    between atoms: N_4  and  C_5
REMARK    3  A    between atoms: C_8  and  C_10
REMARK    4  A    between atoms: N_12  and  C_13
REMARK                            x       y       z     vdW  Elec       q    Type
REMARK                         _______ _______ _______ _____ _____    ______ ____
ROOT
ATOM      1  C   UNL     1      -9.011   2.475   1.788  0.00  0.00    +0.255 C 
ATOM      2  O   UNL     1      -8.760   1.726   0.862  0.00  0.00    -0.269 OA
ATOM      3  N   UNL     1      -8.032   3.223   2.334  0.00  0.00    -0.281 N 
ATOM      4  H   UNL     1      -8.216   3.769   3.114  0.00  0.00    +0.155 HD
ENDROOT
BRANCH   3   5
ATOM      5  C   UNL     1      -6.748   3.212   1.775  0.00  0.00    +0.037 A 
ATOM      6  C   UNL     1      -5.981   4.370   1.774  0.00  0.00    +0.027 A 
ATOM      7  C   UNL     1      -4.714   4.360   1.222  0.00  0.00    +0.051 A 
ATOM      8  C   UNL     1      -4.206   3.197   0.668  0.00  0.00    +0.167 A 
ATOM      9  C   UNL     1      -4.972   2.033   0.670  0.00  0.00    +0.169 A 
ATOM     10  C   UNL     1      -6.242   2.043   1.222  0.00  0.00    +0.073 A 
ATOM     11  O   UNL     1      -4.252   1.034   0.078  0.00  0.00    -0.447 OA
ATOM     12  C   UNL     1      -2.894   1.498   0.069  0.00  0.00    +0.254 C 
ATOM     13  O   UNL     1      -3.006   2.929   0.071  0.00  0.00    -0.448 OA
ATOM     14  C   UNL     1      -2.177   1.022  -1.189  0.00  0.00    +0.093 C 
ATOM     15  C   UNL     1      -0.742   1.554  -1.194  0.00  0.00    +0.008 C 
ATOM     16  C   UNL     1      -0.008   1.054   0.052  0.00  0.00    +0.000 C 
ATOM     17  C   UNL     1      -0.728   1.557   1.306  0.00  0.00    +0.008 C 
ATOM     18  C   UNL     1      -2.162   1.023   1.319  0.00  0.00    +0.093 C 
ENDBRANCH   3   5
BRANCH   1  22
ATOM     19  C   UNL     1     -12.662   3.068   3.586  0.00  0.00    +0.072 A 
ATOM     20  C   UNL     1     -12.679   2.154   2.554  0.00  0.00    +0.032 A 
ATOM     21  C   UNL     1     -11.511   1.886   1.891  0.00  0.00    +0.022 A 
ATOM     22  C   UNL     1     -10.374   2.563   2.308  0.00  0.00    +0.076 A 
ATOM     23  S   UNL     1     -11.001   3.562   3.646  0.00  0.00    -0.069 S 
BRANCH  19  27
ATOM     24  C   UNL     1     -14.652   4.855   6.223  0.00  0.00    +0.109 C 
ATOM     25  C   UNL     1     -13.507   4.400   5.355  0.00  0.00    +0.214 C 
ATOM     26  O   UNL     1     -12.396   4.855   5.529  0.00  0.00    -0.276 OA
ATOM     27  N   UNL     1     -13.717   3.488   4.386  0.00  0.00    -0.280 N 
ATOM     28  H   UNL     1     -14.606   3.124   4.247  0.00  0.00    +0.155 HD
ENDBRANCH  19  27
ENDBRANCH   1  22
TORSDOF 3
