REMARK  Name = ZINC52879421
REMARK  5 active torsions:
REMARK  status: ('A' for Active; 'I' for Inactive)
REMARK    1  A    between atoms: C_1  and  C_2
REMARK    2  A    between atoms: C_2  and  C_3
REMARK    3  A    between atoms: C_2  and  C_9
REMARK    4  A    between atoms: C_2  and  N_21
REMARK    5  A    between atoms: C_11  and  C_14
REMARK                            x       y       z     vdW  Elec       q    Type
REMARK                         _______ _______ _______ _____ _____    ______ ____
ROOT
ATOM      1  C   UNL     1       0.431   1.464  -0.048  0.00  0.00    +0.004 C 
ATOM      2  C   UNL     1       0.002  -0.004   0.002  0.00  0.00    +0.033 C 
ENDROOT
BRANCH   2   3
ATOM      3  C   UNL     1       0.569  -0.651   1.240  0.00  0.00    -0.050 A 
ATOM      4  C   UNL     1       1.923  -0.569   1.504  0.00  0.00    +0.003 A 
ATOM      5  C   UNL     1       2.443  -1.162   2.639  0.00  0.00    +0.000 A 
ATOM      6  C   UNL     1       1.608  -1.838   3.510  0.00  0.00    +0.000 A 
ATOM      7  C   UNL     1       0.254  -1.919   3.246  0.00  0.00    +0.000 A 
ATOM      8  C   UNL     1      -0.267  -1.322   2.113  0.00  0.00    +0.003 A 
ENDBRANCH   2   3
BRANCH   2   9
ATOM      9  C   UNL     1       0.518  -0.720  -1.220  0.00  0.00    +0.220 A 
ATOM     10  N   UNL     1       0.177  -0.465  -2.451  0.00  0.00    -0.192 NA
ATOM     11  C   UNL     1       0.828  -1.292  -3.289  0.00  0.00    +0.202 A 
ATOM     12  N   UNL     1       1.595  -2.086  -2.583  0.00  0.00    -0.056 NA
ATOM     13  O   UNL     1       1.408  -1.720  -1.224  0.00  0.00    -0.339 OA
BRANCH  11  14
ATOM     14  C   UNL     1       0.699  -1.304  -4.768  0.00  0.00    +0.023 A 
ATOM     15  C   UNL     1      -0.151  -0.400  -5.402  0.00  0.00    +0.013 A 
ATOM     16  C   UNL     1      -0.268  -0.415  -6.777  0.00  0.00    +0.016 A 
ATOM     17  C   UNL     1       0.457  -1.326  -7.526  0.00  0.00    +0.018 A 
ATOM     18  C   UNL     1       1.302  -2.226  -6.900  0.00  0.00    +0.016 A 
ATOM     19  C   UNL     1       1.431  -2.215  -5.526  0.00  0.00    +0.013 A 
ATOM     20 BR   UNL     1       0.292  -1.342  -9.409  0.00  0.00    -0.050 Br
ENDBRANCH  11  14
ENDBRANCH   2   9
BRANCH   2  21
ATOM     21  N   UNL     1      -1.464  -0.085   0.035  0.00  0.00    +0.390 N 
ATOM     22  H   UNL     1      -1.844   0.348  -0.794  0.00  0.00    -0.088 HD
ATOM     23  H   UNL     1      -1.747  -1.053   0.067  0.00  0.00    -0.088 HD
ATOM     24  H   UNL     1      -1.810   0.394   0.853  0.00  0.00    -0.088 HD
ENDBRANCH   2  21
TORSDOF 4
