REMARK  Name = ZINC42371385
REMARK  3 active torsions:
REMARK  status: ('A' for Active; 'I' for Inactive)
REMARK    1  A    between atoms: C_6  and  N_7
REMARK    2  A    between atoms: N_10  and  C_11
REMARK    3  A    between atoms: C_11  and  C_12
REMARK                            x       y       z     vdW  Elec       q    Type
REMARK                         _______ _______ _______ _____ _____    ______ ____
ROOT
ATOM      1  C   UNL     1       0.025   1.394   0.275  0.00  0.00    +0.053 A 
ATOM      2  C   UNL     1       1.224   2.057   0.045  0.00  0.00    +0.038 A 
ATOM      3  C   UNL     1       2.360   1.323  -0.231  0.00  0.00    +0.128 A 
ATOM      4  N   UNL     1       2.320   0.004  -0.278  0.00  0.00    -0.237 NA
ATOM      5  C   UNL     1       1.196  -0.663  -0.065  0.00  0.00    +0.149 A 
ATOM      6  C   UNL     1       0.013   0.012   0.218  0.00  0.00    +0.167 A 
ATOM      7  N   UNL     1       1.199  -2.053  -0.124  0.00  0.00    -0.323 N 
ATOM      8 BR   UNL     1       1.298   3.946   0.108  0.00  0.00    -0.049 Br
ATOM      9  H   UNL     1       0.366  -2.543  -0.047  0.00  0.00    +0.148 HD
ENDROOT
BRANCH   6  10
ATOM     10  N   UNL     1      -1.240  -0.738   0.457  0.00  0.00    +0.060 N 
ATOM     11  O   UNL     1      -2.292  -0.302   0.051  0.00  0.00    -0.126 OA
ATOM     12  O   UNL     1      -1.212  -1.787   1.058  0.00  0.00    -0.126 OA
ENDBRANCH   6  10
BRANCH   7  13
ATOM     13  C   UNL     1       2.461  -2.776  -0.304  0.00  0.00    +0.141 C 
BRANCH  13  14
ATOM     14  C   UNL     1       2.190  -4.258  -0.336  0.00  0.00    +0.007 A 
ATOM     15  C   UNL     1       2.170  -5.086   0.734  0.00  0.00    +0.110 A 
ATOM     16  N   UNL     1       1.893  -6.329   0.287  0.00  0.00    -0.284 N 
ATOM     17  H   UNL     1       1.814  -7.127   0.832  0.00  0.00    +0.188 HD
ATOM     18  N   UNL     1       1.737  -6.262  -1.104  0.00  0.00    -0.182 NA
ATOM     19  C   UNL     1       1.909  -5.019  -1.475  0.00  0.00    +0.139 A 
ENDBRANCH  13  14
ENDBRANCH   7  13
TORSDOF 3
