REMARK  Name = ZINC58645284
REMARK  8 active torsions:
REMARK  status: ('A' for Active; 'I' for Inactive)
REMARK    1  A    between atoms: C_1  and  C_2
REMARK    2  A    between atoms: C_2  and  C_3
REMARK    3  A    between atoms: C_2  and  N_4
REMARK    4  A    between atoms: C_13  and  C_15
REMARK    5  A    between atoms: N_17  and  N_18
REMARK    6  A    between atoms: N_18  and  S_19
REMARK    7  A    between atoms: S_19  and  C_22
REMARK    8  A    between atoms: C_27  and  C_28
REMARK                            x       y       z     vdW  Elec       q    Type
REMARK                         _______ _______ _______ _____ _____    ______ ____
ROOT
ATOM      1  C   UNL     1      -3.176  -0.277   1.946  0.00  0.00    +0.279 C 
ATOM      2  O   UNL     1      -4.139  -1.009   2.067  0.00  0.00    -0.267 OA
ATOM      3  N   UNL     1      -3.025   0.781   2.768  0.00  0.00    -0.226 N 
ATOM      4  H   UNL     1      -2.222   1.322   2.720  0.00  0.00    +0.171 HD
ENDROOT
BRANCH   1  14
ATOM      5  N   UNL     1      -0.159   0.003  -0.047  0.00  0.00    -0.226 N 
ATOM      6  C   UNL     1      -0.211  -0.944  -1.006  0.00  0.00    +0.275 A 
ATOM      7  O   UNL     1       0.692  -1.062  -1.815  0.00  0.00    -0.266 OA
ATOM      8  C   UNL     1      -1.381  -1.831  -1.053  0.00  0.00    +0.050 A 
ATOM      9  C   UNL     1      -1.530  -2.837  -2.002  0.00  0.00    +0.014 A 
ATOM     10  C   UNL     1      -2.660  -3.627  -1.978  0.00  0.00    +0.001 A 
ATOM     11  C   UNL     1      -3.645  -3.427  -1.020  0.00  0.00    +0.001 A 
ATOM     12  C   UNL     1      -3.517  -2.435  -0.072  0.00  0.00    +0.011 A 
ATOM     13  C   UNL     1      -2.385  -1.627  -0.078  0.00  0.00    +0.020 A 
ATOM     14  C   UNL     1      -2.171  -0.547   0.899  0.00  0.00    +0.155 A 
ATOM     15  N   UNL     1      -1.075   0.169   0.831  0.00  0.00    -0.163 NA
BRANCH   5  17
ATOM     16  C   UNL     1       0.552   2.343  -0.050  0.00  0.00    +0.032 C 
ATOM     17  C   UNL     1       1.010   0.884  -0.004  0.00  0.00    +0.105 C 
ATOM     18  C   UNL     1       1.790   0.635   1.288  0.00  0.00    +0.032 C 
ENDBRANCH   5  17
ENDBRANCH   1  14
BRANCH   3  19
ATOM     19  N   UNL     1      -4.030   1.099   3.691  0.00  0.00    -0.108 NA
ATOM     20  H   UNL     1      -4.937   1.256   3.386  0.00  0.00    +0.172 HD
BRANCH  19  21
ATOM     21  S   UNL     1      -3.668   1.206   5.304  0.00  0.00    +0.074 S 
ATOM     22  O   UNL     1      -4.851   1.643   5.957  0.00  0.00    -0.152 OA
ATOM     23  O   UNL     1      -3.006  -0.002   5.653  0.00  0.00    -0.152 OA
BRANCH  21  24
ATOM     24  C   UNL     1      -2.485   2.499   5.487  0.00  0.00    +0.114 A 
ATOM     25  C   UNL     1      -2.285   3.404   4.464  0.00  0.00    +0.029 A 
ATOM     26  C   UNL     1      -1.357   4.419   4.606  0.00  0.00    +0.002 A 
ATOM     27  C   UNL     1      -0.624   4.534   5.774  0.00  0.00    +0.001 A 
ATOM     28  C   UNL     1      -0.816   3.636   6.804  0.00  0.00    +0.010 A 
ATOM     29  C   UNL     1      -1.754   2.614   6.667  0.00  0.00    +0.009 A 
BRANCH  29  30
ATOM     30  C   UNL     1      -1.968   1.648   7.773  0.00  0.00    -0.016 A 
ATOM     31  C   UNL     1      -3.238   1.485   8.323  0.00  0.00    +0.008 A 
ATOM     32  C   UNL     1      -3.432   0.584   9.351  0.00  0.00    +0.001 A 
ATOM     33  C   UNL     1      -2.368  -0.155   9.835  0.00  0.00    +0.000 A 
ATOM     34  C   UNL     1      -1.105   0.003   9.294  0.00  0.00    +0.001 A 
ATOM     35  C   UNL     1      -0.901   0.896   8.262  0.00  0.00    +0.008 A 
ENDBRANCH  29  30
ENDBRANCH  21  24
ENDBRANCH  19  21
ENDBRANCH   3  19
TORSDOF 6
