REMARK  Name = ZINC45585927
REMARK  7 active torsions:
REMARK  status: ('A' for Active; 'I' for Inactive)
REMARK    1  A    between atoms: C_1  and  C_2
REMARK    2  A    between atoms: C_7  and  S_10
REMARK    3  A    between atoms: S_10  and  C_11
REMARK    4  A    between atoms: C_11  and  C_12
REMARK    5  A    between atoms: C_12  and  C_13
REMARK    6  A    between atoms: C_12  and  C_19
REMARK    7  A    between atoms: C_12  and  N_22
REMARK                            x       y       z     vdW  Elec       q    Type
REMARK                         _______ _______ _______ _____ _____    ______ ____
ROOT
ATOM      1  C   UNL     1       2.889   2.342  -5.602  0.00  0.00    +0.128 C 
ENDROOT
BRANCH   1   2
ATOM      2  C   UNL     1       4.300   1.986  -5.208  0.00  0.00    -0.018 A 
ATOM      3  C   UNL     1       4.711   2.141  -3.897  0.00  0.00    +0.006 A 
ATOM      4  C   UNL     1       6.005   1.814  -3.536  0.00  0.00    +0.000 A 
ATOM      5  C   UNL     1       6.887   1.332  -4.485  0.00  0.00    +0.000 A 
ATOM      6  C   UNL     1       6.475   1.176  -5.795  0.00  0.00    +0.000 A 
ATOM      7  C   UNL     1       5.180   1.499  -6.156  0.00  0.00    +0.006 A 
ENDBRANCH   1   2
BRANCH   1   8
ATOM      8  C   UNL     1       2.836   3.787  -6.027  0.00  0.00    +0.236 C 
ATOM      9  O   UNL     1       2.521   4.643  -5.228  0.00  0.00    -0.274 OA
ATOM     10  N   UNL     1       3.139   4.128  -7.296  0.00  0.00    -0.327 N 
ATOM     11  H   UNL     1       3.391   3.443  -7.935  0.00  0.00    +0.145 HD
ATOM     12  H   UNL     1       3.105   5.058  -7.569  0.00  0.00    +0.145 HD
ENDBRANCH   1   8
BRANCH   1  13
ATOM     13  N   UNL     1       2.462   1.487  -6.718  0.00  0.00    -0.313 NA
ATOM     14  H   UNL     1       3.022   1.658  -7.539  0.00  0.00    +0.119 HD
ATOM     15  H   UNL     1       2.489   0.513  -6.457  0.00  0.00    +0.119 HD
ENDBRANCH   1  13
BRANCH   1  16
ATOM     16  C   UNL     1       1.957   2.127  -4.409  0.00  0.00    +0.113 C 
BRANCH  16  17
ATOM     17  S   UNL     1       0.259   2.556  -4.883  0.00  0.00    -0.085 S 
BRANCH  17  24
ATOM     18  C   UNL     1      -0.013   1.086   0.008  0.00  0.00    +0.066 C 
ATOM     19  C   UNL     1      -0.742   1.585  -1.213  0.00  0.00    +0.046 A 
ATOM     20  C   UNL     1      -2.090   1.794  -1.164  0.00  0.00    +0.093 A 
ATOM     21  C   UNL     1      -2.748   2.260  -2.315  0.00  0.00    +0.252 A 
ATOM     22  O   UNL     1      -3.952   2.457  -2.306  0.00  0.00    -0.268 OA
ATOM     23  N   UNL     1      -2.023   2.485  -3.431  0.00  0.00    -0.302 N 
ATOM     24  C   UNL     1      -0.680   2.259  -3.422  0.00  0.00    +0.169 A 
ATOM     25  N   UNL     1      -0.069   1.827  -2.335  0.00  0.00    -0.228 NA
ATOM     26  H   UNL     1      -2.457   2.806  -4.237  0.00  0.00    +0.171 HD
ENDBRANCH  17  24
ENDBRANCH  16  17
ENDBRANCH   1  16
TORSDOF 6
