REMARK  Name = ZINC39228054
REMARK  9 active torsions:
REMARK  status: ('A' for Active; 'I' for Inactive)
REMARK    1  A    between atoms: C_1  and  C_2
REMARK    2  A    between atoms: C_2  and  C_3
REMARK    3  A    between atoms: C_2  and  C_4
REMARK    4  A    between atoms: C_2  and  O_5
REMARK    5  A    between atoms: O_5  and  C_6
REMARK    6  A    between atoms: C_21  and  C_23
REMARK    7  A    between atoms: N_25  and  C_26
REMARK    8  A    between atoms: N_25  and  C_27
REMARK    9  A    between atoms: C_27  and  C_28
REMARK                            x       y       z     vdW  Elec       q    Type
REMARK                         _______ _______ _______ _____ _____    ______ ____
ROOT
ATOM      1  C   UNL     1       2.056   1.479  -2.902  0.00  0.00    +0.404 C 
ATOM      2  O   UNL     1       2.424   2.086  -1.916  0.00  0.00    -0.226 OA
ATOM      3  N   UNL     1       2.743   0.399  -3.324  0.00  0.00    -0.250 N 
ATOM      4  C   UNL     1       2.254  -0.415  -4.450  0.00  0.00    +0.165 C 
ATOM      5  C   UNL     1       2.401  -1.868  -4.059  0.00  0.00    +0.038 A 
ATOM      6  H   UNL     1       1.331  -2.902  -5.518  0.00  0.00    +0.166 HD
ATOM      7  C   UNL     1       3.097  -2.281  -2.978  0.00  0.00    -0.015 A 
ATOM      8  C   UNL     1       3.008  -3.727  -2.945  0.00  0.00    +0.003 A 
ATOM      9  C   UNL     1       3.525  -4.689  -2.072  0.00  0.00    +0.010 A 
ATOM     10  C   UNL     1       3.234  -6.002  -2.352  0.00  0.00    +0.001 A 
ATOM     11  C   UNL     1       2.464  -6.368  -3.443  0.00  0.00    +0.002 A 
ATOM     12  C   UNL     1       1.941  -5.437  -4.324  0.00  0.00    +0.026 A 
ATOM     13  C   UNL     1       2.220  -4.097  -4.066  0.00  0.00    +0.047 A 
ATOM     14  N   UNL     1       1.872  -2.947  -4.714  0.00  0.00    -0.356 N 
ATOM     15  C   UNL     1       3.809  -1.368  -2.013  0.00  0.00    +0.069 C 
ATOM     16  C   UNL     1       4.004   0.006  -2.677  0.00  0.00    +0.170 C 
ENDROOT
BRANCH  16  17
ATOM     17  C   UNL     1       4.374   1.028  -1.632  0.00  0.00    +0.236 C 
ATOM     18  O   UNL     1       3.833   1.008  -0.546  0.00  0.00    -0.274 OA
ATOM     19  N   UNL     1       5.305   1.963  -1.904  0.00  0.00    -0.298 N 
ATOM     20  C   UNL     1       5.958   1.987  -3.215  0.00  0.00    +0.132 C 
BRANCH  19  21
ATOM     21  C   UNL     1       5.665   2.956  -0.888  0.00  0.00    +0.168 C 
BRANCH  21  22
ATOM     22  C   UNL     1       6.819   2.421  -0.039  0.00  0.00    +0.267 C 
ATOM     23  O   UNL     1       7.952   2.148  -0.880  0.00  0.00    -0.347 OA
ATOM     24  C   UNL     1       8.565   0.969  -0.306  0.00  0.00    +0.191 C 
ATOM     25  C   UNL     1       7.326   0.171   0.170  0.00  0.00    +0.191 C 
ATOM     26  O   UNL     1       6.420   1.204   0.606  0.00  0.00    -0.347 OA
ENDBRANCH  21  22
ENDBRANCH  19  21
ENDBRANCH  16  17
BRANCH   1  27
ATOM     27  O   UNL     1       0.962   1.886  -3.573  0.00  0.00    -0.445 OA
BRANCH  27  29
ATOM     28  C   UNL     1       1.236   4.234  -3.074  0.00  0.00    +0.055 C 
ATOM     29  C   UNL     1       0.283   3.038  -3.069  0.00  0.00    +0.107 C 
ATOM     30  C   UNL     1      -0.189   2.767  -1.639  0.00  0.00    +0.055 C 
ATOM     31  C   UNL     1      -0.926   3.345  -3.956  0.00  0.00    +0.055 C 
ENDBRANCH  27  29
ENDBRANCH   1  27
TORSDOF 5
