REMARK  Name = ZINC19445537
REMARK  6 active torsions:
REMARK  status: ('A' for Active; 'I' for Inactive)
REMARK    1  A    between atoms: C_1  and  C_2
REMARK    2  A    between atoms: C_2  and  C_3
REMARK    3  A    between atoms: C_2  and  C_4
REMARK    4  A    between atoms: C_4  and  C_6
REMARK    5  A    between atoms: C_4  and  N_19
REMARK    6  A    between atoms: C_20  and  C_22
REMARK                            x       y       z     vdW  Elec       q    Type
REMARK                         _______ _______ _______ _____ _____    ______ ____
ROOT
ATOM      1  C   UNL     1      -0.880   1.905   1.237  0.00  0.00    +0.125 C 
ENDROOT
BRANCH   1   2
ATOM      2  C   UNL     1      -2.259   1.297   1.290  0.00  0.00    +0.070 A 
ATOM      3  C   UNL     1      -2.800   0.897   2.498  0.00  0.00    +0.095 A 
ATOM      4  C   UNL     1      -4.079   0.344   2.502  0.00  0.00    +0.253 A 
ATOM      5  N   UNL     1      -4.734   0.222   1.354  0.00  0.00    -0.295 N 
ATOM      6  C   UNL     1      -4.179   0.612   0.216  0.00  0.00    +0.199 A 
ATOM      7  N   UNL     1      -2.964   1.141   0.180  0.00  0.00    -0.219 NA
ATOM      8  N   UNL     1      -4.886   0.465  -0.965  0.00  0.00    -0.297 N 
ATOM      9  C   UNL     1      -5.022   1.753  -1.661  0.00  0.00    +0.136 C 
ATOM     10  C   UNL     1      -5.756   1.535  -2.987  0.00  0.00    +0.179 C 
ATOM     11  O   UNL     1      -7.022   0.922  -2.730  0.00  0.00    -0.377 OA
ATOM     12  C   UNL     1      -6.926  -0.335  -2.054  0.00  0.00    +0.179 C 
ATOM     13  C   UNL     1      -6.204  -0.136  -0.718  0.00  0.00    +0.136 C 
ATOM     14  O   UNL     1      -4.650  -0.058   3.664  0.00  0.00    -0.268 OA
ATOM     15  H   UNL     1      -5.746  -0.209   1.353  0.00  0.00    +0.172 HD
ENDBRANCH   1   2
BRANCH   1  16
ATOM     16  N   UNL     1      -0.235   1.766   2.545  0.00  0.00    -0.303 N 
ATOM     17  C   UNL     1       0.737   2.625   2.911  0.00  0.00    +0.245 C 
ATOM     18  O   UNL     1       1.078   3.515   2.157  0.00  0.00    -0.270 OA
ATOM     19  H   UNL     1      -0.543   0.960   3.228  0.00  0.00    +0.150 HD
BRANCH  17  20
ATOM     20  C   UNL     1       1.388   2.485   4.230  0.00  0.00    +0.038 A 
ATOM     21  C   UNL     1       0.994   1.466   5.101  0.00  0.00    +0.016 A 
ATOM     22  C   UNL     1       1.608   1.337   6.328  0.00  0.00    +0.040 A 
ATOM     23  C   UNL     1       2.607   2.221   6.704  0.00  0.00    +0.142 A 
ATOM     24  C   UNL     1       2.999   3.238   5.845  0.00  0.00    +0.077 A 
ATOM     25  C   UNL     1       2.395   3.373   4.612  0.00  0.00    +0.036 A 
ATOM     26 CL   UNL     1       4.251   4.342   6.322  0.00  0.00    -0.081 Cl
ATOM     27  F   UNL     1       3.203   2.092   7.910  0.00  0.00    -0.204 F 
ENDBRANCH  17  20
ENDBRANCH   1  16
BRANCH   1  29
ATOM     28  C   UNL     1       0.187  -0.266   0.610  0.00  0.00    +0.009 C 
ATOM     29  C   UNL     1      -0.045   1.183   0.177  0.00  0.00    +0.009 C 
ATOM     30  C   UNL     1       1.302   1.891   0.020  0.00  0.00    +0.009 C 
ENDBRANCH   1  29
TORSDOF 4
