REMARK  Name = ZINC12712925
REMARK  9 active torsions:
REMARK  status: ('A' for Active; 'I' for Inactive)
REMARK    1  A    between atoms: C_1  and  C_2
REMARK    2  A    between atoms: C_2  and  C_3
REMARK    3  A    between atoms: C_2  and  C_4
REMARK    4  A    between atoms: C_2  and  N_6
REMARK    5  A    between atoms: C_4  and  O_5
REMARK    6  A    between atoms: C_7  and  C_9
REMARK    7  A    between atoms: C_9  and  C_10
REMARK    8  A    between atoms: C_17  and  C_18
REMARK    9  A    between atoms: C_17  and  N_48
REMARK                            x       y       z     vdW  Elec       q    Type
REMARK                         _______ _______ _______ _____ _____    ______ ____
ROOT
ATOM      1  C   UNL     1       1.264   3.019  -0.008  0.00  0.00    +0.028 C 
ATOM      2  C   UNL     1       1.150   1.574   0.388  0.00  0.00    +0.200 C 
ATOM      3  O   UNL     1       2.164   0.912   0.469  0.00  0.00    -0.278 OA
ATOM      4  N   UNL     1      -0.021   0.987   0.655  0.00  0.00    -0.318 N 
ATOM      5  C   UNL     1      -1.300   1.683   0.547  0.00  0.00    +0.085 C 
ATOM      6  C   UNL     1      -1.074   3.197   0.557  0.00  0.00    -0.058 C 
ATOM      7  H   UNL     1      -0.021   0.057   0.929  0.00  0.00    +0.149 HD
ATOM      8  N   UNL     1      -0.051   3.510  -0.462  0.00  0.00    +0.391 N 
ATOM      9  H   UNL     1      -0.299   3.041  -1.341  0.00  0.00    -0.080 HD
ENDROOT
BRANCH   1  10
ATOM     10  C   UNL     1       2.266   3.153  -1.157  0.00  0.00    +0.089 C 
BRANCH  10  12
ATOM     11  N   UNL     1       2.522   2.294  -3.462  0.00  0.00    -0.308 N 
ATOM     12  C   UNL     1       1.754   2.403  -2.360  0.00  0.00    +0.212 C 
ATOM     13  O   UNL     1       0.652   1.899  -2.336  0.00  0.00    -0.276 OA
ATOM     14  H   UNL     1       3.404   2.697  -3.481  0.00  0.00    +0.149 HD
BRANCH  11  16
ATOM     15  C   UNL     1       1.729   0.115  -4.241  0.00  0.00    +0.033 C 
ATOM     16  C   UNL     1       2.025   1.565  -4.632  0.00  0.00    +0.052 C 
ATOM     17  C   UNL     1       0.742   2.228  -5.138  0.00  0.00    +0.033 C 
BRANCH  16  18
ATOM     18  C   UNL     1       3.083   1.590  -5.736  0.00  0.00    +0.181 C 
BRANCH  18  19
ATOM     19  O   UNL     1       2.598   0.879  -6.877  0.00  0.00    -0.393 OA
ATOM     20  H   UNL     1       3.218   0.854  -7.618  0.00  0.00    +0.209 HD
ENDBRANCH  18  19
ENDBRANCH  16  18
ENDBRANCH  11  16
ENDBRANCH  10  12
ENDBRANCH   1  10
BRANCH   8  21
ATOM     21  C   UNL     1       0.006   4.971  -0.694  0.00  0.00    -0.039 C 
BRANCH  21  22
ATOM     22  C   UNL     1      -1.394   5.499  -0.874  0.00  0.00    -0.026 A 
ATOM     23  C   UNL     1      -1.885   5.735  -2.145  0.00  0.00    +0.005 A 
ATOM     24  C   UNL     1      -3.171   6.214  -2.313  0.00  0.00    +0.003 A 
ATOM     25  C   UNL     1      -3.964   6.468  -1.210  0.00  0.00    +0.041 A 
ATOM     26  C   UNL     1      -3.474   6.239   0.064  0.00  0.00    +0.159 A 
ATOM     27  C   UNL     1      -2.186   5.753   0.232  0.00  0.00    +0.160 A 
ATOM     28  F   UNL     1      -1.704   5.528   1.474  0.00  0.00    -0.202 F 
ATOM     29  F   UNL     1      -4.249   6.487   1.142  0.00  0.00    -0.202 F 
ENDBRANCH  21  22
ENDBRANCH   8  21
TORSDOF 7
