REMARK  Name = ZINC59854657
REMARK  7 active torsions:
REMARK  status: ('A' for Active; 'I' for Inactive)
REMARK    1  A    between atoms: C_1  and  N_2
REMARK    2  A    between atoms: C_6  and  C_9
REMARK    3  A    between atoms: N_17  and  C_18
REMARK    4  A    between atoms: C_18  and  C_19
REMARK    5  A    between atoms: C_22  and  C_25
REMARK    6  A    between atoms: N_27  and  C_28
REMARK    7  A    between atoms: C_28  and  C_29
REMARK                            x       y       z     vdW  Elec       q    Type
REMARK                         _______ _______ _______ _____ _____    ______ ____
ROOT
ATOM      1  C   UNL     1       0.671   1.204  -0.644  0.00  0.00    +0.105 C 
ATOM      2  N   UNL     1       0.336  -0.194  -0.343  0.00  0.00    -0.302 NA
ATOM      3  C   UNL     1       0.593  -1.058  -1.503  0.00  0.00    +0.103 C 
ATOM      4  C   UNL     1       0.065  -2.467  -1.214  0.00  0.00    +0.125 C 
ATOM      5  N   UNL     1       0.650  -2.935   0.051  0.00  0.00    -0.276 N 
ATOM      6  C   UNL     1       0.553  -2.059   1.229  0.00  0.00    +0.122 C 
ATOM      7  C   UNL     1       1.062  -0.666   0.844  0.00  0.00    +0.111 C 
ATOM      8  C   UNL     1       1.260  -4.134   0.130  0.00  0.00    +0.303 C 
ATOM      9  O   UNL     1       1.816  -4.467   1.158  0.00  0.00    -0.253 OA
ATOM     10  N   UNL     1       1.252  -4.965  -0.932  0.00  0.00    -0.295 N 
ATOM     11  H   UNL     1       0.871  -4.671  -1.774  0.00  0.00    +0.151 HD
ENDROOT
BRANCH   6  12
ATOM     12  C   UNL     1       1.394  -2.619   2.347  0.00  0.00    -0.026 A 
ATOM     13  C   UNL     1       2.769  -2.674   2.216  0.00  0.00    +0.005 A 
ATOM     14  C   UNL     1       3.541  -3.187   3.241  0.00  0.00    +0.000 A 
ATOM     15  C   UNL     1       2.938  -3.645   4.398  0.00  0.00    +0.000 A 
ATOM     16  C   UNL     1       1.563  -3.589   4.529  0.00  0.00    +0.000 A 
ATOM     17  C   UNL     1       0.791  -3.071   3.506  0.00  0.00    +0.005 A 
ENDBRANCH   6  12
BRANCH  10  18
ATOM     18  C   UNL     1       1.819  -6.311  -0.813  0.00  0.00    +0.141 C 
BRANCH  18  19
ATOM     19  C   UNL     1       1.686  -7.029  -2.131  0.00  0.00    -0.030 A 
ATOM     20  C   UNL     1       0.552  -7.775  -2.398  0.00  0.00    +0.006 A 
ATOM     21  C   UNL     1       0.424  -8.435  -3.603  0.00  0.00    +0.013 A 
ATOM     22  C   UNL     1       1.443  -8.350  -4.553  0.00  0.00    +0.037 A 
ATOM     23  C   UNL     1       2.585  -7.596  -4.277  0.00  0.00    +0.013 A 
ATOM     24  C   UNL     1       2.697  -6.936  -3.071  0.00  0.00    +0.006 A 
BRANCH  22  25
ATOM     25  C   UNL     1       1.313  -9.056  -5.845  0.00  0.00    +0.244 C 
ATOM     26  O   UNL     1       0.318  -9.712  -6.083  0.00  0.00    -0.270 OA
ATOM     27  N   UNL     1       2.299  -8.972  -6.761  0.00  0.00    -0.303 N 
ATOM     28  H   UNL     1       3.094  -8.448  -6.571  0.00  0.00    +0.150 HD
BRANCH  27  29
ATOM     29  C   UNL     1       2.171  -9.671  -8.042  0.00  0.00    +0.200 C 
BRANCH  29  30
ATOM     30  C   UNL     1       3.398  -9.417  -8.878  0.00  0.00    +0.228 C 
ATOM     31  O   UNL     1       4.293  -8.720  -8.447  0.00  0.00    -0.274 OA
ATOM     32  N   UNL     1       3.503  -9.964 -10.105  0.00  0.00    -0.328 N 
ATOM     33  H   UNL     1       2.787 -10.521 -10.451  0.00  0.00    +0.145 HD
ATOM     34  H   UNL     1       4.293  -9.800 -10.644  0.00  0.00    +0.145 HD
ENDBRANCH  29  30
ENDBRANCH  27  29
ENDBRANCH  22  25
ENDBRANCH  18  19
ENDBRANCH  10  18
TORSDOF 6
