REMARK  Name = ZINC34677434
REMARK  16 active torsions:
REMARK  status: ('A' for Active; 'I' for Inactive)
REMARK    1  A    between atoms: C_1  and  C_2
REMARK    2  A    between atoms: C_2  and  C_3
REMARK    3  A    between atoms: C_2  and  C_4
REMARK    4  A    between atoms: C_4  and  C_5
REMARK    5  A    between atoms: C_5  and  N_6
REMARK    6  A    between atoms: C_7  and  C_9
REMARK    7  A    between atoms: C_12  and  C_14
REMARK    8  A    between atoms: C_14  and  N_15
REMARK    9  A    between atoms: N_18  and  C_21
REMARK   10  A    between atoms: C_21  and  C_22
REMARK   11  A    between atoms: C_22  and  C_24
REMARK   12  A    between atoms: C_22  and  O_29
REMARK   13  A    between atoms: C_24  and  O_25
REMARK   14  A    between atoms: O_25  and  C_26
REMARK   15  A    between atoms: C_26  and  C_27
REMARK   16  A    between atoms: C_26  and  C_28
REMARK                            x       y       z     vdW  Elec       q    Type
REMARK                         _______ _______ _______ _____ _____    ______ ____
ROOT
ATOM      1  N   UNL     1      -9.197  -1.289  -0.159  0.00  0.00    +0.387 N 
ATOM      2  C   UNL     1      -8.332  -0.630   0.828  0.00  0.00    -0.063 C 
ATOM      3  C   UNL     1      -9.192   0.183   1.799  0.00  0.00    +0.066 C 
ATOM      4  N   UNL     1     -10.142  -0.712   2.474  0.00  0.00    -0.303 NA
ATOM      5  C   UNL     1     -10.998  -1.398   1.497  0.00  0.00    +0.066 C 
ATOM      6  C   UNL     1     -10.124  -2.197   0.529  0.00  0.00    -0.063 C 
ATOM      7  H   UNL     1      -9.723  -0.591  -0.663  0.00  0.00    -0.081 HD
ENDROOT
BRANCH   1   8
ATOM      8  C   UNL     1      -8.370  -2.054  -1.101  0.00  0.00    +0.019 C 
BRANCH   8  12
ATOM      9  C   UNL     1      -5.851   0.132  -2.515  0.00  0.00    +0.163 A 
ATOM     10  C   UNL     1      -6.825   0.238  -3.459  0.00  0.00    +0.230 A 
ATOM     11  O   UNL     1      -7.845  -0.537  -3.059  0.00  0.00    -0.449 OA
ATOM     12  C   UNL     1      -7.505  -1.108  -1.894  0.00  0.00    +0.179 A 
ATOM     13  N   UNL     1      -6.311  -0.720  -1.559  0.00  0.00    -0.210 NA
BRANCH   9  15
ATOM     14  N   UNL     1      -3.667   0.603  -1.524  0.00  0.00    -0.310 N 
ATOM     15  C   UNL     1      -4.541   0.808  -2.529  0.00  0.00    +0.266 C 
ATOM     16  O   UNL     1      -4.249   1.550  -3.447  0.00  0.00    -0.268 OA
ATOM     17  H   UNL     1      -3.900   0.012  -0.791  0.00  0.00    +0.149 HD
BRANCH  14  18
ATOM     18  C   UNL     1      -2.365   1.275  -1.537  0.00  0.00    +0.105 C 
BRANCH  18  19
ATOM     19  C   UNL     1      -1.571   0.874  -0.292  0.00  0.00    +0.022 C 
BRANCH  19  21
ATOM     20  C   UNL     1      -0.416   3.087  -0.187  0.00  0.00    +0.007 C 
ATOM     21  C   UNL     1      -0.212   1.575  -0.306  0.00  0.00    -0.016 C 
ATOM     22  C   UNL     1       0.630   1.080   0.872  0.00  0.00    +0.007 C 
ENDBRANCH  19  21
ENDBRANCH  18  19
ENDBRANCH  14  18
ENDBRANCH   9  15
ENDBRANCH   8  12
ENDBRANCH   1   8
BRANCH   4  23
ATOM     23  C   UNL     1     -10.949   0.023   3.458  0.00  0.00    +0.117 C 
BRANCH  23  24
ATOM     24  C   UNL     1     -10.104   0.307   4.701  0.00  0.00    +0.154 C 
BRANCH  24  25
ATOM     25  O   UNL     1      -9.723  -0.927   5.311  0.00  0.00    -0.388 OA
ATOM     26  H   UNL     1     -10.470  -1.473   5.593  0.00  0.00    +0.210 HD
ENDBRANCH  24  25
BRANCH  24  27
ATOM     27  C   UNL     1     -10.920   1.137   5.694  0.00  0.00    +0.192 C 
BRANCH  27  28
ATOM     28  O   UNL     1     -10.095   1.502   6.801  0.00  0.00    -0.375 OA
BRANCH  28  29
ATOM     29  C   UNL     1     -10.764   2.283   7.793  0.00  0.00    +0.112 C 
ATOM     30  C   UNL     1     -11.393   1.356   8.834  0.00  0.00    +0.037 C 
ATOM     31  C   UNL     1      -9.758   3.210   8.477  0.00  0.00    +0.037 C 
ENDBRANCH  28  29
ENDBRANCH  27  28
ENDBRANCH  24  27
ENDBRANCH  23  24
ENDBRANCH   4  23
TORSDOF 12
