REMARK  Name = ZINC16901996
REMARK  7 active torsions:
REMARK  status: ('A' for Active; 'I' for Inactive)
REMARK    1  A    between atoms: C_3  and  C_27
REMARK    2  A    between atoms: C_4  and  O_26
REMARK    3  A    between atoms: C_6  and  N_7
REMARK    4  A    between atoms: C_11  and  N_15
REMARK    5  A    between atoms: N_15  and  C_16
REMARK    6  A    between atoms: C_19  and  N_23
REMARK    7  A    between atoms: C_21  and  O_22
REMARK                            x       y       z     vdW  Elec       q    Type
REMARK                         _______ _______ _______ _____ _____    ______ ____
ROOT
ATOM      1  N   UNL     1      -1.200  -0.716   0.010  0.00  0.00    -0.209 N 
ATOM      2  C   UNL     1      -1.253  -2.050  -0.089  0.00  0.00    +0.228 C 
ATOM      3  O   UNL     1      -0.294  -2.785  -0.194  0.00  0.00    -0.275 OA
ATOM      4  C   UNL     1      -2.698  -2.496  -0.048  0.00  0.00    +0.128 C 
ATOM      5  C   UNL     1      -3.480  -1.174   0.093  0.00  0.00    +0.167 C 
ATOM      6  C   UNL     1      -2.394  -0.121   0.123  0.00  0.00    +0.247 C 
ATOM      7  O   UNL     1      -2.576   1.073   0.230  0.00  0.00    -0.273 OA
ENDROOT
BRANCH   1  13
ATOM      8  C   UNL     1       0.423   0.659   1.152  0.00  0.00    +0.025 A 
ATOM      9  C   UNL     1       1.596   1.357   1.156  0.00  0.00    +0.020 A 
ATOM     10  C   UNL     1       2.385   1.411   0.001  0.00  0.00    +0.105 A 
ATOM     11  C   UNL     1       1.964   0.744  -1.161  0.00  0.00    +0.133 A 
ATOM     12  C   UNL     1       0.772   0.039  -1.152  0.00  0.00    +0.070 A 
ATOM     13  C   UNL     1       0.002  -0.004   0.002  0.00  0.00    +0.047 A 
BRANCH  10  14
ATOM     14  C   UNL     1       3.647   2.163   0.004  0.00  0.00    +0.390 C 
ATOM     15  O   UNL     1       4.011   2.744   1.018  0.00  0.00    -0.240 OA
ATOM     16  O   UNL     1       4.334   2.209  -1.007  0.00  0.00    -0.240 OA
ENDBRANCH  10  14
BRANCH  11  17
ATOM     17  O   UNL     1       2.720   0.790  -2.286  0.00  0.00    -0.506 OA
ATOM     18  H   UNL     1       3.371   0.078  -2.352  0.00  0.00    +0.292 HD
ENDBRANCH  11  17
ENDBRANCH   1  13
BRANCH   5  19
ATOM     19  N   UNL     1      -4.245  -1.159   1.343  0.00  0.00    -0.330 N 
ATOM     20  H   UNL     1      -3.959  -1.702   2.093  0.00  0.00    +0.147 HD
BRANCH  19  21
ATOM     21  C   UNL     1      -5.390  -0.360   1.453  0.00  0.00    +0.070 A 
ATOM     22  C   UNL     1      -5.804   0.413   0.378  0.00  0.00    +0.029 A 
ATOM     23  C   UNL     1      -6.934   1.201   0.489  0.00  0.00    +0.035 A 
ATOM     24  C   UNL     1      -7.654   1.220   1.669  0.00  0.00    +0.130 A 
ATOM     25  C   UNL     1      -7.247   0.453   2.745  0.00  0.00    +0.080 A 
ATOM     26  C   UNL     1      -6.119  -0.344   2.640  0.00  0.00    +0.140 A 
BRANCH  24  27
ATOM     27  N   UNL     1      -8.864   2.066   1.782  0.00  0.00    +0.057 N 
ATOM     28  O   UNL     1      -9.221   2.738   0.843  0.00  0.00    -0.126 OA
ATOM     29  O   UNL     1      -9.494   2.084   2.814  0.00  0.00    -0.126 OA
ENDBRANCH  24  27
BRANCH  26  30
ATOM     30  O   UNL     1      -5.721  -1.105   3.694  0.00  0.00    -0.505 OA
ATOM     31  H   UNL     1      -5.110  -0.656   4.295  0.00  0.00    +0.292 HD
ENDBRANCH  26  30
ENDBRANCH  19  21
ENDBRANCH   5  19
TORSDOF 7
