REMARK  Name = ZINC04485599
REMARK  8 active torsions:
REMARK  status: ('A' for Active; 'I' for Inactive)
REMARK    1  A    between atoms: C_1  and  C_2
REMARK    2  A    between atoms: C_3  and  C_28
REMARK    3  A    between atoms: C_11  and  C_13
REMARK    4  A    between atoms: C_13  and  C_15
REMARK    5  A    between atoms: C_13  and  S_16
REMARK    6  A    between atoms: S_16  and  C_17
REMARK    7  A    between atoms: C_20  and  C_23
REMARK    8  A    between atoms: N_21  and  C_22
REMARK                            x       y       z     vdW  Elec       q    Type
REMARK                         _______ _______ _______ _____ _____    ______ ____
ROOT
ATOM      1  C   UNL     1      -0.013   1.086   0.008  0.00  0.00    +0.117 C 
ATOM      2  C   UNL     1      -0.753   1.593  -1.232  0.00  0.00    +0.027 C 
ENDROOT
BRANCH   1  13
ATOM      3  C   UNL     1       6.509   2.572  -0.451  0.00  0.00    +0.045 C 
ATOM      4  C   UNL     1       5.258   3.239   0.061  0.00  0.00    -0.026 A 
ATOM      5  C   UNL     1       5.315   4.468   0.598  0.00  0.00    -0.008 A 
ATOM      6  S   UNL     1       3.620   4.805   1.038  0.00  0.00    -0.073 S 
ATOM      7  C   UNL     1       2.886   3.286   0.489  0.00  0.00    +0.116 A 
ATOM      8  C   UNL     1       3.978   2.560  -0.021  0.00  0.00    +0.075 A 
ATOM      9  C   UNL     1       3.669   1.263  -0.546  0.00  0.00    +0.260 A 
ATOM     10  O   UNL     1       4.548   0.557  -1.010  0.00  0.00    -0.267 OA
ATOM     11  N   UNL     1       2.394   0.833  -0.511  0.00  0.00    -0.309 N 
ATOM     12  H   UNL     1       2.173  -0.075  -0.867  0.00  0.00    +0.170 HD
ATOM     13  C   UNL     1       1.401   1.607  -0.003  0.00  0.00    +0.124 A 
ATOM     14  N   UNL     1       1.651   2.794   0.482  0.00  0.00    -0.225 NA
ATOM     15  C   UNL     1       6.521   5.351   0.784  0.00  0.00    +0.052 C 
ENDBRANCH   1  13
BRANCH   1  16
ATOM     16  S   UNL     1      -0.860   1.669   1.497  0.00  0.00    -0.075 S 
BRANCH  16  17
ATOM     17  C   UNL     1      -2.391   0.813   1.334  0.00  0.00    +0.192 A 
ATOM     18  N   UNL     1      -2.729   0.002   0.357  0.00  0.00    -0.122 NA
ATOM     19  N   UNL     1      -3.916  -0.454   0.551  0.00  0.00    -0.125 NA
ATOM     20  C   UNL     1      -4.412   0.047   1.661  0.00  0.00    +0.200 A 
ATOM     21  N   UNL     1      -3.450   0.874   2.196  0.00  0.00    -0.303 N 
ATOM     22  C   UNL     1      -3.542   1.656   3.432  0.00  0.00    +0.153 C 
BRANCH  20  23
ATOM     23  C   UNL     1      -5.744  -0.225   2.224  0.00  0.00    +0.172 A 
ATOM     24  C   UNL     1      -6.790  -0.799   1.565  0.00  0.00    +0.053 A 
ATOM     25  C   UNL     1      -7.857  -0.869   2.481  0.00  0.00    +0.042 A 
ATOM     26  C   UNL     1      -7.421  -0.334   3.638  0.00  0.00    +0.196 A 
ATOM     27  O   UNL     1      -6.144   0.054   3.480  0.00  0.00    -0.460 OA
ENDBRANCH  20  23
ENDBRANCH  16  17
ENDBRANCH   1  16
TORSDOF 4
