REMARK  Name = ZINC31947006
REMARK  9 active torsions:
REMARK  status: ('A' for Active; 'I' for Inactive)
REMARK    1  A    between atoms: C_1  and  C_2
REMARK    2  A    between atoms: C_2  and  C_3
REMARK    3  A    between atoms: C_3  and  C_5
REMARK    4  A    between atoms: C_3  and  N_11
REMARK    5  A    between atoms: N_7  and  C_8
REMARK    6  A    between atoms: C_8  and  C_9
REMARK    7  A    between atoms: C_9  and  N_10
REMARK    8  A    between atoms: C_14  and  C_24
REMARK    9  A    between atoms: C_19  and  C_23
REMARK                            x       y       z     vdW  Elec       q    Type
REMARK                         _______ _______ _______ _____ _____    ______ ____
ROOT
ATOM      1  C   UNL     1       0.162   0.960  -4.895  0.00  0.00    +0.167 C 
ENDROOT
BRANCH   1   2
ATOM      2  N   UNL     1      -0.547   1.445  -6.082  0.00  0.00    -0.253 N 
ATOM      3  C   UNL     1      -1.080   0.541  -7.011  0.00  0.00    +0.079 A 
ATOM      4  C   UNL     1      -1.236  -0.796  -6.689  0.00  0.00    +0.030 A 
ATOM      5  C   UNL     1      -1.764  -1.671  -7.621  0.00  0.00    -0.048 A 
ATOM      6  C   UNL     1      -2.135  -1.214  -8.872  0.00  0.00    +0.007 A 
ATOM      7  C   UNL     1      -1.982   0.121  -9.200  0.00  0.00    +0.048 A 
ATOM      8  C   UNL     1      -1.455   1.002  -8.272  0.00  0.00    +0.143 A 
ATOM      9  O   UNL     1      -1.300   2.318  -8.577  0.00  0.00    -0.478 OA
ATOM     10  C   UNL     1      -1.461   3.250  -7.504  0.00  0.00    +0.256 C 
ATOM     11  C   UNL     1      -0.701   2.771  -6.294  0.00  0.00    +0.261 C 
ATOM     12  O   UNL     1      -0.226   3.571  -5.516  0.00  0.00    -0.271 OA
ATOM     13  C   UNL     1      -2.945   3.369  -7.152  0.00  0.00    +0.062 C 
ATOM     14  C   UNL     1      -1.934  -3.127  -7.272  0.00  0.00    +0.044 C 
ENDBRANCH   1   2
BRANCH   1  15
ATOM     15  C   UNL     1      -0.543   1.446  -3.655  0.00  0.00    +0.234 C 
ATOM     16  O   UNL     1      -1.540   2.130  -3.753  0.00  0.00    -0.274 OA
ATOM     17  N   UNL     1      -0.067   1.120  -2.437  0.00  0.00    -0.316 N 
ATOM     18  H   UNL     1       0.837   0.499  -2.348  0.00  0.00    +0.149 HD
BRANCH  17  19
ATOM     19  C   UNL     1      -0.753   1.593  -1.232  0.00  0.00    +0.085 C 
BRANCH  19  20
ATOM     20  C   UNL     1      -0.013   1.086   0.008  0.00  0.00    -0.067 C 
BRANCH  20  21
ATOM     21  N   UNL     1      -0.700   1.560   1.217  0.00  0.00    +0.379 N 
ATOM     22  H   UNL     1      -0.168   1.195   2.108  0.00  0.00    -0.090 HD
ATOM     23  H   UNL     1      -1.732   1.179   1.224  0.00  0.00    -0.090 HD
ATOM     24  H   UNL     1      -0.715   2.659   1.223  0.00  0.00    -0.090 HD
ENDBRANCH  20  21
ENDBRANCH  19  20
ENDBRANCH  17  19
ENDBRANCH   1  15
BRANCH   1  26
ATOM     25  C   UNL     1       2.351   0.896  -6.098  0.00  0.00    +0.006 C 
ATOM     26  C   UNL     1       1.597   1.490  -4.905  0.00  0.00    +0.029 C 
ENDBRANCH   1  26
TORSDOF 6
