REMARK  Name = ZINC01759223
REMARK  12 active torsions:
REMARK  status: ('A' for Active; 'I' for Inactive)
REMARK    1  A    between atoms: C_1  and  C_2
REMARK    2  A    between atoms: C_2  and  O_3
REMARK    3  A    between atoms: O_3  and  C_4
REMARK    4  A    between atoms: C_4  and  C_6
REMARK    5  A    between atoms: C_7  and  C_42
REMARK    6  A    between atoms: C_14  and  C_15
REMARK    7  A    between atoms: C_18  and  C_20
REMARK    8  A    between atoms: C_25  and  N_26
REMARK    9  A    between atoms: C_30  and  C_32
REMARK   10  A    between atoms: C_35  and  O_38
REMARK   11  A    between atoms: O_38  and  C_39
REMARK   12  A    between atoms: C_39  and  C_41
REMARK                            x       y       z     vdW  Elec       q    Type
REMARK                         _______ _______ _______ _____ _____    ______ ____
ROOT
ATOM      1  C   UNL     1       1.695  -2.358   2.271  0.00  0.00    +0.085 C 
ATOM      2  C   UNL     1       1.520  -3.681   2.558  0.00  0.00    +0.053 C 
ATOM      3  N   UNL     1       1.915  -4.183   3.723  0.00  0.00    -0.228 NA
ATOM      4  C   UNL     1       2.487  -3.496   4.674  0.00  0.00    +0.178 A 
ATOM      5  N   UNL     1       2.755  -2.149   4.587  0.00  0.00    -0.275 N 
ATOM      6  C   UNL     1       3.345  -1.586   5.647  0.00  0.00    +0.268 A 
ATOM      7  O   UNL     1       3.621  -0.403   5.665  0.00  0.00    -0.266 OA
ATOM      8  C   UNL     1       3.649  -2.467   6.801  0.00  0.00    +0.084 A 
ATOM      9  C   UNL     1       4.257  -2.134   8.023  0.00  0.00    +0.066 C 
ATOM     10  S   UNL     1       3.084  -3.963   6.284  0.00  0.00    -0.046 S 
ATOM     11  C   UNL     1       2.356  -1.488   3.317  0.00  0.00    +0.162 C 
ATOM     12  C   UNL     1       0.871  -4.584   1.541  0.00  0.00    +0.066 C 
ENDROOT
BRANCH  11  13
ATOM     13  C   UNL     1       1.406  -0.369   3.659  0.00  0.00    -0.020 A 
ATOM     14  C   UNL     1       0.362  -0.594   4.537  0.00  0.00    +0.009 A 
ATOM     15  C   UNL     1      -0.511   0.430   4.851  0.00  0.00    +0.047 A 
ATOM     16  C   UNL     1      -0.338   1.685   4.286  0.00  0.00    +0.132 A 
ATOM     17  C   UNL     1       0.711   1.909   3.406  0.00  0.00    +0.047 A 
ATOM     18  C   UNL     1       1.584   0.883   3.099  0.00  0.00    +0.009 A 
BRANCH  16  19
ATOM     19  O   UNL     1      -1.195   2.694   4.594  0.00  0.00    -0.426 OA
BRANCH  19  20
ATOM     20  C   UNL     1      -1.046   3.309   5.778  0.00  0.00    +0.309 C 
ATOM     21  O   UNL     1      -0.228   2.905   6.570  0.00  0.00    -0.251 OA
ATOM     22  C   UNL     1      -1.898   4.504   6.119  0.00  0.00    +0.136 C 
ENDBRANCH  19  20
ENDBRANCH  16  19
ENDBRANCH  11  13
BRANCH   9  23
ATOM     23  C   UNL     1       4.456  -3.111   8.987  0.00  0.00    +0.130 A 
ATOM     24  C   UNL     1       5.067  -2.919  10.304  0.00  0.00    +0.050 A 
ATOM     25  C   UNL     1       5.058  -4.139  10.911  0.00  0.00    +0.050 A 
ATOM     26  C   UNL     1       4.468  -5.053  10.017  0.00  0.00    +0.138 A 
ATOM     27  O   UNL     1       4.117  -4.415   8.888  0.00  0.00    -0.455 OA
BRANCH  26  28
ATOM     28  C   UNL     1       4.265  -6.479  10.279  0.00  0.00    +0.047 A 
ATOM     29  C   UNL     1       5.326  -7.269  10.756  0.00  0.00    +0.014 A 
ATOM     30  C   UNL     1       5.124  -8.608  11.000  0.00  0.00    +0.001 A 
ATOM     31  C   UNL     1       3.880  -9.179  10.777  0.00  0.00    +0.002 A 
ATOM     32  C   UNL     1       2.828  -8.409  10.307  0.00  0.00    +0.033 A 
ATOM     33  C   UNL     1       3.007  -7.066  10.062  0.00  0.00    +0.137 A 
BRANCH  33  34
ATOM     34  N   UNL     1       1.880  -6.245   9.566  0.00  0.00    +0.057 N 
ATOM     35  O   UNL     1       0.702  -6.797   9.363  0.00  0.00    -0.126 OA
ATOM     36  O   UNL     1       2.055  -4.962   9.327  0.00  0.00    -0.126 OA
ENDBRANCH  33  34
ENDBRANCH  26  28
ENDBRANCH   9  23
BRANCH   1  37
ATOM     37  C   UNL     1       1.275  -1.819   1.031  0.00  0.00    +0.339 C 
ATOM     38  O   UNL     1       0.871  -2.557   0.152  0.00  0.00    -0.245 OA
BRANCH  37  39
ATOM     39  O   UNL     1       1.324  -0.486   0.824  0.00  0.00    -0.462 OA
BRANCH  39  41
ATOM     40  C   UNL     1       1.012   1.513  -0.497  0.00  0.00    +0.048 C 
ATOM     41  C   UNL     1       0.885  -0.011  -0.450  0.00  0.00    +0.229 C 
ENDBRANCH  39  41
ENDBRANCH  37  39
ENDBRANCH   1  37
TORSDOF 9
