REMARK  Name = ZINC35642731
REMARK  9 active torsions:
REMARK  status: ('A' for Active; 'I' for Inactive)
REMARK    1  A    between atoms: C_1  and  C_2
REMARK    2  A    between atoms: C_2  and  O_3
REMARK    3  A    between atoms: O_3  and  C_4
REMARK    4  A    between atoms: C_4  and  C_6
REMARK    5  A    between atoms: C_7  and  C_21
REMARK    6  A    between atoms: N_8  and  C_20
REMARK    7  A    between atoms: C_12  and  C_14
REMARK    8  A    between atoms: C_21  and  N_22
REMARK    9  A    between atoms: C_29  and  C_31
REMARK                            x       y       z     vdW  Elec       q    Type
REMARK                         _______ _______ _______ _____ _____    ______ ____
ROOT
ATOM      1  C   UNL     1       0.516  -2.995  -2.760  0.00  0.00    +0.076 C 
ATOM      2  C   UNL     1       1.578  -3.817  -2.612  0.00  0.00    +0.010 C 
ATOM      3  N   UNL     1       2.671  -3.708  -3.423  0.00  0.00    -0.264 N 
ATOM      4  C   UNL     1       2.781  -2.803  -4.404  0.00  0.00    +0.307 C 
ATOM      5  O   UNL     1       3.794  -2.783  -5.075  0.00  0.00    -0.252 OA
ATOM      6  N   UNL     1       1.803  -1.915  -4.674  0.00  0.00    -0.288 N 
ATOM      7  C   UNL     1       0.577  -1.954  -3.858  0.00  0.00    +0.143 C 
ATOM      8  C   UNL     1       3.788  -4.631  -3.207  0.00  0.00    +0.139 C 
ATOM      9  H   UNL     1       1.903  -1.268  -5.389  0.00  0.00    +0.151 HD
ENDROOT
BRANCH   7  10
ATOM     10  C   UNL     1      -0.592  -2.182  -4.781  0.00  0.00    -0.023 A 
ATOM     11  C   UNL     1      -0.535  -3.179  -5.736  0.00  0.00    +0.006 A 
ATOM     12  C   UNL     1      -1.608  -3.389  -6.582  0.00  0.00    +0.000 A 
ATOM     13  C   UNL     1      -2.739  -2.602  -6.472  0.00  0.00    +0.000 A 
ATOM     14  C   UNL     1      -2.797  -1.605  -5.516  0.00  0.00    +0.000 A 
ATOM     15  C   UNL     1      -1.725  -1.398  -4.667  0.00  0.00    +0.006 A 
ENDBRANCH   7  10
BRANCH   1  16
ATOM     16  C   UNL     1      -0.617  -3.107  -1.921  0.00  0.00    +0.339 C 
ATOM     17  O   UNL     1      -0.697  -4.025  -1.126  0.00  0.00    -0.245 OA
BRANCH  16  18
ATOM     18  O   UNL     1      -1.609  -2.196  -2.002  0.00  0.00    -0.462 OA
BRANCH  18  20
ATOM     19  C   UNL     1      -3.739  -1.251  -1.360  0.00  0.00    +0.048 C 
ATOM     20  C   UNL     1      -2.724  -2.371  -1.124  0.00  0.00    +0.229 C 
ENDBRANCH  18  20
ENDBRANCH  16  18
ENDBRANCH   1  16
BRANCH   2  21
ATOM     21  C   UNL     1       1.556  -4.870  -1.535  0.00  0.00    -0.026 C 
BRANCH  21  22
ATOM     22  N   UNL     1       0.864  -6.066  -2.033  0.00  0.00    +0.384 N 
ATOM     23  C   UNL     1       0.606  -6.954  -0.902  0.00  0.00    -0.077 C 
ATOM     24  C   UNL     1      -0.644  -7.761  -1.177  0.00  0.00    +0.000 C 
ATOM     25  C   UNL     1      -0.254  -9.106  -1.817  0.00  0.00    +0.106 C 
ATOM     26  N   UNL     1       0.842  -8.932  -2.792  0.00  0.00    -0.299 N 
ATOM     27  C   UNL     1       0.889  -7.817  -3.715  0.00  0.00    +0.089 C 
ATOM     28  C   UNL     1       1.641  -6.631  -3.068  0.00  0.00    -0.059 C 
ATOM     29  C   UNL     1       1.835  -9.843  -2.822  0.00  0.00    +0.247 C 
ATOM     30  O   UNL     1       2.805  -9.662  -3.532  0.00  0.00    -0.270 OA
ATOM     31  H   UNL     1      -0.023  -5.781  -2.420  0.00  0.00    -0.081 HD
BRANCH  29  32
ATOM     32  C   UNL     1       1.743 -11.064  -1.993  0.00  0.00    +0.037 A 
ATOM     33  C   UNL     1       0.513 -11.699  -1.813  0.00  0.00    +0.013 A 
ATOM     34  C   UNL     1       0.435 -12.838  -1.039  0.00  0.00    +0.001 A 
ATOM     35  C   UNL     1       1.572 -13.351  -0.441  0.00  0.00    +0.000 A 
ATOM     36  C   UNL     1       2.795 -12.726  -0.614  0.00  0.00    +0.001 A 
ATOM     37  C   UNL     1       2.888 -11.590  -1.391  0.00  0.00    +0.013 A 
ENDBRANCH  29  32
ENDBRANCH  21  22
ENDBRANCH   2  21
TORSDOF 7
