REMARK  Name = ZINC66128305
REMARK  7 active torsions:
REMARK  status: ('A' for Active; 'I' for Inactive)
REMARK    1  A    between atoms: C_1  and  C_2
REMARK    2  A    between atoms: C_2  and  C_3
REMARK    3  A    between atoms: C_2  and  O_4
REMARK    4  A    between atoms: O_4  and  C_5
REMARK    5  A    between atoms: C_9  and  C_11
REMARK    6  A    between atoms: C_11  and  C_23
REMARK    7  A    between atoms: N_21  and  C_22
REMARK                            x       y       z     vdW  Elec       q    Type
REMARK                         _______ _______ _______ _____ _____    ______ ____
ROOT
ATOM      1  C   UNL     1      -4.530  -3.793  -1.656  0.00  0.00    +0.125 C 
ATOM      2  N   UNL     1      -5.469  -2.666  -1.609  0.00  0.00    -0.319 N 
ATOM      3  C   UNL     1      -5.593  -1.858  -2.734  0.00  0.00    +0.041 A 
ATOM      4  C   UNL     1      -5.928  -0.518  -2.640  0.00  0.00    +0.024 A 
ATOM      5  C   UNL     1      -6.035   0.241  -3.790  0.00  0.00    +0.002 A 
ATOM      6  C   UNL     1      -5.810  -0.327  -5.034  0.00  0.00    +0.001 A 
ATOM      7  C   UNL     1      -5.477  -1.662  -5.144  0.00  0.00    +0.015 A 
ATOM      8  C   UNL     1      -5.367  -2.439  -3.994  0.00  0.00    +0.058 A 
ATOM      9  C   UNL     1      -5.022  -3.871  -4.056  0.00  0.00    +0.250 C 
ATOM     10  O   UNL     1      -5.062  -4.468  -5.114  0.00  0.00    -0.270 OA
ATOM     11  N   UNL     1      -4.662  -4.511  -2.924  0.00  0.00    -0.276 N 
ATOM     12  C   UNL     1      -4.398  -5.952  -2.966  0.00  0.00    +0.135 C 
ATOM     13  C   UNL     1      -4.832  -4.748  -0.499  0.00  0.00    +0.059 C 
ATOM     14  H   UNL     1      -5.991  -2.489  -0.811  0.00  0.00    +0.148 HD
ENDROOT
BRANCH   1  19
ATOM     15  C   UNL     1      -1.581  -1.639  -0.686  0.00  0.00    +0.121 A 
ATOM     16  C   UNL     1      -0.531  -2.329  -1.276  0.00  0.00    +0.045 A 
ATOM     17  C   UNL     1      -0.780  -3.488  -1.985  0.00  0.00    +0.004 A 
ATOM     18  C   UNL     1      -2.074  -3.961  -2.107  0.00  0.00    +0.007 A 
ATOM     19  C   UNL     1      -3.121  -3.275  -1.521  0.00  0.00    -0.003 A 
ATOM     20  C   UNL     1      -2.877  -2.119  -0.806  0.00  0.00    +0.053 A 
BRANCH  15  21
ATOM     21  O   UNL     1      -1.339  -0.499   0.012  0.00  0.00    -0.489 OA
BRANCH  21  23
ATOM     22  C   UNL     1      -0.014   1.508   0.255  0.00  0.00    +0.051 C 
ATOM     23  C   UNL     1       0.000   0.001  -0.005  0.00  0.00    +0.167 C 
ATOM     24  C   UNL     1       0.819  -0.697   1.084  0.00  0.00    +0.051 C 
ENDBRANCH  21  23
ENDBRANCH  15  21
ENDBRANCH   1  19
TORSDOF 3
