REMARK  Name = ZINC50208669
REMARK  4 active torsions:
REMARK  status: ('A' for Active; 'I' for Inactive)
REMARK    1  A    between atoms: C_1  and  C_2
REMARK    2  A    between atoms: C_5  and  C_13
REMARK    3  A    between atoms: N_6  and  C_7
REMARK    4  A    between atoms: C_18  and  N_19
REMARK                            x       y       z     vdW  Elec       q    Type
REMARK                         _______ _______ _______ _____ _____    ______ ____
ROOT
ATOM      1  C   UNL     1       0.053   1.500   0.109  0.00  0.00    +0.088 C 
ATOM      2  C   UNL     1       0.033  -0.005   0.044  0.00  0.00    +0.135 A 
ATOM      3  N   UNL     1      -0.114  -0.731  -1.031  0.00  0.00    -0.134 NA
ATOM      4  N   UNL     1      -0.084  -1.980  -0.730  0.00  0.00    -0.129 NA
ATOM      5  C   UNL     1       0.086  -2.122   0.567  0.00  0.00    +0.171 A 
ATOM      6  N   UNL     1       0.171  -0.860   1.098  0.00  0.00    -0.279 N 
ENDROOT
BRANCH   5   7
ATOM      7  C   UNL     1       0.174  -3.396   1.308  0.00  0.00    +0.041 A 
ATOM      8  C   UNL     1      -0.576  -3.586   2.469  0.00  0.00    +0.028 A 
ATOM      9  C   UNL     1      -0.490  -4.779   3.158  0.00  0.00    +0.019 A 
ATOM     10  C   UNL     1       0.338  -5.790   2.701  0.00  0.00    +0.017 A 
ATOM     11  C   UNL     1       1.086  -5.616   1.553  0.00  0.00    +0.024 A 
ATOM     12  C   UNL     1       1.007  -4.425   0.846  0.00  0.00    +0.035 A 
ATOM     13 BR   UNL     1      -1.507  -5.033   4.731  0.00  0.00    -0.050 Br
BRANCH  12  14
ATOM     14  N   UNL     1       1.756  -4.249  -0.316  0.00  0.00    -0.357 N 
ATOM     15  H   UNL     1       1.702  -3.414  -0.807  0.00  0.00    +0.142 HD
ATOM     16  H   UNL     1       2.332  -4.962  -0.634  0.00  0.00    +0.142 HD
ENDBRANCH  12  14
ENDBRANCH   5   7
BRANCH   6  17
ATOM     17  C   UNL     1       0.357  -0.520   2.445  0.00  0.00    +0.050 A 
ATOM     18  C   UNL     1       1.558  -0.817   3.077  0.00  0.00    +0.026 A 
ATOM     19  C   UNL     1       1.739  -0.480   4.405  0.00  0.00    +0.002 A 
ATOM     20  C   UNL     1       0.727   0.151   5.104  0.00  0.00    +0.000 A 
ATOM     21  C   UNL     1      -0.470   0.448   4.477  0.00  0.00    +0.002 A 
ATOM     22  C   UNL     1      -0.655   0.118   3.148  0.00  0.00    +0.026 A 
ENDBRANCH   6  17
TORSDOF 3
