REMARK  Name = ZINC57835936
REMARK  8 active torsions:
REMARK  status: ('A' for Active; 'I' for Inactive)
REMARK    1  A    between atoms: C_1  and  C_2
REMARK    2  A    between atoms: C_2  and  O_3
REMARK    3  A    between atoms: O_3  and  C_4
REMARK    4  A    between atoms: N_6  and  C_7
REMARK    5  A    between atoms: N_6  and  C_8
REMARK    6  A    between atoms: C_8  and  C_9
REMARK    7  A    between atoms: N_11  and  C_12
REMARK    8  A    between atoms: C_12  and  C_13
REMARK                            x       y       z     vdW  Elec       q    Type
REMARK                         _______ _______ _______ _____ _____    ______ ____
ROOT
ATOM      1  C   UNL     1       0.311  -4.258  -3.356  0.00  0.00    +0.231 C 
ATOM      2  O   UNL     1      -0.553  -3.487  -3.715  0.00  0.00    -0.274 OA
ATOM      3  N   UNL     1       0.200  -5.572  -3.635  0.00  0.00    -0.310 N 
ATOM      4  H   UNL     1       0.891  -6.189  -3.348  0.00  0.00    +0.149 HD
ENDROOT
BRANCH   1   5
ATOM      5  C   UNL     1       1.509  -3.748  -2.597  0.00  0.00    +0.206 C 
BRANCH   5   8
ATOM      6  C   UNL     1       0.776  -1.798  -1.335  0.00  0.00    +0.403 C 
ATOM      7  O   UNL     1       0.312  -2.549  -0.500  0.00  0.00    -0.226 OA
ATOM      8  N   UNL     1       1.395  -2.298  -2.422  0.00  0.00    -0.262 N 
ATOM      9  C   UNL     1       1.954  -1.393  -3.429  0.00  0.00    +0.136 C 
BRANCH   6  10
ATOM     10  O   UNL     1       0.671  -0.465  -1.174  0.00  0.00    -0.451 OA
BRANCH  10  12
ATOM     11  C   UNL     1      -0.019   1.526   0.010  0.00  0.00    +0.048 C 
ATOM     12  C   UNL     1       0.002  -0.004   0.002  0.00  0.00    +0.230 C 
ENDBRANCH  10  12
ENDBRANCH   6  10
ENDBRANCH   5   8
ENDBRANCH   1   5
BRANCH   3  13
ATOM     13  C   UNL     1      -0.965  -6.068  -4.373  0.00  0.00    +0.140 C 
BRANCH  13  14
ATOM     14  C   UNL     1      -0.847  -7.560  -4.553  0.00  0.00    -0.016 A 
ATOM     15  C   UNL     1      -0.411  -8.069  -5.714  0.00  0.00    +0.051 A 
ATOM     16  S   UNL     1      -0.448  -9.830  -5.436  0.00  0.00    -0.096 S 
ATOM     17  C   UNL     1      -1.050  -9.833  -3.767  0.00  0.00    +0.020 A 
ATOM     18  C   UNL     1      -1.201  -8.461  -3.467  0.00  0.00    -0.006 A 
ATOM     19  C   UNL     1      -1.673  -8.145  -2.171  0.00  0.00    +0.009 A 
ATOM     20  C   UNL     1      -1.956  -9.128  -1.275  0.00  0.00    +0.001 A 
ATOM     21  C   UNL     1      -1.794 -10.470  -1.594  0.00  0.00    +0.001 A 
ATOM     22  C   UNL     1      -1.345 -10.820  -2.852  0.00  0.00    +0.015 A 
ENDBRANCH  13  14
ENDBRANCH   3  13
TORSDOF 6
