REMARK  Name = ZINC56710594
REMARK  12 active torsions:
REMARK  status: ('A' for Active; 'I' for Inactive)
REMARK    1  A    between atoms: C_1  and  C_2
REMARK    2  A    between atoms: C_2  and  C_3
REMARK    3  A    between atoms: C_6  and  C_9
REMARK    4  A    between atoms: C_9  and  C_11
REMARK    5  A    between atoms: C_9  and  N_14
REMARK    6  A    between atoms: C_11  and  C_12
REMARK    7  A    between atoms: C_11  and  C_13
REMARK    8  A    between atoms: N_17  and  C_18
REMARK    9  A    between atoms: C_21  and  O_25
REMARK   10  A    between atoms: C_23  and  C_24
REMARK   11  A    between atoms: O_25  and  C_26
REMARK   12  A    between atoms: C_26  and  C_27
REMARK                            x       y       z     vdW  Elec       q    Type
REMARK                         _______ _______ _______ _____ _____    ______ ____
ROOT
ATOM      1  N   UNL     1      -6.195  -1.354  -1.016  0.00  0.00    -0.292 N 
ATOM      2  C   UNL     1      -7.533  -1.242  -0.898  0.00  0.00    +0.304 C 
ATOM      3  O   UNL     1      -8.097  -1.696   0.079  0.00  0.00    -0.252 OA
ATOM      4  N   UNL     1      -8.245  -0.627  -1.863  0.00  0.00    -0.269 N 
ATOM      5  H   UNL     1      -5.745  -0.992  -1.795  0.00  0.00    +0.151 HD
ATOM      6  H   UNL     1      -7.789  -0.193  -2.601  0.00  0.00    +0.156 HD
ENDROOT
BRANCH   4   7
ATOM      7  C   UNL     1      -9.645  -0.613  -1.799  0.00  0.00    +0.038 A 
ATOM      8  C   UNL     1     -10.319  -1.606  -1.100  0.00  0.00    +0.027 A 
ATOM      9  C   UNL     1     -11.698  -1.592  -1.038  0.00  0.00    +0.047 A 
ATOM     10  C   UNL     1     -12.411  -0.587  -1.673  0.00  0.00    +0.122 A 
ATOM     11  C   UNL     1     -11.739   0.406  -2.372  0.00  0.00    +0.050 A 
ATOM     12  C   UNL     1     -10.360   0.396  -2.431  0.00  0.00    -0.026 A 
ATOM     13  C   UNL     1      -9.629   1.478  -3.184  0.00  0.00    +0.046 C 
BRANCH  10  14
ATOM     14  O   UNL     1     -13.770  -0.574  -1.612  0.00  0.00    -0.483 OA
BRANCH  14  15
ATOM     15  C   UNL     1     -14.396  -1.626  -0.876  0.00  0.00    +0.324 C 
BRANCH  15  16
ATOM     16  C   UNL     1     -15.892  -1.448  -0.919  0.00  0.00    +0.248 C 
ATOM     17  O   UNL     1     -16.374  -0.512  -1.520  0.00  0.00    -0.272 OA
ATOM     18  N   UNL     1     -16.693  -2.329  -0.288  0.00  0.00    -0.327 N 
ATOM     19  H   UNL     1     -16.308  -3.078   0.193  0.00  0.00    +0.145 HD
ATOM     20  H   UNL     1     -17.656  -2.214  -0.316  0.00  0.00    +0.145 HD
ENDBRANCH  15  16
ENDBRANCH  14  15
ENDBRANCH  10  14
ENDBRANCH   4   7
BRANCH   1  21
ATOM     21  C   UNL     1      -5.421  -2.022   0.033  0.00  0.00    +0.107 C 
BRANCH  21  25
ATOM     22  C   UNL     1      -1.402  -0.575  -0.021  0.00  0.00    -0.048 A 
ATOM     23  C   UNL     1      -2.037  -0.807   1.185  0.00  0.00    +0.004 A 
ATOM     24  C   UNL     1      -3.337  -1.276   1.202  0.00  0.00    +0.006 A 
ATOM     25  C   UNL     1      -4.003  -1.511   0.014  0.00  0.00    -0.027 A 
ATOM     26  C   UNL     1      -3.369  -1.278  -1.192  0.00  0.00    +0.006 A 
ATOM     27  C   UNL     1      -2.070  -0.806  -1.209  0.00  0.00    +0.004 A 
BRANCH  22  29
ATOM     28  C   UNL     1       0.007   1.465  -0.035  0.00  0.00    +0.009 C 
ATOM     29  C   UNL     1       0.016  -0.065  -0.040  0.00  0.00    +0.032 C 
ENDBRANCH  22  29
ENDBRANCH  21  25
BRANCH  21  30
ATOM     30  C   UNL     1      -5.422  -3.532  -0.217  0.00  0.00    +0.008 C 
ATOM     31  C   UNL     1      -4.613  -4.230   0.878  0.00  0.00    +0.009 C 
ATOM     32  C   UNL     1      -6.861  -4.051  -0.197  0.00  0.00    +0.009 C 
ENDBRANCH  21  30
ENDBRANCH   1  21
TORSDOF 8
