REMARK  Name = ZINC25383501
REMARK  8 active torsions:
REMARK  status: ('A' for Active; 'I' for Inactive)
REMARK    1  A    between atoms: C_3  and  C_6
REMARK    2  A    between atoms: C_6  and  C_8
REMARK    3  A    between atoms: C_6  and  N_30
REMARK    4  A    between atoms: C_8  and  N_9
REMARK    5  A    between atoms: C_10  and  C_12
REMARK    6  A    between atoms: C_15  and  S_18
REMARK    7  A    between atoms: S_18  and  N_21
REMARK    8  A    between atoms: N_21  and  C_22
REMARK                            x       y       z     vdW  Elec       q    Type
REMARK                         _______ _______ _______ _____ _____    ______ ____
ROOT
ATOM      1  C   UNL     1      -1.233   1.807  -0.088  0.00  0.00    +0.037 A 
ATOM      2  C   UNL     1      -0.006   1.143  -0.056  0.00  0.00    +0.015 A 
ATOM      3  C   UNL     1       1.167   1.861  -0.170  0.00  0.00    +0.029 A 
ATOM      4  C   UNL     1       1.128   3.237  -0.310  0.00  0.00    +0.105 A 
ATOM      5  C   UNL     1      -0.085   3.902  -0.337  0.00  0.00    +0.029 A 
ATOM      6  C   UNL     1      -1.265   3.196  -0.224  0.00  0.00    +0.015 A 
ENDROOT
BRANCH   1   8
ATOM      7  N   UNL     1      -3.677   1.688  -0.003  0.00  0.00    -0.313 N 
ATOM      8  C   UNL     1      -2.494   1.043   0.028  0.00  0.00    +0.244 C 
ATOM      9  O   UNL     1      -2.463  -0.165   0.152  0.00  0.00    -0.270 OA
ATOM     10  H   UNL     1      -3.705   2.782  -0.115  0.00  0.00    +0.149 HD
BRANCH   7  11
ATOM     11  C   UNL     1      -4.926   0.931   0.112  0.00  0.00    +0.094 C 
BRANCH  11  12
ATOM     12  C   UNL     1      -6.107   1.902   0.167  0.00  0.00    -0.013 C 
BRANCH  12  13
ATOM     13  N   UNL     1      -7.347   1.152   0.409  0.00  0.00    +0.386 N 
ATOM     14  C   UNL     1      -7.272   0.398   1.687  0.00  0.00    -0.078 C 
ATOM     15  C   UNL     1      -8.760   0.131   2.028  0.00  0.00    -0.020 C 
ATOM     16  C   UNL     1      -9.458   1.434   1.575  0.00  0.00    -0.020 C 
ATOM     17  C   UNL     1      -8.501   2.066   0.546  0.00  0.00    -0.078 C 
ATOM     18  H   UNL     1      -7.464   0.481  -0.455  0.00  0.00    -0.081 HD
ENDBRANCH  12  13
BRANCH  12  21
ATOM     19  C   UNL     1      -5.999   4.364  -2.738  0.00  0.00    +0.008 A 
ATOM     20  C   UNL     1      -5.798   3.891  -1.455  0.00  0.00    +0.009 A 
ATOM     21  C   UNL     1      -6.214   2.639  -1.143  0.00  0.00    -0.022 A 
ATOM     22  S   UNL     1      -6.927   2.092  -2.686  0.00  0.00    -0.103 S 
ATOM     23  C   UNL     1      -6.616   3.567  -3.643  0.00  0.00    +0.045 A 
ENDBRANCH  12  21
ENDBRANCH  11  12
ENDBRANCH   7  11
ENDBRANCH   1   8
BRANCH   4  24
ATOM     24  S   UNL     1       2.631   4.146  -0.456  0.00  0.00    +0.059 S 
ATOM     25  O   UNL     1       2.346   5.471  -0.029  0.00  0.00    -0.153 OA
ATOM     26  O   UNL     1       3.645   3.353   0.144  0.00  0.00    -0.153 OA
BRANCH  24  27
ATOM     27  N   UNL     1       2.993   4.237  -2.070  0.00  0.00    -0.185 NA
ATOM     28  H   UNL     1       3.800   3.608  -2.475  0.00  0.00    +0.148 HD
BRANCH  27  29
ATOM     29  C   UNL     1       2.112   4.974  -2.978  0.00  0.00    +0.099 C 
ATOM     30  C   UNL     1       1.137   4.000  -3.661  0.00  0.00    +0.044 C 
ATOM     31  C   UNL     1       0.429   4.704  -4.843  0.00  0.00    +0.167 C 
ATOM     32  S   UNL     1       1.665   5.963  -5.363  0.00  0.00    -0.029 S 
ATOM     33  O   UNL     1       1.114   7.258  -5.171  0.00  0.00    -0.174 OA
ATOM     34  O   UNL     1       2.183   5.605  -6.636  0.00  0.00    -0.174 OA
ATOM     35  C   UNL     1       2.958   5.667  -4.084  0.00  0.00    +0.186 C 
ENDBRANCH  27  29
ENDBRANCH  24  27
ENDBRANCH   4  24
TORSDOF 8
