REMARK  Name = ZINC04274093
REMARK  5 active torsions:
REMARK  status: ('A' for Active; 'I' for Inactive)
REMARK    1  A    between atoms: C_1  and  C_2
REMARK    2  A    between atoms: C_5  and  N_8
REMARK    3  A    between atoms: C_11  and  C_24
REMARK    4  A    between atoms: C_13  and  C_15
REMARK    5  A    between atoms: C_18  and  N_21
REMARK                            x       y       z     vdW  Elec       q    Type
REMARK                         _______ _______ _______ _____ _____    ______ ____
ROOT
ATOM      1  N   UNL     1      -1.127   1.972   0.018  0.00  0.00    -0.245 N 
ATOM      2  C   UNL     1      -0.748   3.303   0.027  0.00  0.00    +0.170 A 
ATOM      3  C   UNL     1       0.659   3.321   0.014  0.00  0.00    +0.117 A 
ATOM      4  C   UNL     1       1.311   4.554   0.014  0.00  0.00    +0.154 A 
ATOM      5  N   UNL     1       0.574   5.665   0.026  0.00  0.00    -0.220 NA
ATOM      6  C   UNL     1      -0.748   5.605   0.038  0.00  0.00    +0.163 A 
ATOM      7  N   UNL     1      -1.404   4.449   0.039  0.00  0.00    -0.208 NA
ATOM      8  N   UNL     1       1.077   2.002   0.003  0.00  0.00    -0.303 N 
ATOM      9  H   UNL     1       1.998   1.698  -0.007  0.00  0.00    +0.171 HD
ATOM     10  C   UNL     1      -0.014   1.212   0.009  0.00  0.00    +0.333 A 
ATOM     11  O   UNL     1       0.002  -0.004   0.002  0.00  0.00    -0.246 OA
ENDROOT
BRANCH   1  16
ATOM     12  C   UNL     1      -6.463   0.041   0.026  0.00  0.00    +0.044 C 
ATOM     13  C   UNL     1      -5.046   0.554   0.024  0.00  0.00    -0.050 A 
ATOM     14  C   UNL     1      -3.990  -0.338   0.015  0.00  0.00    +0.005 A 
ATOM     15  C   UNL     1      -2.690   0.129   0.013  0.00  0.00    +0.026 A 
ATOM     16  C   UNL     1      -2.444   1.495   0.020  0.00  0.00    +0.053 A 
ATOM     17  C   UNL     1      -3.507   2.388   0.035  0.00  0.00    +0.026 A 
ATOM     18  C   UNL     1      -4.805   1.915   0.031  0.00  0.00    +0.005 A 
ENDBRANCH   1  16
BRANCH   6  19
ATOM     19  C   UNL     1      -1.523   6.869   0.051  0.00  0.00    +0.019 A 
ATOM     20  C   UNL     1      -2.916   6.835   0.059  0.00  0.00    +0.014 A 
ATOM     21  C   UNL     1      -3.633   8.015   0.076  0.00  0.00    +0.033 A 
ATOM     22  C   UNL     1      -2.970   9.229   0.076  0.00  0.00    +0.126 A 
ATOM     23  C   UNL     1      -1.588   9.269   0.063  0.00  0.00    +0.033 A 
ATOM     24  C   UNL     1      -0.861   8.095   0.051  0.00  0.00    +0.014 A 
BRANCH  22  25
ATOM     25  N   UNL     1      -3.744  10.491   0.088  0.00  0.00    +0.056 N 
ATOM     26  O   UNL     1      -3.163  11.562   0.087  0.00  0.00    -0.126 OA
ATOM     27  O   UNL     1      -4.962  10.459   0.099  0.00  0.00    -0.126 OA
ENDBRANCH  22  25
ENDBRANCH   6  19
BRANCH   4  28
ATOM     28  C   UNL     1       2.791   4.628   0.001  0.00  0.00    +0.262 C 
ATOM     29  O   UNL     1       3.450   3.607  -0.011  0.00  0.00    -0.269 OA
ATOM     30  N   UNL     1       3.405   5.827   0.001  0.00  0.00    -0.324 N 
ATOM     31  H   UNL     1       2.879   6.642   0.010  0.00  0.00    +0.145 HD
ATOM     32  H   UNL     1       4.374   5.876  -0.007  0.00  0.00    +0.145 HD
ENDBRANCH   4  28
TORSDOF 4
