REMARK  Name = ZINC36256219
REMARK  14 active torsions:
REMARK  status: ('A' for Active; 'I' for Inactive)
REMARK    1  A    between atoms: C_1  and  C_2
REMARK    2  A    between atoms: C_2  and  O_3
REMARK    3  A    between atoms: O_3  and  C_4
REMARK    4  A    between atoms: C_4  and  C_6
REMARK    5  A    between atoms: C_6  and  C_7
REMARK    6  A    between atoms: C_7  and  C_8
REMARK    7  A    between atoms: N_13  and  C_16
REMARK    8  A    between atoms: C_16  and  C_18
REMARK    9  A    between atoms: C_16  and  C_23
REMARK   10  A    between atoms: N_25  and  C_26
REMARK   11  A    between atoms: C_26  and  C_27
REMARK   12  A    between atoms: C_27  and  N_28
REMARK   13  A    between atoms: N_28  and  C_29
REMARK   14  A    between atoms: N_28  and  C_30
REMARK                            x       y       z     vdW  Elec       q    Type
REMARK                         _______ _______ _______ _____ _____    ______ ____
ROOT
ATOM      1  C   UNL     1      -4.735  -9.585   1.985  0.00  0.00    +0.146 C 
ENDROOT
BRANCH   1   7
ATOM      2  C   UNL     1      -3.075  -5.003  -0.400  0.00  0.00    +0.216 C 
ATOM      3  O   UNL     1      -3.923  -4.203  -0.736  0.00  0.00    -0.276 OA
ATOM      4  N   UNL     1      -3.394  -6.305  -0.264  0.00  0.00    -0.299 N 
ATOM      5  C   UNL     1      -2.383  -7.291   0.148  0.00  0.00    +0.123 C 
ATOM      6  C   UNL     1      -2.942  -8.099   1.324  0.00  0.00    +0.104 C 
ATOM      7  N   UNL     1      -4.245  -8.665   0.951  0.00  0.00    -0.288 NA
ATOM      8  C   UNL     1      -5.227  -7.607   0.679  0.00  0.00    +0.104 C 
ATOM      9  C   UNL     1      -4.763  -6.778  -0.518  0.00  0.00    +0.123 C 
BRANCH   2  10
ATOM     10  C   UNL     1      -1.665  -4.540  -0.135  0.00  0.00    +0.107 C 
BRANCH  10  11
ATOM     11  C   UNL     1      -1.573  -3.030  -0.359  0.00  0.00    +0.130 C 
BRANCH  11  12
ATOM     12  C   UNL     1      -0.164  -2.567  -0.094  0.00  0.00    +0.308 C 
ATOM     13  O   UNL     1       0.680  -3.364   0.240  0.00  0.00    -0.251 OA
BRANCH  12  14
ATOM     14  O   UNL     1       0.153  -1.270  -0.230  0.00  0.00    -0.465 OA
BRANCH  14  16
ATOM     15  C   UNL     1       1.678   0.604  -0.168  0.00  0.00    +0.048 C 
ATOM     16  C   UNL     1       1.508  -0.902   0.038  0.00  0.00    +0.229 C 
ENDBRANCH  14  16
ENDBRANCH  12  14
ENDBRANCH  11  12
ENDBRANCH  10  11
ENDBRANCH   2  10
ENDBRANCH   1   7
BRANCH   1  17
ATOM     17  C   UNL     1      -6.104 -10.131   1.574  0.00  0.00    +0.015 C 
ATOM     18  C   UNL     1      -6.556 -11.224   2.564  0.00  0.00    +0.005 C 
ATOM     19  C   UNL     1      -7.276 -12.268   1.675  0.00  0.00    +0.000 C 
ATOM     20  C   UNL     1      -6.411 -12.278   0.391  0.00  0.00    +0.000 C 
ATOM     21  C   UNL     1      -6.012 -10.801   0.192  0.00  0.00    +0.005 C 
ENDBRANCH   1  17
BRANCH   1  22
ATOM     22  C   UNL     1      -4.859  -8.850   3.294  0.00  0.00    +0.230 C 
ATOM     23  O   UNL     1      -4.900  -7.638   3.308  0.00  0.00    -0.274 OA
ATOM     24  N   UNL     1      -4.925  -9.540   4.450  0.00  0.00    -0.316 N 
ATOM     25  H   UNL     1      -4.978 -10.508   4.435  0.00  0.00    +0.149 HD
BRANCH  24  26
ATOM     26  C   UNL     1      -4.918  -8.826   5.730  0.00  0.00    +0.085 C 
BRANCH  26  27
ATOM     27  C   UNL     1      -5.002  -9.835   6.877  0.00  0.00    -0.061 C 
BRANCH  27  28
ATOM     28  N   UNL     1      -4.994  -9.120   8.160  0.00  0.00    +0.377 N 
ATOM     29  C   UNL     1      -5.194 -10.077   9.256  0.00  0.00    -0.097 C 
ATOM     30  C   UNL     1      -3.704  -8.439   8.334  0.00  0.00    -0.097 C 
ATOM     31  H   UNL     1      -5.738  -8.438   8.169  0.00  0.00    -0.083 HD
ENDBRANCH  27  28
ENDBRANCH  26  27
ENDBRANCH  24  26
ENDBRANCH   1  22
TORSDOF 11
