REMARK  Name = ZINC62364170
REMARK  4 active torsions:
REMARK  status: ('A' for Active; 'I' for Inactive)
REMARK    1  A    between atoms: C_1  and  C_2
REMARK    2  A    between atoms: C_7  and  C_9
REMARK    3  A    between atoms: C_7  and  C_10
REMARK    4  A    between atoms: C_12  and  N_18
REMARK                            x       y       z     vdW  Elec       q    Type
REMARK                         _______ _______ _______ _____ _____    ______ ____
ROOT
ATOM      1  C   UNL     1      -0.121   1.547  -0.031  0.00  0.00    +0.039 C 
ATOM      2  C   UNL     1      -0.056   0.018  -0.027  0.00  0.00    +0.133 C 
ATOM      3  C   UNL     1       0.659  -0.467  -1.293  0.00  0.00    +0.138 C 
ATOM      4  N   UNL     1       0.875  -1.918  -1.176  0.00  0.00    -0.308 N 
ATOM      5  C   UNL     1       1.497  -2.428   0.056  0.00  0.00    +0.141 C 
ATOM      6  C   UNL     1       0.741  -1.847   1.256  0.00  0.00    +0.080 C 
ATOM      7  O   UNL     1       0.667  -0.426   1.124  0.00  0.00    -0.368 OA
ATOM      8  C   UNL     1      -0.673  -2.429   1.299  0.00  0.00    +0.043 C 
ATOM      9  C   UNL     1       1.481  -2.203   2.547  0.00  0.00    +0.043 C 
ATOM     10  C   UNL     1       0.501  -2.780  -2.199  0.00  0.00    +0.147 A 
ATOM     11  C   UNL     1       1.379  -3.054  -3.255  0.00  0.00    +0.102 A 
ATOM     12  C   UNL     1       0.956  -3.924  -4.252  0.00  0.00    +0.155 A 
ATOM     13  N   UNL     1      -0.255  -4.459  -4.168  0.00  0.00    -0.222 NA
ATOM     14  C   UNL     1      -1.054  -4.178  -3.160  0.00  0.00    +0.225 A 
ATOM     15  N   UNL     1      -0.693  -3.363  -2.188  0.00  0.00    -0.219 NA
ATOM     16 CL   UNL     1       1.997  -4.304  -5.588  0.00  0.00    -0.060 Cl
ENDROOT
BRANCH  11  17
ATOM     17  N   UNL     1       2.651  -2.467  -3.306  0.00  0.00    -0.353 N 
ATOM     18  H   UNL     1       2.968  -1.933  -2.560  0.00  0.00    +0.143 HD
ATOM     19  H   UNL     1       3.213  -2.594  -4.086  0.00  0.00    +0.143 HD
ENDBRANCH  11  17
TORSDOF 1
