REMARK  Name = ZINC65394077
REMARK  6 active torsions:
REMARK  status: ('A' for Active; 'I' for Inactive)
REMARK    1  A    between atoms: C_1  and  C_2
REMARK    2  A    between atoms: C_2  and  C_3
REMARK    3  A    between atoms: C_2  and  C_4
REMARK    4  A    between atoms: C_7  and  C_12
REMARK    5  A    between atoms: N_9  and  C_11
REMARK    6  A    between atoms: C_17  and  N_20
REMARK                            x       y       z     vdW  Elec       q    Type
REMARK                         _______ _______ _______ _____ _____    ______ ____
ROOT
ATOM      1  C   UNL     1      -2.792  -3.765   1.542  0.00  0.00    +0.234 C 
ATOM      2  O   UNL     1      -2.538  -3.911   2.718  0.00  0.00    -0.274 OA
ATOM      3  N   UNL     1      -2.968  -4.843   0.751  0.00  0.00    -0.296 N 
ATOM      4  C   UNL     1      -2.863  -6.211   1.287  0.00  0.00    +0.114 C 
ATOM      5  C   UNL     1      -4.222  -6.893   1.107  0.00  0.00    +0.072 C 
ATOM      6  C   UNL     1      -4.755  -6.639  -0.272  0.00  0.00    +0.028 C 
ATOM      7  C   UNL     1      -4.351  -5.678  -1.054  0.00  0.00    +0.014 C 
ATOM      8  C   UNL     1      -3.277  -4.700  -0.679  0.00  0.00    +0.136 C 
ENDROOT
BRANCH   6   9
ATOM      9  N   UNL     1      -5.753  -7.488  -0.749  0.00  0.00    -0.265 N 
ATOM     10  C   UNL     1      -5.650  -8.325  -1.859  0.00  0.00    +0.074 A 
ATOM     11  C   UNL     1      -4.636  -8.575  -2.771  0.00  0.00    +0.028 A 
ATOM     12  C   UNL     1      -4.838  -9.484  -3.791  0.00  0.00    +0.002 A 
ATOM     13  C   UNL     1      -6.049 -10.146  -3.906  0.00  0.00    +0.002 A 
ATOM     14  C   UNL     1      -7.064  -9.904  -3.002  0.00  0.00    +0.028 A 
ATOM     15  C   UNL     1      -6.870  -8.993  -1.975  0.00  0.00    +0.067 A 
ATOM     16  N   UNL     1      -7.677  -8.542  -0.932  0.00  0.00    -0.306 N 
ATOM     17  H   UNL     1      -8.586  -8.828  -0.754  0.00  0.00    +0.170 HD
ATOM     18  C   UNL     1      -6.978  -7.645  -0.212  0.00  0.00    +0.332 A 
ATOM     19  O   UNL     1      -7.391  -7.062   0.773  0.00  0.00    -0.246 OA
ENDBRANCH   6   9
BRANCH   1  22
ATOM     20  C   UNL     1      -1.665  -0.435   0.322  0.00  0.00    +0.074 C 
ATOM     21  C   UNL     1      -1.609  -1.982   0.224  0.00  0.00    +0.050 C 
ATOM     22  C   UNL     1      -2.913  -2.379   0.963  0.00  0.00    +0.160 C 
ATOM     23  N   UNL     1      -3.028  -1.370   2.040  0.00  0.00    -0.234 NA
ATOM     24  N   UNL     1      -2.270  -0.185   1.649  0.00  0.00    -0.250 NA
ATOM     25  C   UNL     1      -4.434  -1.032   2.297  0.00  0.00    +0.124 C 
ATOM     26  H   UNL     1      -1.562   0.034   2.334  0.00  0.00    +0.141 HD
BRANCH  20  28
ATOM     27  C   UNL     1      -0.337   1.680   0.402  0.00  0.00    +0.009 C 
ATOM     28  C   UNL     1      -0.257   0.160   0.252  0.00  0.00    +0.001 C 
ATOM     29  C   UNL     1       0.598  -0.420   1.382  0.00  0.00    +0.009 C 
ENDBRANCH  20  28
ENDBRANCH   1  22
TORSDOF 3
