REMARK  Name = ZINC39748373
REMARK  9 active torsions:
REMARK  status: ('A' for Active; 'I' for Inactive)
REMARK    1  A    between atoms: C_1  and  C_2
REMARK    2  A    between atoms: C_2  and  O_3
REMARK    3  A    between atoms: O_3  and  C_4
REMARK    4  A    between atoms: C_8  and  C_10
REMARK    5  A    between atoms: C_25  and  N_32
REMARK    6  A    between atoms: C_26  and  C_27
REMARK    7  A    between atoms: C_27  and  O_29
REMARK    8  A    between atoms: O_29  and  C_30
REMARK    9  A    between atoms: C_30  and  C_31
REMARK                            x       y       z     vdW  Elec       q    Type
REMARK                         _______ _______ _______ _____ _____    ______ ____
ROOT
ATOM      1  C   UNL     1      -4.482  -4.286   0.051  0.00  0.00    +0.080 C 
ATOM      2  C   UNL     1      -4.614  -5.099  -1.241  0.00  0.00    +0.154 C 
ATOM      3  C   UNL     1      -5.709  -6.117  -0.967  0.00  0.00    +0.129 C 
ATOM      4  C   UNL     1      -6.831  -6.102  -1.781  0.00  0.00    +0.035 A 
ATOM      5  C   UNL     1      -7.880  -7.028  -1.599  0.00  0.00    +0.013 A 
ATOM      6  C   UNL     1      -8.963  -6.986  -2.423  0.00  0.00    +0.001 A 
ATOM      7  C   UNL     1      -9.059  -6.046  -3.445  0.00  0.00    +0.002 A 
ATOM      8  C   UNL     1      -8.081  -5.125  -3.668  0.00  0.00    +0.024 A 
ATOM      9  C   UNL     1      -6.935  -5.107  -2.855  0.00  0.00    +0.044 A 
ATOM     10  N   UNL     1      -5.977  -4.197  -3.069  0.00  0.00    -0.284 N 
ATOM     11  C   UNL     1      -4.846  -4.117  -2.367  0.00  0.00    +0.229 C 
ATOM     12  O   UNL     1      -4.011  -3.266  -2.615  0.00  0.00    -0.275 OA
ATOM     13  O   UNL     1      -5.550  -6.967   0.050  0.00  0.00    -0.445 OA
ATOM     14  C   UNL     1      -5.021  -6.458   1.188  0.00  0.00    +0.194 C 
ATOM     15  C   UNL     1      -4.500  -5.211   1.237  0.00  0.00    +0.102 C 
ATOM     16  H   UNL     1      -6.108  -3.556  -3.786  0.00  0.00    +0.155 HD
ENDROOT
BRANCH   1  21
ATOM     17  C   UNL     1      -1.999  -1.438   0.085  0.00  0.00    +0.121 A 
ATOM     18  C   UNL     1      -0.795  -2.122  -0.006  0.00  0.00    +0.045 A 
ATOM     19  C   UNL     1      -0.790  -3.502  -0.078  0.00  0.00    +0.004 A 
ATOM     20  C   UNL     1      -1.983  -4.201  -0.059  0.00  0.00    +0.004 A 
ATOM     21  C   UNL     1      -3.184  -3.521   0.031  0.00  0.00    -0.035 A 
ATOM     22  C   UNL     1      -3.194  -2.142   0.109  0.00  0.00    +0.050 A 
BRANCH  17  23
ATOM     23  O   UNL     1      -2.007  -0.081   0.155  0.00  0.00    -0.492 OA
BRANCH  23  25
ATOM     24  C   UNL     1      -0.947   2.091   0.214  0.00  0.00    +0.048 C 
ATOM     25  C   UNL     1      -0.739   0.578   0.125  0.00  0.00    +0.225 C 
ENDBRANCH  23  25
ENDBRANCH  17  23
ENDBRANCH   1  21
BRANCH  14  26
ATOM     26  N   UNL     1      -5.014  -7.228   2.320  0.00  0.00    -0.329 N 
ATOM     27  H   UNL     1      -5.456  -8.092   2.323  0.00  0.00    +0.145 HD
ATOM     28  H   UNL     1      -4.567  -6.910   3.120  0.00  0.00    +0.145 HD
ENDBRANCH  14  26
BRANCH  15  29
ATOM     29  C   UNL     1      -3.952  -4.760   2.449  0.00  0.00    +0.341 C 
ATOM     30  O   UNL     1      -4.580  -3.989   3.152  0.00  0.00    -0.245 OA
BRANCH  29  31
ATOM     31  O   UNL     1      -2.728  -5.181   2.835  0.00  0.00    -0.462 OA
BRANCH  31  32
ATOM     32  C   UNL     1      -2.233  -4.682   4.079  0.00  0.00    +0.229 C 
ATOM     33  C   UNL     1      -0.844  -5.265   4.346  0.00  0.00    +0.048 C 
ENDBRANCH  31  32
ENDBRANCH  29  31
ENDBRANCH  15  29
TORSDOF 7
