REMARK  Name = ZINC45654776
REMARK  3 active torsions:
REMARK  status: ('A' for Active; 'I' for Inactive)
REMARK    1  A    between atoms: C_6  and  N_7
REMARK    2  A    between atoms: N_10  and  C_11
REMARK    3  A    between atoms: C_11  and  C_12
REMARK                            x       y       z     vdW  Elec       q    Type
REMARK                         _______ _______ _______ _____ _____    ______ ____
ROOT
ATOM      1  C   UNL     1       0.024   1.394   0.274  0.00  0.00    +0.053 A 
ATOM      2  C   UNL     1       1.224   2.057   0.044  0.00  0.00    +0.038 A 
ATOM      3  C   UNL     1       2.361   1.323  -0.230  0.00  0.00    +0.128 A 
ATOM      4  N   UNL     1       2.320   0.004  -0.277  0.00  0.00    -0.237 NA
ATOM      5  C   UNL     1       1.196  -0.663  -0.064  0.00  0.00    +0.149 A 
ATOM      6  C   UNL     1       0.013   0.012   0.218  0.00  0.00    +0.167 A 
ATOM      7  N   UNL     1       1.199  -2.053  -0.124  0.00  0.00    -0.327 N 
ATOM      8 BR   UNL     1       1.298   3.946   0.107  0.00  0.00    -0.049 Br
ATOM      9  H   UNL     1       0.366  -2.543  -0.047  0.00  0.00    +0.148 HD
ENDROOT
BRANCH   6  10
ATOM     10  N   UNL     1      -1.240  -0.738   0.455  0.00  0.00    +0.060 N 
ATOM     11  O   UNL     1      -2.292  -0.302   0.049  0.00  0.00    -0.126 OA
ATOM     12  O   UNL     1      -1.212  -1.787   1.056  0.00  0.00    -0.126 OA
ENDBRANCH   6  10
BRANCH   7  13
ATOM     13  C   UNL     1       2.461  -2.776  -0.304  0.00  0.00    +0.106 C 
BRANCH  13  14
ATOM     14  C   UNL     1       2.186  -4.280  -0.335  0.00  0.00    +0.010 C 
ATOM     15  C   UNL     1       3.514  -5.045  -0.408  0.00  0.00    +0.009 C 
ATOM     16  C   UNL     1       3.220  -6.540  -0.259  0.00  0.00    +0.027 C 
ATOM     17  C   UNL     1       2.119  -6.946  -1.194  0.00  0.00    -0.031 C 
ATOM     18  C   UNL     1       1.307  -6.114  -1.764  0.00  0.00    -0.031 C 
ATOM     19  C   UNL     1       1.355  -4.625  -1.573  0.00  0.00    +0.032 C 
ENDBRANCH  13  14
ENDBRANCH   7  13
TORSDOF 3
