REMARK  Name = ZINC64653798
REMARK  4 active torsions:
REMARK  status: ('A' for Active; 'I' for Inactive)
REMARK    1  A    between atoms: C_7  and  C_10
REMARK    2  A    between atoms: C_10  and  C_11
REMARK    3  A    between atoms: C_11  and  C_12
REMARK    4  A    between atoms: N_17  and  N_18
REMARK                            x       y       z     vdW  Elec       q    Type
REMARK                         _______ _______ _______ _____ _____    ______ ____
ROOT
ATOM      1  C   UNL     1      -0.484  -4.830  -1.460  0.00  0.00    +0.133 C 
ATOM      2  N   UNL     1      -1.002  -5.340  -0.393  0.00  0.00    -0.162 NA
ATOM      3  N   UNL     1      -1.863  -6.381  -0.710  0.00  0.00    -0.148 N 
ATOM      4  C   UNL     1      -1.633  -6.675  -2.143  0.00  0.00    +0.293 C 
ATOM      5  N   UNL     1      -0.901  -5.491  -2.604  0.00  0.00    -0.217 N 
ATOM      6  N   UNL     1      -2.950  -6.821  -2.772  0.00  0.00    -0.308 N 
ATOM      7  C   UNL     1      -3.870  -7.646  -2.122  0.00  0.00    +0.042 A 
ATOM      8  C   UNL     1      -4.851  -8.316  -2.837  0.00  0.00    +0.024 A 
ATOM      9  C   UNL     1      -5.741  -9.139  -2.176  0.00  0.00    +0.002 A 
ATOM     10  C   UNL     1      -5.663  -9.303  -0.802  0.00  0.00    +0.001 A 
ATOM     11  C   UNL     1      -4.698  -8.639  -0.073  0.00  0.00    +0.015 A 
ATOM     12  C   UNL     1      -3.798  -7.801  -0.727  0.00  0.00    +0.060 A 
ATOM     13  C   UNL     1      -2.781  -7.037   0.027  0.00  0.00    +0.271 C 
ATOM     14  O   UNL     1      -2.763  -7.021   1.244  0.00  0.00    -0.268 OA
ATOM     15  H   UNL     1      -3.171  -6.365  -3.599  0.00  0.00    +0.149 HD
ENDROOT
BRANCH   5  16
ATOM     16  N   UNL     1      -0.674  -5.117  -3.898  0.00  0.00    -0.250 NA
ATOM     17  H   UNL     1      -0.142  -4.261  -3.939  0.00  0.00    +0.141 HD
ATOM     18  H   UNL     1      -0.215  -5.853  -4.413  0.00  0.00    +0.141 HD
ENDBRANCH   5  16
BRANCH   1  19
ATOM     19  C   UNL     1       0.457  -3.653  -1.462  0.00  0.00    +0.079 C 
BRANCH  19  20
ATOM     20  C   UNL     1       0.691  -3.186  -0.024  0.00  0.00    +0.041 C 
BRANCH  20  27
ATOM     21  C   UNL     1      -0.016   1.348   0.009  0.00  0.00    +0.001 A 
ATOM     22  C   UNL     1       1.166   2.101   0.002  0.00  0.00    +0.002 A 
ATOM     23  C   UNL     1       2.391   1.535  -0.013  0.00  0.00    +0.026 A 
ATOM     24  C   UNL     1       2.529   0.120  -0.022  0.00  0.00    +0.043 A 
ATOM     25  N   UNL     1       3.587  -0.654  -0.037  0.00  0.00    -0.380 N 
ATOM     26  C   UNL     1       3.143  -2.053  -0.041  0.00  0.00    +0.144 C 
ATOM     27  C   UNL     1       1.631  -2.008  -0.025  0.00  0.00    -0.041 C 
ATOM     28  C   UNL     1       1.295  -0.698  -0.014  0.00  0.00    -0.001 A 
ATOM     29  C   UNL     1       0.002  -0.004   0.002  0.00  0.00    +0.010 A 
ATOM     30  H   UNL     1       4.509  -0.353  -0.045  0.00  0.00    +0.160 HD
ENDBRANCH  20  27
ENDBRANCH  19  20
ENDBRANCH   1  19
TORSDOF 4
