REMARK  Name = ZINC39858599
REMARK  7 active torsions:
REMARK  status: ('A' for Active; 'I' for Inactive)
REMARK    1  A    between atoms: C_1  and  C_2
REMARK    2  A    between atoms: C_9  and  O_27
REMARK    3  A    between atoms: C_10  and  C_13
REMARK    4  A    between atoms: C_14  and  C_15
REMARK    5  A    between atoms: C_14  and  C_17
REMARK    6  A    between atoms: N_19  and  C_20
REMARK    7  A    between atoms: O_27  and  C_28
REMARK                            x       y       z     vdW  Elec       q    Type
REMARK                         _______ _______ _______ _____ _____    ______ ____
ROOT
ATOM      1  C   UNL     1      -1.147  -3.063  -1.998  0.00  0.00    +0.047 C 
ATOM      2  C   UNL     1      -0.689  -4.265  -1.212  0.00  0.00    -0.007 A 
ATOM      3  C   UNL     1      -0.388  -5.431  -1.853  0.00  0.00    +0.008 A 
ATOM      4  C   UNL     1       0.037  -6.539  -1.109  0.00  0.00    +0.019 A 
ATOM      5  C   UNL     1       0.147  -6.450   0.236  0.00  0.00    +0.096 A 
ATOM      6  N   UNL     1      -0.152  -5.290   0.885  0.00  0.00    -0.267 N 
ATOM      7  C   UNL     1      -0.563  -4.190   0.186  0.00  0.00    +0.147 A 
ATOM      8  N   UNL     1      -0.855  -3.043   0.803  0.00  0.00    -0.194 NA
ATOM      9  C   UNL     1      -0.756  -2.914   2.114  0.00  0.00    +0.235 A 
ATOM     10  C   UNL     1      -0.329  -4.016   2.894  0.00  0.00    +0.103 A 
ATOM     11  C   UNL     1      -0.031  -5.235   2.229  0.00  0.00    +0.269 A 
ATOM     12  O   UNL     1       0.340  -6.210   2.859  0.00  0.00    -0.266 OA
ENDROOT
BRANCH  10  13
ATOM     13  C   UNL     1      -0.212  -3.910   4.292  0.00  0.00    +0.042 C 
ATOM     14  C   UNL     1       1.040  -3.956   4.890  0.00  0.00    +0.114 C 
BRANCH  14  15
ATOM     15  C   UNL     1       2.249  -3.921   4.062  0.00  0.00    +0.259 C 
ATOM     16  O   UNL     1       2.156  -3.845   2.850  0.00  0.00    -0.269 OA
ATOM     17  N   UNL     1       3.465  -3.972   4.642  0.00  0.00    -0.281 N 
ATOM     18  H   UNL     1       3.540  -4.127   5.596  0.00  0.00    +0.155 HD
BRANCH  17  19
ATOM     19  C   UNL     1       4.617  -3.803   3.867  0.00  0.00    +0.034 A 
ATOM     20  C   UNL     1       4.610  -2.924   2.792  0.00  0.00    +0.025 A 
ATOM     21  C   UNL     1       5.750  -2.758   2.030  0.00  0.00    +0.022 A 
ATOM     22  C   UNL     1       6.897  -3.468   2.335  0.00  0.00    +0.041 A 
ATOM     23  C   UNL     1       6.907  -4.345   3.405  0.00  0.00    +0.022 A 
ATOM     24  C   UNL     1       5.772  -4.510   4.175  0.00  0.00    +0.025 A 
ATOM     25 CL   UNL     1       8.327  -3.259   1.373  0.00  0.00    -0.084 Cl
ENDBRANCH  17  19
ENDBRANCH  14  15
BRANCH  14  26
ATOM     26  C   UNL     1       1.150  -4.039   6.315  0.00  0.00    +0.104 C 
ATOM     27  N   UNL     1       1.237  -4.104   7.446  0.00  0.00    -0.191 NA
ENDBRANCH  14  26
ENDBRANCH  10  13
BRANCH   9  28
ATOM     28  O   UNL     1      -1.059  -1.738   2.707  0.00  0.00    -0.437 OA
BRANCH  28  29
ATOM     29  C   UNL     1      -1.366  -0.681   1.909  0.00  0.00    +0.130 A 
ATOM     30  C   UNL     1      -2.612  -0.606   1.304  0.00  0.00    +0.048 A 
ATOM     31  C   UNL     1      -2.922   0.468   0.494  0.00  0.00    +0.023 A 
ATOM     32  C   UNL     1      -1.990   1.470   0.285  0.00  0.00    +0.041 A 
ATOM     33  C   UNL     1      -0.747   1.397   0.887  0.00  0.00    +0.023 A 
ATOM     34  C   UNL     1      -0.435   0.327   1.703  0.00  0.00    +0.048 A 
ATOM     35 CL   UNL     1      -2.383   2.820  -0.734  0.00  0.00    -0.084 Cl
ENDBRANCH  28  29
ENDBRANCH   9  28
TORSDOF 6
