REMARK  Name = ZINC06669783
REMARK  5 active torsions:
REMARK  status: ('A' for Active; 'I' for Inactive)
REMARK    1  A    between atoms: C_3  and  C_6
REMARK    2  A    between atoms: C_6  and  N_7
REMARK    3  A    between atoms: C_8  and  C_10
REMARK    4  A    between atoms: N_12  and  C_13
REMARK    5  A    between atoms: C_14  and  C_22
REMARK                            x       y       z     vdW  Elec       q    Type
REMARK                         _______ _______ _______ _____ _____    ______ ____
ROOT
ATOM      1  C   UNL     1      -2.470   0.860   0.018  0.00  0.00    +0.304 C 
ATOM      2  O   UNL     1      -2.454  -0.354   0.012  0.00  0.00    -0.265 OA
ATOM      3  N   UNL     1      -3.646   1.518   0.028  0.00  0.00    -0.272 N 
ATOM      4  H   UNL     1      -3.659   2.488   0.033  0.00  0.00    +0.156 HD
ENDROOT
BRANCH   3   5
ATOM      5  C   UNL     1      -4.835   0.809   0.029  0.00  0.00    +0.085 A 
ATOM      6  C   UNL     1      -6.133   1.303   0.044  0.00  0.00    +0.068 A 
ATOM      7  C   UNL     1      -7.218   0.337   0.039  0.00  0.00    -0.023 A 
ATOM      8  C   UNL     1      -6.835  -0.959   0.031  0.00  0.00    -0.004 A 
ATOM      9  S   UNL     1      -5.066  -0.908   0.022  0.00  0.00    -0.077 S 
ATOM     10  C   UNL     1      -7.725  -2.163   0.029  0.00  0.00    +0.043 C 
ATOM     11  C   UNL     1      -9.143  -1.718   0.417  0.00  0.00    +0.005 C 
ATOM     12  C   UNL     1      -9.516  -0.485  -0.412  0.00  0.00    +0.005 C 
ATOM     13  C   UNL     1      -8.693   0.720   0.047  0.00  0.00    +0.037 C 
BRANCH   6  14
ATOM     14  C   UNL     1      -6.399   2.745   0.060  0.00  0.00    +0.244 C 
ATOM     15  O   UNL     1      -6.517   3.353  -0.988  0.00  0.00    -0.270 OA
ATOM     16  N   UNL     1      -6.511   3.397   1.234  0.00  0.00    -0.325 N 
ATOM     17  H   UNL     1      -6.417   2.912   2.069  0.00  0.00    +0.145 HD
ATOM     18  H   UNL     1      -6.687   4.351   1.244  0.00  0.00    +0.145 HD
ENDBRANCH   6  14
ENDBRANCH   3   5
BRANCH   1  20
ATOM     19  N   UNL     1      -0.011   0.966   0.007  0.00  0.00    -0.300 N 
ATOM     20  C   UNL     1      -1.187   1.624   0.017  0.00  0.00    +0.300 C 
ATOM     21  O   UNL     1      -1.204   2.837   0.023  0.00  0.00    -0.265 OA
ATOM     22  H   UNL     1       0.002  -0.004   0.002  0.00  0.00    +0.150 HD
BRANCH  19  23
ATOM     23  C   UNL     1       1.248   1.716  -0.001  0.00  0.00    +0.179 C 
BRANCH  23  26
ATOM     24  C   UNL     1       4.033  -0.603  -0.672  0.00  0.00    +0.041 A 
ATOM     25  C   UNL     1       3.001   0.255  -1.116  0.00  0.00    +0.046 A 
ATOM     26  C   UNL     1       2.406   0.752  -0.017  0.00  0.00    +0.122 A 
ATOM     27  O   UNL     1       3.024   0.248   1.064  0.00  0.00    -0.466 OA
ATOM     28  C   UNL     1       4.008  -0.578   0.673  0.00  0.00    +0.195 A 
ENDBRANCH  23  26
ENDBRANCH  19  23
ENDBRANCH   1  20
TORSDOF 5
