REMARK  Name = ZINC08568292
REMARK  9 active torsions:
REMARK  status: ('A' for Active; 'I' for Inactive)
REMARK    1  A    between atoms: C_1  and  C_2
REMARK    2  A    between atoms: C_2  and  C_3
REMARK    3  A    between atoms: C_3  and  C_4
REMARK    4  A    between atoms: C_11  and  N_35
REMARK    5  A    between atoms: C_12  and  C_31
REMARK    6  A    between atoms: N_20  and  C_23
REMARK    7  A    between atoms: C_23  and  C_24
REMARK    8  A    between atoms: C_31  and  O_33
REMARK    9  A    between atoms: O_33  and  C_34
REMARK                            x       y       z     vdW  Elec       q    Type
REMARK                         _______ _______ _______ _____ _____    ______ ____
ROOT
ATOM      1  C   UNL     1      -1.623  -2.014   0.062  0.00  0.00    +0.045 A 
ATOM      2  C   UNL     1      -1.419  -2.825   1.111  0.00  0.00    +0.061 A 
ATOM      3  C   UNL     1      -1.300  -4.148   0.625  0.00  0.00    +0.245 A 
ATOM      4  N   UNL     1      -1.431  -4.114  -0.669  0.00  0.00    -0.135 NA
ATOM      5  N   UNL     1      -1.641  -2.780  -1.053  0.00  0.00    -0.278 N 
ATOM      6  H   UNL     1      -1.773  -2.463  -1.960  0.00  0.00    +0.189 HD
ATOM      7  O   UNL     1      -1.087  -5.203   1.456  0.00  0.00    -0.422 OA
ATOM      8  C   UNL     1      -0.728  -4.939   2.727  0.00  0.00    +0.198 C 
ATOM      9  C   UNL     1      -0.809  -3.716   3.307  0.00  0.00    +0.117 C 
ATOM     10  C   UNL     1      -1.318  -2.505   2.576  0.00  0.00    +0.142 C 
ATOM     11  C   UNL     1      -2.632  -2.052   3.125  0.00  0.00    -0.002 A 
ATOM     12  C   UNL     1      -3.855  -2.682   3.212  0.00  0.00    +0.007 A 
ATOM     13  C   UNL     1      -4.896  -1.964   3.790  0.00  0.00    +0.000 A 
ATOM     14  C   UNL     1      -4.710  -0.677   4.255  0.00  0.00    +0.002 A 
ATOM     15  C   UNL     1      -3.484  -0.037   4.171  0.00  0.00    +0.024 A 
ATOM     16  C   UNL     1      -2.430  -0.747   3.593  0.00  0.00    +0.041 A 
ATOM     17  N   UNL     1      -1.119  -0.359   3.386  0.00  0.00    -0.265 N 
ATOM     18  C   UNL     1      -0.391  -1.330   2.794  0.00  0.00    +0.240 C 
ATOM     19  O   UNL     1       0.783  -1.272   2.495  0.00  0.00    -0.274 OA
ENDROOT
BRANCH   8  20
ATOM     20  N   UNL     1      -0.251  -5.975   3.485  0.00  0.00    -0.329 N 
ATOM     21  H   UNL     1      -0.252  -6.877   3.128  0.00  0.00    +0.145 HD
ATOM     22  H   UNL     1       0.087  -5.806   4.378  0.00  0.00    +0.145 HD
ENDBRANCH   8  20
BRANCH   9  23
ATOM     23  C   UNL     1      -0.400  -3.575   4.641  0.00  0.00    +0.341 C 
ATOM     24  O   UNL     1      -1.231  -3.527   5.530  0.00  0.00    -0.245 OA
BRANCH  23  25
ATOM     25  O   UNL     1       0.914  -3.494   4.939  0.00  0.00    -0.465 OA
ATOM     26  C   UNL     1       1.259  -3.351   6.319  0.00  0.00    +0.280 C 
ENDBRANCH  23  25
ENDBRANCH   9  23
BRANCH   1  27
ATOM     27  C   UNL     1      -1.805  -0.519   0.117  0.00  0.00    +0.055 C 
BRANCH  27  29
ATOM     28  C   UNL     1      -0.620   1.680   0.171  0.00  0.00    +0.004 C 
ATOM     29  C   UNL     1      -0.435   0.162   0.115  0.00  0.00    +0.003 C 
ENDBRANCH  27  29
ENDBRANCH   1  27
BRANCH  17  30
ATOM     30  C   UNL     1      -0.582   0.951   3.764  0.00  0.00    +0.148 C 
BRANCH  30  31
ATOM     31  C   UNL     1      -0.045   0.886   5.171  0.00  0.00    -0.030 A 
ATOM     32  C   UNL     1      -0.874   1.168   6.241  0.00  0.00    +0.006 A 
ATOM     33  C   UNL     1      -0.381   1.109   7.531  0.00  0.00    +0.020 A 
ATOM     34  C   UNL     1       0.941   0.768   7.752  0.00  0.00    +0.041 A 
ATOM     35  C   UNL     1       1.770   0.486   6.680  0.00  0.00    +0.020 A 
ATOM     36  C   UNL     1       1.275   0.540   5.391  0.00  0.00    +0.006 A 
ATOM     37 CL   UNL     1       1.560   0.695   9.372  0.00  0.00    -0.084 Cl
ENDBRANCH  30  31
ENDBRANCH  17  30
TORSDOF 7
