REMARK  Name = ZINC45849974
REMARK  9 active torsions:
REMARK  status: ('A' for Active; 'I' for Inactive)
REMARK    1  A    between atoms: C_1  and  C_2
REMARK    2  A    between atoms: C_5  and  N_9
REMARK    3  A    between atoms: C_6  and  C_8
REMARK    4  A    between atoms: C_13  and  C_15
REMARK    5  A    between atoms: C_15  and  C_17
REMARK    6  A    between atoms: C_15  and  S_18
REMARK    7  A    between atoms: S_18  and  C_19
REMARK    8  A    between atoms: N_24  and  C_25
REMARK    9  A    between atoms: C_25  and  C_26
REMARK                            x       y       z     vdW  Elec       q    Type
REMARK                         _______ _______ _______ _____ _____    ______ ____
ROOT
ATOM      1  N   UNL     1       0.059  -4.170  -0.021  0.00  0.00    -0.269 N 
ATOM      2  C   UNL     1      -0.040  -4.839  -1.187  0.00  0.00    +0.310 C 
ATOM      3  O   UNL     1      -0.054  -4.229  -2.238  0.00  0.00    -0.252 OA
ATOM      4  N   UNL     1      -0.124  -6.184  -1.187  0.00  0.00    -0.239 N 
ATOM      5  C   UNL     1      -0.223  -6.853  -2.353  0.00  0.00    +0.233 C 
ATOM      6  O   UNL     1      -0.237  -6.244  -3.401  0.00  0.00    -0.274 OA
ATOM      7  H   UNL     1       0.135  -4.658   0.814  0.00  0.00    +0.156 HD
ATOM      8  H   UNL     1      -0.113  -6.671  -0.348  0.00  0.00    +0.159 HD
ENDROOT
BRANCH   1  13
ATOM      9  C   UNL     1       0.025   1.503   0.005  0.00  0.00    +0.044 C 
ATOM     10  C   UNL     1       0.034  -0.004  -0.002  0.00  0.00    -0.050 A 
ATOM     11  C   UNL     1       0.632  -0.685  -1.046  0.00  0.00    +0.005 A 
ATOM     12  C   UNL     1       0.641  -2.066  -1.055  0.00  0.00    +0.024 A 
ATOM     13  C   UNL     1       0.051  -2.771  -0.014  0.00  0.00    +0.038 A 
ATOM     14  C   UNL     1      -0.548  -2.083   1.033  0.00  0.00    -0.029 A 
ATOM     15  C   UNL     1      -0.551  -0.702   1.039  0.00  0.00    +0.008 A 
ATOM     16  C   UNL     1      -1.191  -2.843   2.165  0.00  0.00    +0.045 C 
ENDBRANCH   1  13
BRANCH   5  17
ATOM     17  C   UNL     1      -0.317  -8.357  -2.353  0.00  0.00    +0.136 C 
ATOM     18  C   UNL     1       1.080  -8.955  -2.173  0.00  0.00    +0.029 C 
BRANCH  17  19
ATOM     19  S   UNL     1      -1.016  -8.919  -3.930  0.00  0.00    -0.084 S 
BRANCH  19  20
ATOM     20  C   UNL     1      -1.198 -10.659  -3.719  0.00  0.00    +0.161 A 
ATOM     21  N   UNL     1      -0.910 -11.409  -2.673  0.00  0.00    -0.133 NA
ATOM     22  N   UNL     1      -1.133 -12.765  -2.721  0.00  0.00    -0.125 NA
ATOM     23  C   UNL     1      -1.634 -13.310  -3.813  0.00  0.00    +0.182 A 
ATOM     24  S   UNL     1      -1.828 -11.878  -4.863  0.00  0.00    -0.025 S 
ATOM     25  N   UNL     1      -1.935 -14.641  -4.075  0.00  0.00    -0.320 N 
ATOM     26  H   UNL     1      -2.303 -14.895  -4.936  0.00  0.00    +0.148 HD
BRANCH  25  27
ATOM     27  C   UNL     1      -1.697 -15.661  -3.051  0.00  0.00    +0.135 C 
BRANCH  27  28
ATOM     28  C   UNL     1      -2.110 -17.032  -3.590  0.00  0.00    +0.135 C 
ATOM     29  C   UNL     1      -1.899 -18.122  -2.509  0.00  0.00    +0.035 C 
ATOM     30  C   UNL     1      -2.920 -19.197  -2.971  0.00  0.00    +0.031 C 
ATOM     31  C   UNL     1      -4.064 -18.336  -3.548  0.00  0.00    +0.160 C 
ATOM     32  O   UNL     1      -3.518 -17.052  -3.876  0.00  0.00    -0.375 OA
ENDBRANCH  27  28
ENDBRANCH  25  27
ENDBRANCH  19  20
ENDBRANCH  17  19
ENDBRANCH   5  17
TORSDOF 6
