REMARK  Name = ZINC48372752
REMARK  8 active torsions:
REMARK  status: ('A' for Active; 'I' for Inactive)
REMARK    1  A    between atoms: C_1  and  C_2
REMARK    2  A    between atoms: C_2  and  C_3
REMARK    3  A    between atoms: N_5  and  C_6
REMARK    4  A    between atoms: C_9  and  C_12
REMARK    5  A    between atoms: C_12  and  C_13
REMARK    6  A    between atoms: C_12  and  N_14
REMARK    7  A    between atoms: N_17  and  C_18
REMARK    8  A    between atoms: C_18  and  C_19
REMARK                            x       y       z     vdW  Elec       q    Type
REMARK                         _______ _______ _______ _____ _____    ______ ____
ROOT
ATOM      1  N   UNL     1       3.185  -4.560  -6.641  0.00  0.00    -0.293 N 
ATOM      2  C   UNL     1       3.383  -4.801  -7.953  0.00  0.00    +0.300 C 
ATOM      3  O   UNL     1       4.111  -4.074  -8.601  0.00  0.00    -0.253 OA
ATOM      4  N   UNL     1       2.775  -5.847  -8.545  0.00  0.00    -0.292 N 
ATOM      5  H   UNL     1       2.604  -5.140  -6.124  0.00  0.00    +0.151 HD
ATOM      6  H   UNL     1       2.194  -6.427  -8.028  0.00  0.00    +0.151 HD
ENDROOT
BRANCH   1   7
ATOM      7  C   UNL     1       3.847  -3.423  -5.997  0.00  0.00    +0.102 C 
ATOM      8  C   UNL     1       5.254  -3.833  -5.559  0.00  0.00    +0.033 C 
BRANCH   7  12
ATOM      9  C   UNL     1       1.587  -2.209  -2.579  0.00  0.00    +0.033 A 
ATOM     10  C   UNL     1       2.161  -1.255  -3.408  0.00  0.00    +0.023 A 
ATOM     11  C   UNL     1       2.891  -1.650  -4.511  0.00  0.00    +0.007 A 
ATOM     12  C   UNL     1       3.050  -2.995  -4.792  0.00  0.00    -0.027 A 
ATOM     13  C   UNL     1       2.478  -3.948  -3.969  0.00  0.00    +0.007 A 
ATOM     14  C   UNL     1       1.753  -3.559  -2.860  0.00  0.00    +0.023 A 
BRANCH   9  17
ATOM     15  C   UNL     1       0.888  -2.545  -0.330  0.00  0.00    +0.217 C 
ATOM     16  O   UNL     1       1.498  -3.593  -0.308  0.00  0.00    -0.275 OA
ATOM     17  N   UNL     1       0.847  -1.812  -1.460  0.00  0.00    -0.286 N 
ATOM     18  H   UNL     1       0.304  -1.009  -1.497  0.00  0.00    +0.155 HD
BRANCH  15  20
ATOM     19  C   UNL     1       0.379  -3.073   2.039  0.00  0.00    +0.013 C 
ATOM     20  C   UNL     1       0.175  -2.063   0.908  0.00  0.00    +0.093 C 
ENDBRANCH  15  20
ENDBRANCH   9  17
ENDBRANCH   7  12
ENDBRANCH   1   7
BRANCH   4  21
ATOM     21  C   UNL     1       2.990  -6.109  -9.971  0.00  0.00    +0.182 C 
BRANCH  21  22
ATOM     22  C   UNL     1       2.203  -7.325 -10.383  0.00  0.00    +0.151 A 
ATOM     23  N   UNL     1       2.617  -8.562 -10.353  0.00  0.00    -0.133 NA
ATOM     24  N   UNL     1       1.686  -9.341 -10.775  0.00  0.00    -0.134 NA
ATOM     25  C   UNL     1       0.634  -8.635 -11.096  0.00  0.00    +0.134 A 
ATOM     26  N   UNL     1       0.929  -7.339 -10.848  0.00  0.00    -0.313 N 
ATOM     27  C   UNL     1      -0.207  -6.467 -11.169  0.00  0.00    +0.125 C 
ATOM     28  C   UNL     1      -1.140  -7.313 -12.063  0.00  0.00    +0.029 C 
ATOM     29  C   UNL     1      -0.775  -8.750 -11.635  0.00  0.00    +0.078 C 
ENDBRANCH  21  22
ENDBRANCH   4  21
TORSDOF 6
