REMARK  Name = ZINC15223130
REMARK  8 active torsions:
REMARK  status: ('A' for Active; 'I' for Inactive)
REMARK    1  A    between atoms: C_1  and  C_2
REMARK    2  A    between atoms: C_5  and  S_8
REMARK    3  A    between atoms: S_8  and  O_11
REMARK    4  A    between atoms: O_11  and  C_12
REMARK    5  A    between atoms: C_15  and  C_18
REMARK    6  A    between atoms: N_19  and  N_20
REMARK    7  A    between atoms: N_20  and  C_21
REMARK    8  A    between atoms: C_21  and  N_23
REMARK                            x       y       z     vdW  Elec       q    Type
REMARK                         _______ _______ _______ _____ _____    ______ ____
ROOT
ATOM      1  C   UNL     1      -1.235   3.138   0.031  0.00  0.00    +0.157 A 
ATOM      2  C   UNL     1      -1.215   1.750   0.017  0.00  0.00    +0.049 A 
ATOM      3  C   UNL     1      -0.013   1.076   0.008  0.00  0.00    +0.013 A 
ATOM      4  C   UNL     1       1.187   1.792   0.000  0.00  0.00    -0.005 A 
ATOM      5  C   UNL     1       1.162   3.189   0.008  0.00  0.00    +0.013 A 
ATOM      6  C   UNL     1      -0.045   3.854   0.023  0.00  0.00    +0.049 A 
ENDROOT
BRANCH   4   7
ATOM      7  C   UNL     1       2.476   1.076  -0.015  0.00  0.00    +0.138 C 
ATOM      8  N   UNL     1       3.589   1.743  -0.022  0.00  0.00    -0.188 NA
BRANCH   8   9
ATOM      9  N   UNL     1       4.814   1.062  -0.037  0.00  0.00    -0.219 N 
ATOM     10  H   UNL     1       4.829   0.092  -0.042  0.00  0.00    +0.176 HD
BRANCH   9  11
ATOM     11  C   UNL     1       5.970   1.755  -0.045  0.00  0.00    +0.147 C 
ATOM     12  S   UNL     1       7.466   0.923  -0.063  0.00  0.00    -0.017 S 
BRANCH  11  13
ATOM     13  N   UNL     1       5.948   3.102  -0.038  0.00  0.00    -0.339 N 
ATOM     14  H   UNL     1       5.100   3.574  -0.027  0.00  0.00    +0.144 HD
ATOM     15  H   UNL     1       6.780   3.601  -0.043  0.00  0.00    +0.144 HD
ENDBRANCH  11  13
ENDBRANCH   9  11
ENDBRANCH   8   9
ENDBRANCH   4   7
BRANCH   1  16
ATOM     16  O   UNL     1      -2.422   3.798   0.046  0.00  0.00    -0.342 OA
BRANCH  16  17
ATOM     17  S   UNL     1      -2.976   4.107  -1.338  0.00  0.00    +0.151 S 
ATOM     18  O   UNL     1      -4.091   4.966  -1.146  0.00  0.00    -0.131 OA
ATOM     19  O   UNL     1      -1.867   4.467  -2.149  0.00  0.00    -0.131 OA
BRANCH  17  24
ATOM     20  C   UNL     1      -5.146  -1.057  -3.582  0.00  0.00    +0.044 C 
ATOM     21  C   UNL     1      -4.604   0.233  -3.022  0.00  0.00    -0.050 A 
ATOM     22  C   UNL     1      -5.425   1.064  -2.282  0.00  0.00    +0.005 A 
ATOM     23  C   UNL     1      -4.928   2.247  -1.768  0.00  0.00    +0.031 A 
ATOM     24  C   UNL     1      -3.610   2.599  -1.993  0.00  0.00    +0.128 A 
ATOM     25  C   UNL     1      -2.791   1.770  -2.737  0.00  0.00    +0.031 A 
ATOM     26  C   UNL     1      -3.287   0.585  -3.247  0.00  0.00    +0.005 A 
ENDBRANCH  17  24
ENDBRANCH  16  17
ENDBRANCH   1  16
TORSDOF 7
