REMARK  Name = ZINC13248983
REMARK  9 active torsions:
REMARK  status: ('A' for Active; 'I' for Inactive)
REMARK    1  A    between atoms: C_1  and  C_2
REMARK    2  A    between atoms: C_5  and  N_9
REMARK    3  A    between atoms: C_6  and  C_8
REMARK    4  A    between atoms: N_9  and  S_10
REMARK    5  A    between atoms: S_10  and  C_13
REMARK    6  A    between atoms: C_15  and  N_20
REMARK    7  A    between atoms: C_21  and  C_23
REMARK    8  A    between atoms: C_23  and  C_24
REMARK    9  A    between atoms: C_24  and  C_30
REMARK                            x       y       z     vdW  Elec       q    Type
REMARK                         _______ _______ _______ _____ _____    ______ ____
ROOT
ATOM      1  C   UNL     1       2.278   0.360  -2.689  0.00  0.00    +0.128 A 
ATOM      2  C   UNL     1       3.302   0.088  -3.576  0.00  0.00    +0.053 A 
ATOM      3  C   UNL     1       3.130   0.338  -4.931  0.00  0.00    +0.035 A 
ATOM      4  C   UNL     1       1.929   0.862  -5.391  0.00  0.00    +0.025 A 
ATOM      5  C   UNL     1       0.909   1.133  -4.500  0.00  0.00    +0.024 A 
ATOM      6  C   UNL     1       1.081   0.877  -3.151  0.00  0.00    +0.068 A 
ATOM      7 CL   UNL     1      -0.206   1.212  -2.035  0.00  0.00    -0.082 Cl
ENDROOT
BRANCH   3   8
ATOM      8  N   UNL     1       4.166   0.063  -5.831  0.00  0.00    -0.285 N 
ATOM      9  C   UNL     1       5.005  -0.966  -5.599  0.00  0.00    +0.218 C 
ATOM     10  O   UNL     1       4.805  -1.713  -4.665  0.00  0.00    -0.275 OA
ATOM     11  H   UNL     1       4.280   0.613  -6.622  0.00  0.00    +0.155 HD
BRANCH   9  12
ATOM     12  C   UNL     1       6.193  -1.187  -6.500  0.00  0.00    +0.114 C 
BRANCH  12  13
ATOM     13  C   UNL     1       6.900  -2.484  -6.102  0.00  0.00    +0.080 C 
ATOM     14  C   UNL     1       8.148  -2.671  -6.967  0.00  0.00    +0.019 C 
ATOM     15  C   UNL     1       7.741  -2.743  -8.440  0.00  0.00    +0.001 C 
ATOM     16  C   UNL     1       6.793  -3.925  -8.651  0.00  0.00    +0.000 C 
ATOM     17  C   UNL     1       5.545  -3.738  -7.785  0.00  0.00    +0.001 C 
ATOM     18  C   UNL     1       5.952  -3.667  -6.312  0.00  0.00    +0.019 C 
BRANCH  13  19
ATOM     19  C   UNL     1       7.301  -2.413  -4.651  0.00  0.00    +0.362 C 
ATOM     20  O   UNL     1       6.958  -3.284  -3.886  0.00  0.00    -0.246 OA
ATOM     21  O   UNL     1       8.039  -1.383  -4.208  0.00  0.00    -0.246 OA
ENDBRANCH  13  19
ENDBRANCH  12  13
ENDBRANCH   9  12
ENDBRANCH   3   8
BRANCH   1  22
ATOM     22  S   UNL     1       2.495   0.043  -0.970  0.00  0.00    +0.074 S 
ATOM     23  O   UNL     1       3.832  -0.411  -0.806  0.00  0.00    -0.150 OA
ATOM     24  O   UNL     1       1.374  -0.725  -0.554  0.00  0.00    -0.150 OA
BRANCH  22  25
ATOM     25  N   UNL     1       2.389   1.498  -0.186  0.00  0.00    -0.216 N 
ATOM     26  H   UNL     1       1.633   1.683   0.392  0.00  0.00    +0.174 HD
BRANCH  25  31
ATOM     27  C   UNL     1       6.449   5.396  -0.881  0.00  0.00    +0.044 C 
ATOM     28  C   UNL     1       5.370   4.360  -0.696  0.00  0.00    -0.050 A 
ATOM     29  C   UNL     1       5.005   3.547  -1.754  0.00  0.00    +0.005 A 
ATOM     30  C   UNL     1       4.013   2.600  -1.590  0.00  0.00    +0.025 A 
ATOM     31  C   UNL     1       3.389   2.457  -0.357  0.00  0.00    +0.051 A 
ATOM     32  C   UNL     1       3.762   3.272   0.705  0.00  0.00    -0.028 A 
ATOM     33  C   UNL     1       4.751   4.220   0.532  0.00  0.00    +0.008 A 
ATOM     34  C   UNL     1       3.087   3.120   2.044  0.00  0.00    +0.046 C 
ENDBRANCH  25  31
ENDBRANCH  22  25
ENDBRANCH   1  22
TORSDOF 7
