REMARK  Name = ZINC64198978
REMARK  9 active torsions:
REMARK  status: ('A' for Active; 'I' for Inactive)
REMARK    1  A    between atoms: C_1  and  C_2
REMARK    2  A    between atoms: C_2  and  C_4
REMARK    3  A    between atoms: C_2  and  O_34
REMARK    4  A    between atoms: C_7  and  C_21
REMARK    5  A    between atoms: N_23  and  C_24
REMARK    6  A    between atoms: C_26  and  O_32
REMARK    7  A    between atoms: C_29  and  O_30
REMARK    8  A    between atoms: O_30  and  C_31
REMARK    9  A    between atoms: O_32  and  C_33
REMARK                            x       y       z     vdW  Elec       q    Type
REMARK                         _______ _______ _______ _____ _____    ______ ____
ROOT
ATOM      1  C   UNL     1       1.034  -0.726   1.027  0.00  0.00    +0.084 C 
ATOM      2  C   UNL     1       1.007  -2.273   1.105  0.00  0.00    +0.036 C 
ATOM      3  C   UNL     1       1.113  -2.545   2.626  0.00  0.00    +0.110 C 
ATOM      4  C   UNL     1       0.635  -1.249   3.291  0.00  0.00    +0.135 C 
ATOM      5  N   UNL     1       0.259  -0.304   2.224  0.00  0.00    -0.294 NA
ATOM      6  C   UNL     1      -0.520  -1.511   4.219  0.00  0.00    +0.005 A 
ATOM      7  C   UNL     1      -1.782  -2.031   4.035  0.00  0.00    +0.027 A 
ATOM      8  C   UNL     1      -2.644  -2.153   5.111  0.00  0.00    +0.041 A 
ATOM      9  C   UNL     1      -2.235  -1.750   6.370  0.00  0.00    +0.022 A 
ATOM     10  C   UNL     1      -0.972  -1.228   6.558  0.00  0.00    +0.025 A 
ATOM     11  C   UNL     1      -0.098  -1.103   5.480  0.00  0.00    +0.039 A 
ATOM     12  N   UNL     1       1.209  -0.615   5.418  0.00  0.00    -0.283 N 
ATOM     13  C   UNL     1       1.711  -0.666   4.170  0.00  0.00    +0.243 C 
ATOM     14  O   UNL     1       2.817  -0.311   3.820  0.00  0.00    -0.273 OA
ATOM     15 CL   UNL     1      -4.235  -2.809   4.881  0.00  0.00    -0.084 Cl
ATOM     16  H   UNL     1       0.482   0.645   2.483  0.00  0.00    +0.124 HD
ATOM     17  H   UNL     1       1.698  -0.278   6.184  0.00  0.00    +0.155 HD
ENDROOT
BRANCH   3  18
ATOM     18  C   UNL     1       0.223  -3.697   3.016  0.00  0.00    +0.223 C 
ATOM     19  O   UNL     1      -0.723  -3.996   2.317  0.00  0.00    -0.275 OA
ATOM     20  N   UNL     1       0.477  -4.394   4.141  0.00  0.00    -0.282 N 
ATOM     21  H   UNL     1       1.182  -4.105   4.741  0.00  0.00    +0.155 HD
BRANCH  20  22
ATOM     22  C   UNL     1      -0.278  -5.535   4.443  0.00  0.00    +0.079 A 
ATOM     23  C   UNL     1      -0.983  -6.187   3.442  0.00  0.00    +0.072 A 
ATOM     24  C   UNL     1      -1.728  -7.316   3.744  0.00  0.00    +0.122 A 
ATOM     25  C   UNL     1      -1.769  -7.794   5.046  0.00  0.00    +0.049 A 
ATOM     26  C   UNL     1      -1.068  -7.146   6.045  0.00  0.00    +0.051 A 
ATOM     27  C   UNL     1      -0.316  -6.021   5.748  0.00  0.00    +0.141 A 
BRANCH  27  28
ATOM     28  O   UNL     1       0.379  -5.387   6.731  0.00  0.00    -0.493 OA
ATOM     29  C   UNL     1       0.294  -5.940   8.046  0.00  0.00    +0.277 C 
ENDBRANCH  27  28
BRANCH  24  30
ATOM     30  O   UNL     1      -2.420  -7.955   2.764  0.00  0.00    -0.495 OA
ATOM     31  C   UNL     1      -3.167  -9.112   3.146  0.00  0.00    +0.277 C 
ENDBRANCH  24  30
ENDBRANCH  20  22
ENDBRANCH   3  18
BRANCH   1  33
ATOM     32  C   UNL     1       0.345   1.291  -0.278  0.00  0.00    +0.039 C 
ATOM     33  C   UNL     1       0.354  -0.239  -0.255  0.00  0.00    +0.128 C 
BRANCH  33  34
ATOM     34  O   UNL     1       1.071  -0.728  -1.390  0.00  0.00    -0.391 OA
ATOM     35  H   UNL     1       1.992  -0.438  -1.428  0.00  0.00    +0.210 HD
ENDBRANCH  33  34
ENDBRANCH   1  33
TORSDOF 6
