REMARK  Name = ZINC02963811
REMARK  10 active torsions:
REMARK  status: ('A' for Active; 'I' for Inactive)
REMARK    1  A    between atoms: C_1  and  C_2
REMARK    2  A    between atoms: C_2  and  O_3
REMARK    3  A    between atoms: O_3  and  C_4
REMARK    4  A    between atoms: N_6  and  C_7
REMARK    5  A    between atoms: C_22  and  C_24
REMARK    6  A    between atoms: C_24  and  C_25
REMARK    7  A    between atoms: C_25  and  N_55
REMARK    8  A    between atoms: C_26  and  C_27
REMARK    9  A    between atoms: C_26  and  N_55
REMARK   10  A    between atoms: C_27  and  O_28
REMARK                            x       y       z     vdW  Elec       q    Type
REMARK                         _______ _______ _______ _____ _____    ______ ____
ROOT
ATOM      1  C   UNL     1       1.175   3.150   0.017  0.00  0.00    +0.038 A 
ATOM      2  C   UNL     1       1.180   1.769   0.176  0.00  0.00    +0.024 A 
ATOM      3  C   UNL     1      -0.008   1.079   0.187  0.00  0.00    +0.007 A 
ATOM      4  C   UNL     1      -1.236   1.730   0.033  0.00  0.00    -0.025 A 
ATOM      5  C   UNL     1      -1.240   3.102  -0.096  0.00  0.00    +0.046 A 
ATOM      6  C   UNL     1      -0.034   3.808  -0.114  0.00  0.00    +0.047 A 
ATOM      7  N   UNL     1      -2.397   3.871  -0.201  0.00  0.00    -0.240 N 
ATOM      8  C   UNL     1      -3.517   3.683   0.608  0.00  0.00    +0.044 A 
ATOM      9  C   UNL     1      -3.925   4.651   1.514  0.00  0.00    +0.024 A 
ATOM     10  C   UNL     1      -5.057   4.425   2.277  0.00  0.00    +0.002 A 
ATOM     11  C   UNL     1      -5.765   3.246   2.130  0.00  0.00    +0.000 A 
ATOM     12  C   UNL     1      -5.345   2.283   1.230  0.00  0.00    +0.005 A 
ATOM     13  C   UNL     1      -4.205   2.506   0.474  0.00  0.00    -0.025 A 
ATOM     14  C   UNL     1      -3.708   1.451  -0.468  0.00  0.00    +0.042 C 
ATOM     15  C   UNL     1      -2.430   0.810   0.012  0.00  0.00    +0.042 C 
ATOM     16  C   UNL     1      -2.435   4.846  -1.131  0.00  0.00    +0.222 C 
ATOM     17  O   UNL     1      -1.477   5.036  -1.850  0.00  0.00    -0.275 OA
ENDROOT
BRANCH   1  20
ATOM     18  C   UNL     1       3.485   3.302  -0.530  0.00  0.00    +0.405 C 
ATOM     19  O   UNL     1       3.419   2.212  -1.065  0.00  0.00    -0.226 OA
ATOM     20  N   UNL     1       2.377   3.865  -0.009  0.00  0.00    -0.251 N 
ATOM     21  H   UNL     1       2.414   4.766   0.349  0.00  0.00    +0.158 HD
BRANCH  18  22
ATOM     22  O   UNL     1       4.665   3.946  -0.460  0.00  0.00    -0.450 OA
BRANCH  22  24
ATOM     23  C   UNL     1       7.057   4.157  -0.867  0.00  0.00    +0.048 C 
ATOM     24  C   UNL     1       5.816   3.279  -1.042  0.00  0.00    +0.230 C 
ENDBRANCH  22  24
ENDBRANCH  18  22
ENDBRANCH   1  20
BRANCH  16  25
ATOM     25  C   UNL     1      -3.668   5.700  -1.276  0.00  0.00    +0.078 C 
BRANCH  25  26
ATOM     26  C   UNL     1      -3.451   6.722  -2.394  0.00  0.00    -0.073 C 
BRANCH  26  27
ATOM     27  N   UNL     1      -4.661   7.554  -2.530  0.00  0.00    +0.381 N 
ATOM     28  H   UNL     1      -4.840   8.040  -1.643  0.00  0.00    -0.086 HD
ATOM     29  H   UNL     1      -5.462   6.953  -2.757  0.00  0.00    -0.086 HD
BRANCH  27  30
ATOM     30  C   UNL     1      -4.481   8.550  -3.602  0.00  0.00    -0.054 C 
BRANCH  30  31
ATOM     31  C   UNL     1      -5.750   9.397  -3.720  0.00  0.00    +0.137 C 
BRANCH  31  32
ATOM     32  O   UNL     1      -5.929  10.154  -2.521  0.00  0.00    -0.397 OA
ATOM     33  H   UNL     1      -6.717  10.716  -2.525  0.00  0.00    +0.209 HD
ENDBRANCH  31  32
ENDBRANCH  30  31
ENDBRANCH  27  30
ENDBRANCH  26  27
ENDBRANCH  25  26
ENDBRANCH  16  25
TORSDOF 9
