REMARK  Name = ZINC16958161
REMARK  7 active torsions:
REMARK  status: ('A' for Active; 'I' for Inactive)
REMARK    1  A    between atoms: C_1  and  C_2
REMARK    2  A    between atoms: C_2  and  C_13
REMARK    3  A    between atoms: N_3  and  N_4
REMARK    4  A    between atoms: C_5  and  C_7
REMARK    5  A    between atoms: C_16  and  N_19
REMARK    6  A    between atoms: C_20  and  C_22
REMARK    7  A    between atoms: N_24  and  N_25
REMARK                            x       y       z     vdW  Elec       q    Type
REMARK                         _______ _______ _______ _____ _____    ______ ____
ROOT
ATOM      1  N   UNL     1      -0.005  -2.798  -4.898  0.00  0.00    -0.278 N 
ATOM      2  C   UNL     1       0.474  -2.208  -6.011  0.00  0.00    +0.305 C 
ATOM      3  O   UNL     1       0.990  -1.111  -5.942  0.00  0.00    -0.265 OA
ATOM      4  H   UNL     1      -0.348  -3.704  -4.939  0.00  0.00    +0.155 HD
ENDROOT
BRANCH   1   8
ATOM      5  C   UNL     1      -0.016  -0.728  -1.282  0.00  0.00    -0.002 A 
ATOM      6  C   UNL     1      -0.211  -0.040  -2.483  0.00  0.00    +0.011 A 
ATOM      7  C   UNL     1      -0.206  -0.728  -3.676  0.00  0.00    +0.024 A 
ATOM      8  C   UNL     1      -0.009  -2.105  -3.687  0.00  0.00    +0.034 A 
ATOM      9  C   UNL     1       0.185  -2.792  -2.494  0.00  0.00    +0.024 A 
ATOM     10  C   UNL     1       0.188  -2.111  -1.297  0.00  0.00    +0.011 A 
BRANCH   5  12
ATOM     11  C   UNL     1      -0.239   1.495   0.011  0.00  0.00    +0.068 C 
ATOM     12  C   UNL     1      -0.020   0.004  -0.003  0.00  0.00    +0.063 C 
ATOM     13  N   UNL     1       0.167  -0.635   1.112  0.00  0.00    -0.184 NA
BRANCH  13  14
ATOM     14  N   UNL     1       0.164   0.061   2.328  0.00  0.00    -0.203 N 
ATOM     15  C   UNL     1       0.357  -0.603   3.485  0.00  0.00    +0.263 C 
ATOM     16  O   UNL     1       0.534  -1.805   3.473  0.00  0.00    -0.268 OA
ATOM     17  H   UNL     1       0.022   1.020   2.337  0.00  0.00    +0.178 HD
BRANCH  15  18
ATOM     18  C   UNL     1       0.353   0.133   4.770  0.00  0.00    +0.041 A 
ATOM     19  C   UNL     1       0.145   1.515   4.806  0.00  0.00    +0.033 A 
ATOM     20  C   UNL     1       0.150   2.162   6.027  0.00  0.00    +0.111 A 
ATOM     21  N   UNL     1       0.347   1.493   7.146  0.00  0.00    -0.263 NA
ATOM     22  C   UNL     1       0.547   0.190   7.156  0.00  0.00    +0.111 A 
ATOM     23  C   UNL     1       0.552  -0.536   5.982  0.00  0.00    +0.033 A 
ENDBRANCH  15  18
ENDBRANCH  13  14
ENDBRANCH   5  12
ENDBRANCH   1   8
BRANCH   2  24
ATOM     24  C   UNL     1       0.370  -2.903  -7.329  0.00  0.00    +0.317 C 
ATOM     25  O   UNL     1      -0.146  -3.999  -7.397  0.00  0.00    -0.263 OA
ATOM     26  N   UNL     1       0.850  -2.313  -8.441  0.00  0.00    -0.210 N 
ATOM     27  H   UNL     1       1.262  -1.437  -8.386  0.00  0.00    +0.176 HD
BRANCH  26  28
ATOM     28  N   UNL     1       0.752  -2.965  -9.678  0.00  0.00    -0.198 N 
ATOM     29  C   UNL     1       1.853  -3.532 -10.221  0.00  0.00    +0.280 A 
ATOM     30  O   UNL     1       3.039  -3.477  -9.590  0.00  0.00    -0.265 OA
ATOM     31  C   UNL     1       1.724  -4.181 -11.464  0.00  0.00    +0.066 A 
ATOM     32  C   UNL     1       2.817  -4.794 -12.094  0.00  0.00    +0.015 A 
ATOM     33  C   UNL     1       2.639  -5.410 -13.298  0.00  0.00    +0.001 A 
ATOM     34  C   UNL     1       1.388  -5.438 -13.910  0.00  0.00    +0.002 A 
ATOM     35  C   UNL     1       0.305  -4.851 -13.324  0.00  0.00    +0.028 A 
ATOM     36  C   UNL     1       0.448  -4.210 -12.087  0.00  0.00    +0.079 A 
ATOM     37  N   UNL     1      -0.590  -3.621 -11.476  0.00  0.00    -0.221 NA
ATOM     38  C   UNL     1      -0.435  -3.024 -10.304  0.00  0.00    +0.201 A 
ATOM     39  S   UNL     1      -1.795  -2.294  -9.563  0.00  0.00    -0.009 S 
ENDBRANCH  26  28
ENDBRANCH   2  24
TORSDOF 6
