REMARK  Name = ZINC66765514
REMARK  4 active torsions:
REMARK  status: ('A' for Active; 'I' for Inactive)
REMARK    1  A    between atoms: C_4  and  C_7
REMARK    2  A    between atoms: C_15  and  C_17
REMARK    3  A    between atoms: C_20  and  N_26
REMARK    4  A    between atoms: C_21  and  N_23
REMARK                            x       y       z     vdW  Elec       q    Type
REMARK                         _______ _______ _______ _____ _____    ______ ____
ROOT
ATOM      1  C   UNL     1       2.869  -0.977  -0.035  0.00  0.00    +0.021 C 
ATOM      2  C   UNL     1       2.974  -1.835   1.222  0.00  0.00    +0.010 C 
ATOM      3  C   UNL     1       4.399  -1.825   1.717  0.00  0.00    +0.020 C 
ATOM      4  C   UNL     1       5.177  -3.008   1.112  0.00  0.00    +0.108 C 
ATOM      5  N   UNL     1       4.841  -3.227  -0.309  0.00  0.00    -0.298 N 
ATOM      6  C   UNL     1       4.689  -2.141  -1.251  0.00  0.00    +0.108 C 
ATOM      7  C   UNL     1       3.208  -1.685  -1.279  0.00  0.00    +0.027 C 
ATOM      8  C   UNL     1       4.671  -4.490  -0.746  0.00  0.00    +0.247 C 
ATOM      9  O   UNL     1       4.305  -4.695  -1.887  0.00  0.00    -0.270 OA
ENDROOT
BRANCH   1  13
ATOM     10  C   UNL     1      -1.134   0.480  -0.356  0.00  0.00    +0.000 A 
ATOM     11  C   UNL     1      -0.085   1.368  -0.210  0.00  0.00    +0.000 A 
ATOM     12  C   UNL     1       1.211   0.896  -0.106  0.00  0.00    +0.004 A 
ATOM     13  C   UNL     1       1.457  -0.463  -0.148  0.00  0.00    -0.044 A 
ATOM     14  C   UNL     1       0.407  -1.351  -0.293  0.00  0.00    +0.004 A 
ATOM     15  C   UNL     1      -0.888  -0.880  -0.399  0.00  0.00    +0.000 A 
ENDBRANCH   1  13
BRANCH   8  16
ATOM     16  C   UNL     1       4.929  -5.625   0.161  0.00  0.00    +0.039 A 
ATOM     17  C   UNL     1       4.161  -6.790   0.061  0.00  0.00    +0.015 A 
ATOM     18  C   UNL     1       4.404  -7.846   0.908  0.00  0.00    +0.026 A 
ATOM     19  C   UNL     1       5.413  -7.757   1.864  0.00  0.00    +0.055 A 
ATOM     20  C   UNL     1       6.178  -6.599   1.966  0.00  0.00    +0.147 A 
ATOM     21  C   UNL     1       5.944  -5.541   1.118  0.00  0.00    +0.047 A 
BRANCH  20  22
ATOM     22  N   UNL     1       7.249  -6.508   2.984  0.00  0.00    +0.058 N 
ATOM     23  O   UNL     1       7.083  -6.990   4.080  0.00  0.00    -0.126 OA
ATOM     24  O   UNL     1       8.289  -5.951   2.719  0.00  0.00    -0.126 OA
ENDBRANCH  20  22
BRANCH  19  25
ATOM     25  N   UNL     1       5.656  -8.827   2.718  0.00  0.00    -0.356 N 
ATOM     26  H   UNL     1       5.167  -9.657   2.606  0.00  0.00    +0.142 HD
ATOM     27  H   UNL     1       6.314  -8.743   3.426  0.00  0.00    +0.142 HD
ENDBRANCH  19  25
ENDBRANCH   8  16
TORSDOF 4
