REMARK  Name = ZINC36797433
REMARK  10 active torsions:
REMARK  status: ('A' for Active; 'I' for Inactive)
REMARK    1  A    between atoms: C_1  and  C_2
REMARK    2  A    between atoms: C_2  and  N_3
REMARK    3  A    between atoms: N_3  and  C_4
REMARK    4  A    between atoms: N_3  and  C_9
REMARK    5  A    between atoms: C_4  and  C_5
REMARK    6  A    between atoms: N_7  and  C_8
REMARK    7  A    between atoms: C_9  and  C_11
REMARK    8  A    between atoms: C_9  and  C_12
REMARK    9  A    between atoms: N_14  and  C_15
REMARK   10  A    between atoms: C_17  and  N_22
REMARK                            x       y       z     vdW  Elec       q    Type
REMARK                         _______ _______ _______ _____ _____    ______ ____
ROOT
ATOM      1  C   UNL     1      -0.199   1.472   2.168  0.00  0.00    +0.203 C 
ATOM      2  O   UNL     1       0.226   2.083   1.211  0.00  0.00    -0.277 OA
ATOM      3  N   UNL     1      -0.870   2.123   3.139  0.00  0.00    -0.284 N 
ATOM      4  H   UNL     1      -1.147   1.650   3.939  0.00  0.00    +0.155 HD
ENDROOT
BRANCH   3   5
ATOM      5  C   UNL     1      -1.167   3.484   2.993  0.00  0.00    +0.071 A 
ATOM      6  C   UNL     1      -1.435   4.005   1.736  0.00  0.00    +0.049 A 
ATOM      7  C   UNL     1      -1.729   5.354   1.595  0.00  0.00    +0.026 A 
ATOM      8  C   UNL     1      -1.756   6.179   2.712  0.00  0.00    +0.025 A 
ATOM      9  C   UNL     1      -1.490   5.658   3.964  0.00  0.00    +0.042 A 
ATOM     10  C   UNL     1      -1.201   4.313   4.109  0.00  0.00    +0.145 A 
ATOM     11  F   UNL     1      -0.947   3.805   5.335  0.00  0.00    -0.204 F 
BRANCH   7  12
ATOM     12  N   UNL     1      -1.998   5.882   0.328  0.00  0.00    -0.358 N 
ATOM     13  H   UNL     1      -1.979   5.306  -0.452  0.00  0.00    +0.142 HD
ATOM     14  H   UNL     1      -2.204   6.825   0.230  0.00  0.00    +0.142 HD
ENDBRANCH   7  12
ENDBRANCH   3   5
BRANCH   1  15
ATOM     15  C   UNL     1       0.022  -0.015   2.273  0.00  0.00    +0.017 C 
ATOM     16  C   UNL     1       0.927  -0.313   3.469  0.00  0.00    -0.004 C 
BRANCH  15  17
ATOM     17  N   UNL     1       0.659  -0.503   1.042  0.00  0.00    +0.393 N 
ATOM     18  H   UNL     1       0.121  -0.203   0.243  0.00  0.00    -0.080 HD
BRANCH  17  20
ATOM     19  C   UNL     1      -0.701  -2.539   1.035  0.00  0.00    -0.017 C 
ATOM     20  C   UNL     1       0.719  -1.970   1.071  0.00  0.00    -0.081 C 
ENDBRANCH  17  20
BRANCH  17  21
ATOM     21  C   UNL     1       2.020   0.041   0.947  0.00  0.00    +0.020 C 
BRANCH  21  22
ATOM     22  C   UNL     1       2.630  -0.358  -0.372  0.00  0.00    +0.196 C 
ATOM     23  O   UNL     1       1.993  -1.030  -1.155  0.00  0.00    -0.278 OA
ATOM     24  N   UNL     1       3.883   0.031  -0.680  0.00  0.00    -0.320 N 
ATOM     25  C   UNL     1       4.475  -0.357  -1.963  0.00  0.00    +0.128 C 
ATOM     26  H   UNL     1       4.392   0.568  -0.054  0.00  0.00    +0.148 HD
ENDBRANCH  21  22
ENDBRANCH  17  21
ENDBRANCH  15  17
ENDBRANCH   1  15
TORSDOF 7
