REMARK  Name = ZINC49147401
REMARK  6 active torsions:
REMARK  status: ('A' for Active; 'I' for Inactive)
REMARK    1  A    between atoms: C_1  and  C_2
REMARK    2  A    between atoms: C_2  and  C_4
REMARK    3  A    between atoms: C_2  and  N_10
REMARK    4  A    between atoms: N_10  and  S_11
REMARK    5  A    between atoms: S_11  and  C_14
REMARK    6  A    between atoms: N_20  and  N_21
REMARK                            x       y       z     vdW  Elec       q    Type
REMARK                         _______ _______ _______ _____ _____    ______ ____
ROOT
ATOM      1  S   UNL     1       2.322  -0.861   1.097  0.00  0.00    +0.059 S 
ATOM      2  O   UNL     1       2.719  -1.271   2.398  0.00  0.00    -0.153 OA
ATOM      3  O   UNL     1       2.483  -1.690  -0.045  0.00  0.00    -0.153 OA
ENDROOT
BRANCH   1   4
ATOM      4  C   UNL     1       3.183   0.638   0.757  0.00  0.00    +0.110 A 
ATOM      5  C   UNL     1       3.413   1.044  -0.552  0.00  0.00    +0.048 A 
ATOM      6  C   UNL     1       4.090   2.223  -0.785  0.00  0.00    +0.115 A 
ATOM      7  N   UNL     1       4.521   2.966   0.217  0.00  0.00    -0.239 NA
ATOM      8  C   UNL     1       4.322   2.613   1.478  0.00  0.00    +0.134 A 
ATOM      9  C   UNL     1       3.642   1.440   1.786  0.00  0.00    +0.073 A 
ATOM     10  N   UNL     1       4.793   3.426   2.503  0.00  0.00    -0.267 N 
ATOM     11  H   UNL     1       4.650   3.172   3.428  0.00  0.00    +0.167 HD
BRANCH  10  12
ATOM     12  N   UNL     1       5.457   4.582   2.207  0.00  0.00    -0.255 NA
ATOM     13  H   UNL     1       5.737   5.064   3.049  0.00  0.00    +0.140 HD
ATOM     14  H   UNL     1       6.252   4.401   1.613  0.00  0.00    +0.140 HD
ENDBRANCH  10  12
ENDBRANCH   1   4
BRANCH   1  15
ATOM     15  N   UNL     1       0.711  -0.489   1.189  0.00  0.00    -0.182 NA
ATOM     16  H   UNL     1       0.236  -0.593   2.029  0.00  0.00    +0.149 HD
BRANCH  15  18
ATOM     17  C   UNL     1      -0.019   1.526   0.010  0.00  0.00    +0.031 C 
ATOM     18  C   UNL     1       0.002  -0.004   0.002  0.00  0.00    +0.110 C 
BRANCH  18  19
ATOM     19  C   UNL     1      -1.412  -0.526   0.013  0.00  0.00    +0.009 A 
ATOM     20  C   UNL     1      -2.157  -0.992  -1.019  0.00  0.00    +0.014 A 
ATOM     21  C   UNL     1      -3.447  -1.424  -0.772  0.00  0.00    +0.028 A 
ATOM     22  C   UNL     1      -3.928  -1.369   0.495  0.00  0.00    +0.078 A 
ATOM     23  S   UNL     1      -2.536  -0.697   1.389  0.00  0.00    -0.080 S 
ATOM     24 CL   UNL     1      -5.489  -1.836   1.093  0.00  0.00    -0.076 Cl
ENDBRANCH  18  19
ENDBRANCH  15  18
ENDBRANCH   1  15
TORSDOF 5
