REMARK  Name = ZINC06122375
REMARK  6 active torsions:
REMARK  status: ('A' for Active; 'I' for Inactive)
REMARK    1  A    between atoms: C_1  and  C_2
REMARK    2  A    between atoms: C_2  and  C_3
REMARK    3  A    between atoms: C_10  and  N_15
REMARK    4  A    between atoms: C_11  and  C_12
REMARK    5  A    between atoms: C_16  and  C_18
REMARK    6  A    between atoms: C_23  and  N_24
REMARK                            x       y       z     vdW  Elec       q    Type
REMARK                         _______ _______ _______ _____ _____    ______ ____
ROOT
ATOM      1  C   UNL     1      -1.480   5.714  -3.428  0.00  0.00    -0.006 C 
ATOM      2  C   UNL     1      -0.618   4.459  -3.588  0.00  0.00    +0.008 C 
ATOM      3  C   UNL     1      -1.071   3.387  -2.595  0.00  0.00    +0.037 C 
ATOM      4  C   UNL     1      -1.104   3.995  -1.198  0.00  0.00    -0.023 A 
ATOM      5  C   UNL     1      -1.136   5.334  -1.023  0.00  0.00    -0.004 A 
ATOM      6  S   UNL     1      -1.159   5.561   0.732  0.00  0.00    -0.077 S 
ATOM      7  C   UNL     1      -1.135   3.901   1.229  0.00  0.00    +0.085 A 
ATOM      8  C   UNL     1      -1.110   3.211   0.025  0.00  0.00    +0.068 A 
ATOM      9  C   UNL     1      -1.144   6.385  -2.091  0.00  0.00    +0.046 C 
ENDROOT
BRANCH   8  10
ATOM     10  C   UNL     1      -1.083   1.746  -0.011  0.00  0.00    +0.244 C 
ATOM     11  O   UNL     1      -2.126   1.118  -0.038  0.00  0.00    -0.270 OA
ATOM     12  N   UNL     1       0.096   1.093  -0.015  0.00  0.00    -0.325 N 
ATOM     13  H   UNL     1       0.114   0.123  -0.039  0.00  0.00    +0.145 HD
ATOM     14  H   UNL     1       0.927   1.593   0.003  0.00  0.00    +0.145 HD
ENDBRANCH   8  10
BRANCH   7  15
ATOM     15  N   UNL     1      -1.141   3.387   2.516  0.00  0.00    -0.275 N 
ATOM     16  C   UNL     1      -1.167   4.221   3.574  0.00  0.00    +0.251 C 
ATOM     17  O   UNL     1      -1.186   5.424   3.400  0.00  0.00    -0.270 OA
ATOM     18  H   UNL     1      -1.126   2.427   2.655  0.00  0.00    +0.156 HD
BRANCH  16  19
ATOM     19  C   UNL     1      -1.174   3.673   4.946  0.00  0.00    +0.067 A 
ATOM     20  C   UNL     1      -0.171   2.790   5.353  0.00  0.00    +0.017 A 
ATOM     21  C   UNL     1      -0.180   2.286   6.636  0.00  0.00    +0.021 A 
ATOM     22  C   UNL     1      -1.186   2.645   7.518  0.00  0.00    +0.043 A 
ATOM     23  C   UNL     1      -2.186   3.516   7.119  0.00  0.00    +0.053 A 
ATOM     24  C   UNL     1      -2.185   4.031   5.839  0.00  0.00    +0.140 A 
ATOM     25 CL   UNL     1      -1.194   2.000   9.130  0.00  0.00    -0.083 Cl
BRANCH  24  26
ATOM     26  N   UNL     1      -3.254   4.963   5.414  0.00  0.00    +0.057 N 
ATOM     27  O   UNL     1      -4.067   5.368   6.226  0.00  0.00    -0.126 OA
ATOM     28  O   UNL     1      -3.321   5.324   4.253  0.00  0.00    -0.126 OA
ENDBRANCH  24  26
ENDBRANCH  16  19
ENDBRANCH   7  15
BRANCH   1  30
ATOM     29  C   UNL     1      -2.146   7.878  -4.486  0.00  0.00    +0.004 C 
ATOM     30  C   UNL     1      -1.196   6.682  -4.579  0.00  0.00    +0.000 C 
ENDBRANCH   1  30
TORSDOF 5
