REMARK  Name = ZINC37506075
REMARK  8 active torsions:
REMARK  status: ('A' for Active; 'I' for Inactive)
REMARK    1  A    between atoms: C_1  and  C_2
REMARK    2  A    between atoms: C_2  and  C_4
REMARK    3  A    between atoms: C_2  and  N_14
REMARK    4  A    between atoms: C_9  and  O_10
REMARK    5  A    between atoms: O_10  and  C_11
REMARK    6  A    between atoms: C_11  and  C_12
REMARK    7  A    between atoms: C_11  and  C_13
REMARK    8  A    between atoms: C_15  and  C_17
REMARK                            x       y       z     vdW  Elec       q    Type
REMARK                         _______ _______ _______ _____ _____    ______ ____
ROOT
ATOM      1  C   UNL     1      -0.029   1.769   0.103  0.00  0.00    +0.033 C 
ATOM      2  C   UNL     1       0.179   0.253   0.110  0.00  0.00    +0.104 C 
ENDROOT
BRANCH   2   3
ATOM      3  C   UNL     1      -1.135  -0.435  -0.157  0.00  0.00    +0.014 A 
ATOM      4  C   UNL     1      -1.495  -0.759  -1.451  0.00  0.00    +0.009 A 
ATOM      5  C   UNL     1      -2.701  -1.390  -1.697  0.00  0.00    +0.001 A 
ATOM      6  C   UNL     1      -3.548  -1.699  -0.649  0.00  0.00    +0.004 A 
ATOM      7  C   UNL     1      -3.192  -1.378   0.647  0.00  0.00    +0.046 A 
ATOM      8  C   UNL     1      -1.981  -0.750   0.897  0.00  0.00    +0.126 A 
BRANCH   8   9
ATOM      9  O   UNL     1      -1.626  -0.438   2.171  0.00  0.00    -0.489 OA
BRANCH   9  10
ATOM     10  C   UNL     1      -2.531  -0.820   3.208  0.00  0.00    +0.167 C 
ATOM     11  C   UNL     1      -2.277  -2.278   3.596  0.00  0.00    +0.051 C 
ATOM     12  C   UNL     1      -2.315   0.077   4.429  0.00  0.00    +0.051 C 
ENDBRANCH   9  10
ENDBRANCH   8   9
ENDBRANCH   2   3
BRANCH   2  13
ATOM     13  N   UNL     1       1.143  -0.113  -0.931  0.00  0.00    -0.303 N 
ATOM     14  C   UNL     1       2.462  -0.125  -0.654  0.00  0.00    +0.261 C 
ATOM     15  O   UNL     1       2.852   0.169   0.461  0.00  0.00    -0.269 OA
ATOM     16  H   UNL     1       0.831  -0.347  -1.819  0.00  0.00    +0.150 HD
BRANCH  14  17
ATOM     17  C   UNL     1       3.426  -0.491  -1.696  0.00  0.00    +0.103 A 
ATOM     18  C   UNL     1       4.796  -0.552  -1.553  0.00  0.00    +0.047 A 
ATOM     19  C   UNL     1       5.322  -0.942  -2.789  0.00  0.00    +0.036 A 
ATOM     20  C   UNL     1       4.286  -1.109  -3.647  0.00  0.00    +0.098 A 
ATOM     21  N   UNL     1       3.128  -0.844  -2.993  0.00  0.00    -0.356 N 
ATOM     22  H   UNL     1       2.238  -0.892  -3.375  0.00  0.00    +0.165 HD
ATOM     23 BR   UNL     1       7.153  -1.191  -3.192  0.00  0.00    -0.049 Br
ENDBRANCH  14  17
ENDBRANCH   2  13
TORSDOF 5
