REMARK  Name = ZINC20720960
REMARK  4 active torsions:
REMARK  status: ('A' for Active; 'I' for Inactive)
REMARK    1  A    between atoms: C_1  and  N_2
REMARK    2  A    between atoms: N_7  and  C_10
REMARK    3  A    between atoms: C_11  and  C_17
REMARK    4  A    between atoms: C_14  and  O_16
REMARK                            x       y       z     vdW  Elec       q    Type
REMARK                         _______ _______ _______ _____ _____    ______ ____
ROOT
ATOM      1  C   UNL     1      -0.018   1.461   0.010  0.00  0.00    +0.155 C 
ATOM      2  N   UNL     1       0.002  -0.004   0.002  0.00  0.00    -0.281 N 
ATOM      3  C   UNL     1      -1.184  -0.708   0.004  0.00  0.00    +0.150 A 
ATOM      4  C   UNL     1      -1.143  -2.087  -0.030  0.00  0.00    +0.068 A 
ATOM      5  C   UNL     1       0.100  -2.737  -0.041  0.00  0.00    +0.262 A 
ATOM      6  O   UNL     1       0.157  -3.954  -0.065  0.00  0.00    -0.267 OA
ATOM      7  N   UNL     1       1.230  -2.002  -0.024  0.00  0.00    -0.264 N 
ATOM      8  C   UNL     1       1.178  -0.659  -0.013  0.00  0.00    +0.333 A 
ATOM      9  O   UNL     1       2.214  -0.022  -0.011  0.00  0.00    -0.246 OA
ATOM     10  C   UNL     1       2.531  -2.676  -0.024  0.00  0.00    +0.157 C 
ATOM     11  C   UNL     1      -2.425  -2.877  -0.070  0.00  0.00    +0.067 C 
ATOM     12  C   UNL     1      -3.501  -2.117   0.712  0.00  0.00    +0.108 C 
ATOM     13  C   UNL     1      -3.477  -0.664   0.318  0.00  0.00    +0.190 C 
ATOM     14  N   UNL     1      -2.365  -0.062   0.020  0.00  0.00    -0.199 NA
ENDROOT
BRANCH  11  15
ATOM     15  C   UNL     1      -2.866  -3.051  -1.500  0.00  0.00    -0.039 A 
ATOM     16  C   UNL     1      -3.128  -1.942  -2.282  0.00  0.00    +0.005 A 
ATOM     17  C   UNL     1      -3.532  -2.102  -3.595  0.00  0.00    +0.015 A 
ATOM     18  C   UNL     1      -3.674  -3.372  -4.125  0.00  0.00    +0.018 A 
ATOM     19  C   UNL     1      -3.411  -4.481  -3.342  0.00  0.00    +0.015 A 
ATOM     20  C   UNL     1      -3.002  -4.321  -2.031  0.00  0.00    +0.005 A 
ATOM     21 BR   UNL     1      -4.227  -3.591  -5.920  0.00  0.00    -0.050 Br
ENDBRANCH  11  15
BRANCH  13  22
ATOM     22  O   UNL     1      -4.631   0.024   0.272  0.00  0.00    -0.495 OA
ATOM     23  H   UNL     1      -4.527   0.949   0.010  0.00  0.00    +0.293 HD
ENDBRANCH  13  22
TORSDOF 2
