REMARK  Name = ZINC39291619
REMARK  4 active torsions:
REMARK  status: ('A' for Active; 'I' for Inactive)
REMARK    1  A    between atoms: C_1  and  C_2
REMARK    2  A    between atoms: C_4  and  C_15
REMARK    3  A    between atoms: C_8  and  N_12
REMARK    4  A    between atoms: N_12  and  N_13
REMARK                            x       y       z     vdW  Elec       q    Type
REMARK                         _______ _______ _______ _____ _____    ______ ____
ROOT
ATOM      1  C   UNL     1      -0.019   1.526   0.010  0.00  0.00    +0.024 C 
ATOM      2  C   UNL     1       0.002  -0.004   0.002  0.00  0.00    +0.076 C 
ATOM      3  C   UNL     1       0.769  -0.528  -1.190  0.00  0.00    -0.045 C 
ATOM      4  C   UNL     1       1.866  -1.260  -0.955  0.00  0.00    +0.071 C 
ATOM      5  C   UNL     1       2.243  -1.498   0.457  0.00  0.00    +0.113 C 
ATOM      6  N   UNL     1       3.303  -2.205   0.753  0.00  0.00    -0.210 NA
ATOM      7  C   UNL     1       4.074  -2.730  -0.198  0.00  0.00    +0.211 C 
ATOM      8  N   UNL     1       3.833  -2.581  -1.488  0.00  0.00    -0.143 NA
ATOM      9  C   UNL     1       2.792  -1.889  -1.951  0.00  0.00    +0.273 C 
ATOM     10  O   UNL     1       2.599  -1.772  -3.150  0.00  0.00    -0.268 OA
ATOM     11  S   UNL     1       0.998  -0.657   1.404  0.00  0.00    -0.098 S 
ATOM     12  C   UNL     1       0.315  -0.238  -2.597  0.00  0.00    +0.041 C 
ENDROOT
BRANCH   7  13
ATOM     13  N   UNL     1       5.174  -3.462   0.181  0.00  0.00    -0.280 NA
BRANCH  13  14
ATOM     14  N   UNL     1       5.987  -4.015  -0.767  0.00  0.00    +0.405 N 
ATOM     15  H   UNL     1       5.453  -4.654  -1.337  0.00  0.00    -0.057 HD
ATOM     16  H   UNL     1       6.369  -3.285  -1.350  0.00  0.00    -0.057 HD
ATOM     17  H   UNL     1       6.739  -4.514  -0.316  0.00  0.00    -0.057 HD
ENDBRANCH  13  14
ENDBRANCH   7  13
TORSDOF 2
