REMARK  Name = ZINC40686899
REMARK  6 active torsions:
REMARK  status: ('A' for Active; 'I' for Inactive)
REMARK    1  A    between atoms: C_4  and  C_7
REMARK    2  A    between atoms: C_7  and  N_8
REMARK    3  A    between atoms: C_15  and  N_28
REMARK    4  A    between atoms: C_16  and  N_20
REMARK    5  A    between atoms: N_20  and  C_21
REMARK    6  A    between atoms: C_21  and  C_22
REMARK                            x       y       z     vdW  Elec       q    Type
REMARK                         _______ _______ _______ _____ _____    ______ ____
ROOT
ATOM      1  N   UNL     1       4.232  -0.949   1.313  0.00  0.00    +0.384 N 
ATOM      2  C   UNL     1       3.261  -1.824   1.984  0.00  0.00    -0.059 C 
ATOM      3  C   UNL     1       3.654  -1.987   3.456  0.00  0.00    +0.088 C 
ATOM      4  N   UNL     1       5.045  -2.463   3.517  0.00  0.00    -0.317 N 
ATOM      5  C   UNL     1       6.061  -1.738   2.739  0.00  0.00    +0.088 C 
ATOM      6  C   UNL     1       5.554  -1.587   1.300  0.00  0.00    -0.059 C 
ATOM      7  C   UNL     1       5.389  -3.567   4.288  0.00  0.00    +0.147 A 
ATOM      8  C   UNL     1       5.842  -3.402   5.599  0.00  0.00    +0.105 A 
ATOM      9  C   UNL     1       6.173  -4.545   6.330  0.00  0.00    +0.145 A 
ATOM     10  N   UNL     1       6.046  -5.738   5.754  0.00  0.00    -0.219 NA
ATOM     11  C   UNL     1       5.614  -5.849   4.514  0.00  0.00    +0.225 A 
ATOM     12  N   UNL     1       5.286  -4.797   3.792  0.00  0.00    -0.219 NA
ATOM     13  H   UNL     1       4.288  -0.071   1.807  0.00  0.00    -0.081 HD
ENDROOT
BRANCH   8  14
ATOM     14  N   UNL     1       5.962  -2.123   6.166  0.00  0.00    -0.353 N 
ATOM     15  H   UNL     1       5.644  -1.346   5.680  0.00  0.00    +0.143 HD
ATOM     16  H   UNL     1       6.361  -2.017   7.043  0.00  0.00    +0.143 HD
ENDBRANCH   8  14
BRANCH   9  17
ATOM     17  N   UNL     1       6.630  -4.437   7.638  0.00  0.00    -0.325 N 
ATOM     18  H   UNL     1       6.720  -3.564   8.050  0.00  0.00    +0.148 HD
BRANCH  17  19
ATOM     19  C   UNL     1       6.974  -5.643   8.395  0.00  0.00    +0.134 C 
BRANCH  19  20
ATOM     20  C   UNL     1       7.446  -5.249   9.796  0.00  0.00    +0.135 C 
ATOM     21  C   UNL     1       7.925  -6.502  10.559  0.00  0.00    +0.035 C 
ATOM     22  C   UNL     1       7.395  -6.237  11.994  0.00  0.00    +0.031 C 
ATOM     23  C   UNL     1       6.071  -5.492  11.686  0.00  0.00    +0.160 C 
ATOM     24  O   UNL     1       6.357  -4.681  10.533  0.00  0.00    -0.375 OA
ENDBRANCH  19  20
ENDBRANCH  17  19
ENDBRANCH   9  17
BRANCH   1  25
ATOM     25  C   UNL     1       3.795  -0.705  -0.068  0.00  0.00    -0.043 C 
BRANCH  25  29
ATOM     26  C   UNL     1       0.113   1.460  -0.037  0.00  0.00    +0.000 A 
ATOM     27  C   UNL     1       1.315   2.142  -0.050  0.00  0.00    +0.000 A 
ATOM     28  C   UNL     1       2.507   1.441  -0.060  0.00  0.00    +0.002 A 
ATOM     29  C   UNL     1       2.496   0.059  -0.056  0.00  0.00    -0.064 A 
ATOM     30  C   UNL     1       1.294  -0.623  -0.042  0.00  0.00    +0.002 A 
ATOM     31  C   UNL     1       0.102   0.078  -0.034  0.00  0.00    +0.000 A 
ENDBRANCH  25  29
ENDBRANCH   1  25
TORSDOF 6
