REMARK  Name = ZINC58845895
REMARK  6 active torsions:
REMARK  status: ('A' for Active; 'I' for Inactive)
REMARK    1  A    between atoms: C_1  and  C_2
REMARK    2  A    between atoms: C_6  and  N_8
REMARK    3  A    between atoms: N_8  and  S_9
REMARK    4  A    between atoms: S_9  and  C_12
REMARK    5  A    between atoms: C_25  and  C_28
REMARK    6  A    between atoms: C_33  and  C_34
REMARK                            x       y       z     vdW  Elec       q    Type
REMARK                         _______ _______ _______ _____ _____    ______ ____
ROOT
ATOM      1  C   UNL     1       2.992  -3.487   1.776  0.00  0.00    +0.109 A 
ATOM      2  C   UNL     1       3.794  -3.300   0.665  0.00  0.00    +0.030 A 
ATOM      3  C   UNL     1       5.059  -2.769   0.815  0.00  0.00    +0.025 A 
ATOM      4  C   UNL     1       5.526  -2.421   2.078  0.00  0.00    +0.031 A 
ATOM      5  C   UNL     1       4.718  -2.595   3.192  0.00  0.00    -0.018 A 
ATOM      6  C   UNL     1       3.449  -3.132   3.030  0.00  0.00    +0.034 A 
ATOM      7  C   UNL     1       5.168  -2.197   4.557  0.00  0.00    +0.049 C 
ATOM      8  C   UNL     1       5.567  -3.386   5.392  0.00  0.00    -0.023 C 
ATOM      9  C   UNL     1       6.582  -3.080   6.161  0.00  0.00    -0.030 C 
ATOM     10  C   UNL     1       7.010  -1.645   5.944  0.00  0.00    +0.033 C 
ATOM     11  C   UNL     1       6.385  -1.275   4.579  0.00  0.00    +0.029 C 
ATOM     12  C   UNL     1       7.400  -1.578   3.497  0.00  0.00    +0.106 C 
ATOM     13  N   UNL     1       6.809  -1.905   2.216  0.00  0.00    -0.336 N 
ATOM     14  H   UNL     1       7.343  -1.779   1.416  0.00  0.00    +0.147 HD
ENDROOT
BRANCH  12  15
ATOM     15  C   UNL     1       8.268  -2.720   3.961  0.00  0.00    -0.013 A 
ATOM     16  C   UNL     1       7.885  -4.023   3.716  0.00  0.00    +0.006 A 
ATOM     17  C   UNL     1       8.680  -5.072   4.141  0.00  0.00    +0.000 A 
ATOM     18  C   UNL     1       9.864  -4.824   4.814  0.00  0.00    +0.001 A 
ATOM     19  C   UNL     1      10.258  -3.527   5.067  0.00  0.00    +0.015 A 
ATOM     20  C   UNL     1       9.464  -2.462   4.635  0.00  0.00    +0.068 A 
BRANCH  20  21
ATOM     21  C   UNL     1       9.883  -1.071   4.895  0.00  0.00    +0.387 C 
ATOM     22  O   UNL     1      10.986  -0.844   5.371  0.00  0.00    -0.241 OA
ATOM     23  O   UNL     1       9.127  -0.146   4.634  0.00  0.00    -0.241 OA
ENDBRANCH  20  21
ENDBRANCH  12  15
BRANCH   1  24
ATOM     24  S   UNL     1       1.380  -4.172   1.591  0.00  0.00    +0.072 S 
ATOM     25  O   UNL     1       1.036  -4.746   2.844  0.00  0.00    -0.150 OA
ATOM     26  O   UNL     1       1.395  -4.926   0.386  0.00  0.00    -0.150 OA
BRANCH  24  27
ATOM     27  N   UNL     1       0.336  -2.910   1.345  0.00  0.00    -0.216 N 
ATOM     28  H   UNL     1      -0.350  -2.714   2.002  0.00  0.00    +0.174 HD
BRANCH  27  34
ATOM     29  C   UNL     1       0.412   1.529  -0.763  0.00  0.00    +0.044 C 
ATOM     30  C   UNL     1       0.485   0.027  -0.859  0.00  0.00    -0.049 A 
ATOM     31  C   UNL     1       0.659  -0.579  -2.090  0.00  0.00    +0.003 A 
ATOM     32  C   UNL     1       0.726  -1.957  -2.182  0.00  0.00    +0.002 A 
ATOM     33  C   UNL     1       0.619  -2.733  -1.045  0.00  0.00    +0.024 A 
ATOM     34  C   UNL     1       0.445  -2.128   0.193  0.00  0.00    +0.048 A 
ATOM     35  C   UNL     1       0.383  -0.743   0.283  0.00  0.00    +0.027 A 
ENDBRANCH  27  34
ENDBRANCH  24  27
ENDBRANCH   1  24
TORSDOF 5
