REMARK  Name = ZINC36708136
REMARK  6 active torsions:
REMARK  status: ('A' for Active; 'I' for Inactive)
REMARK    1  A    between atoms: C_1  and  C_2
REMARK    2  A    between atoms: C_4  and  N_23
REMARK    3  A    between atoms: N_8  and  C_9
REMARK    4  A    between atoms: C_9  and  C_10
REMARK    5  A    between atoms: C_10  and  N_11
REMARK    6  A    between atoms: N_14  and  C_15
REMARK                            x       y       z     vdW  Elec       q    Type
REMARK                         _______ _______ _______ _____ _____    ______ ____
ROOT
ATOM      1  C   UNL     1       0.136  -1.987   3.745  0.00  0.00    +0.123 C 
ENDROOT
BRANCH   1   9
ATOM      2  C   UNL     1       0.132   1.339   0.054  0.00  0.00    +0.066 C 
ATOM      3  C   UNL     1       0.162  -0.168   0.085  0.00  0.00    +0.045 A 
ATOM      4  C   UNL     1       0.196  -0.890  -1.092  0.00  0.00    +0.066 A 
ATOM      5  C   UNL     1       0.223  -2.284  -1.018  0.00  0.00    +0.127 A 
ATOM      6  N   UNL     1       0.214  -2.866   0.177  0.00  0.00    -0.200 NA
ATOM      7  C   UNL     1       0.181  -2.138   1.282  0.00  0.00    +0.217 A 
ATOM      8  N   UNL     1       0.160  -0.814   1.242  0.00  0.00    -0.220 NA
ATOM      9  N   UNL     1       0.172  -2.775   2.511  0.00  0.00    -0.312 N 
ATOM     10  H   UNL     1       0.191  -3.744   2.554  0.00  0.00    +0.149 HD
BRANCH   5  11
ATOM     11  N   UNL     1       0.257  -3.049  -2.173  0.00  0.00    -0.315 N 
ATOM     12  C   UNL     1       0.284  -4.516  -2.098  0.00  0.00    +0.106 C 
ATOM     13  C   UNL     1      -0.858  -5.074  -2.953  0.00  0.00    +0.019 C 
ATOM     14  C   UNL     1      -0.748  -4.514  -4.373  0.00  0.00    +0.003 C 
ATOM     15  C   UNL     1      -0.875  -2.990  -4.333  0.00  0.00    +0.019 C 
ATOM     16  C   UNL     1       0.262  -2.408  -3.495  0.00  0.00    +0.106 C 
ENDBRANCH   5  11
ENDBRANCH   1   9
BRANCH   1  17
ATOM     17  C   UNL     1       0.134  -2.928   4.951  0.00  0.00    +0.124 C 
BRANCH  17  18
ATOM     18  N   UNL     1       0.097  -2.140   6.185  0.00  0.00    -0.298 N 
ATOM     19  C   UNL     1       0.089  -2.760   7.382  0.00  0.00    +0.304 C 
ATOM     20  O   UNL     1       0.113  -3.975   7.436  0.00  0.00    -0.253 OA
ATOM     21  N   UNL     1       0.055  -2.035   8.517  0.00  0.00    -0.267 N 
ATOM     22  H   UNL     1       0.078  -1.171   6.142  0.00  0.00    +0.150 HD
ATOM     23  H   UNL     1      -0.049  -1.072   8.474  0.00  0.00    +0.156 HD
BRANCH  21  24
ATOM     24  C   UNL     1       0.170  -2.673   9.760  0.00  0.00    +0.070 A 
ATOM     25  C   UNL     1       0.966  -3.803   9.891  0.00  0.00    +0.029 A 
ATOM     26  C   UNL     1       1.079  -4.430  11.116  0.00  0.00    +0.040 A 
ATOM     27  C   UNL     1       0.398  -3.934  12.215  0.00  0.00    +0.126 A 
ATOM     28  C   UNL     1      -0.398  -2.808  12.089  0.00  0.00    +0.078 A 
ATOM     29  C   UNL     1      -0.509  -2.172  10.865  0.00  0.00    +0.147 A 
ATOM     30  F   UNL     1      -1.280  -1.070  10.743  0.00  0.00    -0.203 F 
ATOM     31  F   UNL     1       0.509  -4.550  13.412  0.00  0.00    -0.205 F 
ENDBRANCH  21  24
ENDBRANCH  17  18
ENDBRANCH   1  17
TORSDOF 5
