REMARK  Name = ZINC35564721
REMARK  8 active torsions:
REMARK  status: ('A' for Active; 'I' for Inactive)
REMARK    1  A    between atoms: C_1  and  C_2
REMARK    2  A    between atoms: C_2  and  C_3
REMARK    3  A    between atoms: C_3  and  C_4
REMARK    4  A    between atoms: C_4  and  C_5
REMARK    5  A    between atoms: C_19  and  C_21
REMARK    6  A    between atoms: C_21  and  N_22
REMARK    7  A    between atoms: N_25  and  C_28
REMARK    8  A    between atoms: C_33  and  C_34
REMARK                            x       y       z     vdW  Elec       q    Type
REMARK                         _______ _______ _______ _____ _____    ______ ____
ROOT
ATOM      1  C   UNL     1      -2.824  -2.595   2.404  0.00  0.00    +0.216 C 
ATOM      2  O   UNL     1      -1.686  -2.175   2.404  0.00  0.00    -0.276 OA
ATOM      3  N   UNL     1      -3.052  -3.923   2.399  0.00  0.00    -0.298 N 
ATOM      4  C   UNL     1      -4.425  -4.446   2.394  0.00  0.00    +0.126 C 
ATOM      5  C   UNL     1      -4.585  -5.390   1.196  0.00  0.00    +0.127 C 
ATOM      6  N   UNL     1      -3.465  -6.342   1.196  0.00  0.00    -0.298 N 
ATOM      7  C   UNL     1      -2.092  -5.819   1.201  0.00  0.00    +0.127 C 
ATOM      8  C   UNL     1      -1.932  -4.874   2.393  0.00  0.00    +0.126 C 
ATOM      9  C   UNL     1      -3.697  -7.691   1.191  0.00  0.00    +0.198 A 
ATOM     10  N   UNL     1      -4.973  -8.150   1.293  0.00  0.00    -0.295 N 
ATOM     11  H   UNL     1      -5.711  -7.525   1.368  0.00  0.00    +0.172 HD
ATOM     12  C   UNL     1      -5.210  -9.479   1.288  0.00  0.00    +0.253 A 
ATOM     13  O   UNL     1      -6.349  -9.909   1.378  0.00  0.00    -0.268 OA
ATOM     14  C   UNL     1      -4.119 -10.360   1.177  0.00  0.00    +0.091 A 
ATOM     15  C   UNL     1      -2.861  -9.841   1.077  0.00  0.00    +0.034 A 
ATOM     16  N   UNL     1      -2.680  -8.523   1.082  0.00  0.00    -0.223 NA
ENDROOT
BRANCH   1  17
ATOM     17  C   UNL     1      -3.982  -1.631   2.410  0.00  0.00    +0.096 C 
BRANCH  17  18
ATOM     18  C   UNL     1      -3.452  -0.196   2.415  0.00  0.00    +0.009 C 
BRANCH  18  20
ATOM     19  C   UNL     1      -4.098   2.218   2.426  0.00  0.00    +0.004 C 
ATOM     20  C   UNL     1      -4.628   0.783   2.421  0.00  0.00    -0.003 C 
ENDBRANCH  18  20
ENDBRANCH  17  18
ENDBRANCH   1  17
BRANCH  15  21
ATOM     21  C   UNL     1      -1.675 -10.763   0.957  0.00  0.00    -0.022 C 
BRANCH  21  22
ATOM     22  N   UNL     1      -1.040 -10.576  -0.355  0.00  0.00    +0.385 N 
ATOM     23  C   UNL     1      -0.498  -9.214  -0.444  0.00  0.00    -0.059 C 
ATOM     24  C   UNL     1       0.062  -8.980  -1.851  0.00  0.00    +0.086 C 
ATOM     25  N   UNL     1       1.035 -10.042  -2.149  0.00  0.00    -0.332 N 
ATOM     26  C   UNL     1       0.627 -11.438  -1.929  0.00  0.00    +0.086 C 
ATOM     27  C   UNL     1       0.040 -11.556  -0.518  0.00  0.00    -0.059 C 
ATOM     28  H   UNL     1      -1.727 -10.710  -1.081  0.00  0.00    -0.081 HD
BRANCH  25  29
ATOM     29  C   UNL     1       2.305  -9.736  -2.623  0.00  0.00    +0.047 A 
ATOM     30  C   UNL     1       3.352  -9.529  -1.734  0.00  0.00    +0.024 A 
ATOM     31  C   UNL     1       4.612  -9.225  -2.208  0.00  0.00    +0.002 A 
ATOM     32  C   UNL     1       4.844  -9.122  -3.570  0.00  0.00    +0.001 A 
ATOM     33  C   UNL     1       3.818  -9.323  -4.468  0.00  0.00    +0.021 A 
ATOM     34  C   UNL     1       2.538  -9.638  -4.004  0.00  0.00    +0.073 A 
BRANCH  34  35
ATOM     35  C   UNL     1       1.469  -9.855  -4.932  0.00  0.00    +0.101 C 
ATOM     36  N   UNL     1       0.621 -10.027  -5.668  0.00  0.00    -0.191 NA
ENDBRANCH  34  35
ENDBRANCH  25  29
ENDBRANCH  21  22
ENDBRANCH  15  21
TORSDOF 7
