REMARK  Name = ZINC63209467
REMARK  5 active torsions:
REMARK  status: ('A' for Active; 'I' for Inactive)
REMARK    1  A    between atoms: C_1  and  C_2
REMARK    2  A    between atoms: C_15  and  C_17
REMARK    3  A    between atoms: C_17  and  N_18
REMARK    4  A    between atoms: C_21  and  C_26
REMARK    5  A    between atoms: C_26  and  C_27
REMARK                            x       y       z     vdW  Elec       q    Type
REMARK                         _______ _______ _______ _____ _____    ______ ____
ROOT
ATOM      1  N   UNL     1      -0.201  -1.924   4.466  0.00  0.00    -0.216 N 
ATOM      2  C   UNL     1      -0.740  -1.138   5.420  0.00  0.00    +0.244 C 
ATOM      3  O   UNL     1      -0.527   0.041   5.603  0.00  0.00    -0.273 OA
ATOM      4  C   UNL     1      -1.667  -2.036   6.215  0.00  0.00    +0.165 C 
ATOM      5  N   UNL     1      -1.531  -3.346   5.555  0.00  0.00    -0.287 N 
ATOM      6  C   UNL     1      -0.658  -3.179   4.545  0.00  0.00    +0.310 C 
ATOM      7  O   UNL     1      -0.321  -4.069   3.789  0.00  0.00    -0.252 OA
ATOM      8  H   UNL     1      -1.984  -4.168   5.800  0.00  0.00    +0.151 HD
ENDROOT
BRANCH   1   9
ATOM      9  C   UNL     1       0.762  -1.460   3.464  0.00  0.00    +0.214 C 
BRANCH   9  23
ATOM     10  C   UNL     1      -0.019   1.526   0.010  0.00  0.00    +0.029 C 
ATOM     11  C   UNL     1       0.002  -0.004   0.002  0.00  0.00    +0.087 C 
ATOM     12  C   UNL     1       0.715  -0.496  -1.259  0.00  0.00    +0.118 C 
ATOM     13  C   UNL     1       1.097  -1.944  -1.106  0.00  0.00    +0.219 C 
ATOM     14  O   UNL     1       0.459  -2.800  -1.683  0.00  0.00    -0.275 OA
ATOM     15  N   UNL     1       2.146  -2.297  -0.332  0.00  0.00    -0.284 N 
ATOM     16  C   UNL     1       2.832  -1.333   0.416  0.00  0.00    +0.055 A 
ATOM     17  C   UNL     1       4.214  -1.255   0.377  0.00  0.00    +0.025 A 
ATOM     18  C   UNL     1       4.871  -0.309   1.143  0.00  0.00    +0.002 A 
ATOM     19  C   UNL     1       4.154   0.557   1.947  0.00  0.00    +0.002 A 
ATOM     20  C   UNL     1       2.773   0.492   1.984  0.00  0.00    +0.025 A 
ATOM     21  C   UNL     1       2.107  -0.445   1.211  0.00  0.00    +0.058 A 
ATOM     22  N   UNL     1       0.707  -0.488   1.190  0.00  0.00    -0.265 N 
ATOM     23  C   UNL     1       0.022  -0.966   2.248  0.00  0.00    +0.238 C 
ATOM     24  O   UNL     1      -1.190  -0.998   2.221  0.00  0.00    -0.273 OA
ATOM     25  H   UNL     1       2.425  -3.225  -0.293  0.00  0.00    +0.155 HD
ENDBRANCH   9  23
ENDBRANCH   1   9
BRANCH   4  26
ATOM     26  C   UNL     1      -1.218  -2.115   7.675  0.00  0.00    +0.065 C 
BRANCH  26  27
ATOM     27  C   UNL     1      -2.223  -2.911   8.467  0.00  0.00    -0.039 C 
ATOM     28  C   UNL     1      -2.167  -4.231   8.760  0.00  0.00    -0.001 A 
ATOM     29  C   UNL     1      -1.191  -5.279   8.441  0.00  0.00    +0.010 A 
ATOM     30  C   UNL     1      -1.412  -6.538   8.883  0.00  0.00    +0.001 A 
ATOM     31  C   UNL     1      -2.548  -6.866   9.636  0.00  0.00    +0.002 A 
ATOM     32  C   UNL     1      -3.489  -5.957   9.969  0.00  0.00    +0.026 A 
ATOM     33  C   UNL     1      -3.358  -4.602   9.557  0.00  0.00    +0.043 A 
ATOM     34  N   UNL     1      -4.121  -3.554   9.749  0.00  0.00    -0.380 N 
ATOM     35  C   UNL     1      -3.496  -2.396   9.100  0.00  0.00    +0.144 C 
ATOM     36  H   UNL     1      -4.956  -3.544  10.242  0.00  0.00    +0.160 HD
ENDBRANCH  26  27
ENDBRANCH   4  26
TORSDOF 4
