REMARK  Name = ZINC21013718
REMARK  3 active torsions:
REMARK  status: ('A' for Active; 'I' for Inactive)
REMARK    1  A    between atoms: C_4  and  N_18
REMARK    2  A    between atoms: C_6  and  S_7
REMARK    3  A    between atoms: S_7  and  N_10
REMARK                            x       y       z     vdW  Elec       q    Type
REMARK                         _______ _______ _______ _____ _____    ______ ____
ROOT
ATOM      1  S   UNL     1      -0.538  -0.283   2.646  0.00  0.00    +0.061 S 
ATOM      2  O   UNL     1       0.314  -0.309   3.783  0.00  0.00    -0.153 OA
ATOM      3  O   UNL     1      -1.391   0.817   2.359  0.00  0.00    -0.153 OA
ENDROOT
BRANCH   1   4
ATOM      4  N   UNL     1       0.434  -0.486   1.321  0.00  0.00    -0.177 NA
ATOM      5  C   UNL     1       0.002  -0.004   0.002  0.00  0.00    +0.109 C 
ATOM      6  C   UNL     1      -0.019   1.519   0.010  0.00  0.00    +0.017 C 
ATOM      7  C   UNL     1       1.427   2.044  -0.001  0.00  0.00    +0.001 C 
ATOM      8  C   UNL     1       2.020   1.925   1.399  0.00  0.00    +0.000 C 
ATOM      9  C   UNL     1       3.167   0.898   1.419  0.00  0.00    +0.001 C 
ATOM     10  C   UNL     1       2.756  -0.350   0.638  0.00  0.00    +0.017 C 
ATOM     11  C   UNL     1       1.724  -1.144   1.451  0.00  0.00    +0.109 C 
ENDBRANCH   1   4
BRANCH   1  17
ATOM     12  C   UNL     1      -2.798  -1.720   2.121  0.00  0.00    +0.030 A 
ATOM     13  C   UNL     1      -3.610  -2.837   2.202  0.00  0.00    +0.024 A 
ATOM     14  C   UNL     1      -3.201  -3.939   2.928  0.00  0.00    +0.062 A 
ATOM     15  C   UNL     1      -1.970  -3.926   3.574  0.00  0.00    +0.045 A 
ATOM     16  C   UNL     1      -1.156  -2.804   3.486  0.00  0.00    +0.052 A 
ATOM     17  C   UNL     1      -1.571  -1.706   2.758  0.00  0.00    +0.107 A 
ATOM     18 CL   UNL     1      -4.223  -5.338   3.034  0.00  0.00    -0.082 Cl
BRANCH  15  19
ATOM     19  N   UNL     1      -1.553  -5.038   4.309  0.00  0.00    -0.357 N 
ATOM     20  H   UNL     1      -0.578  -5.027   4.819  0.00  0.00    +0.142 HD
ATOM     21  H   UNL     1      -2.199  -5.926   4.378  0.00  0.00    +0.142 HD
ENDBRANCH  15  19
ENDBRANCH   1  17
TORSDOF 3
