REMARK  Name = ZINC63828019
REMARK  7 active torsions:
REMARK  status: ('A' for Active; 'I' for Inactive)
REMARK    1  A    between atoms: C_1  and  C_2
REMARK    2  A    between atoms: C_9  and  N_14
REMARK    3  A    between atoms: C_15  and  C_17
REMARK    4  A    between atoms: C_17  and  C_19
REMARK    5  A    between atoms: C_17  and  N_29
REMARK    6  A    between atoms: C_19  and  C_20
REMARK    7  A    between atoms: C_30  and  C_32
REMARK                            x       y       z     vdW  Elec       q    Type
REMARK                         _______ _______ _______ _____ _____    ______ ____
ROOT
ATOM      1  C   UNL     1       8.328   0.680   2.249  0.00  0.00    +0.163 C 
ENDROOT
BRANCH   1   3
ATOM      2  N   UNL     1       6.197   0.088   1.141  0.00  0.00    -0.284 N 
ATOM      3  C   UNL     1       6.845   0.415   2.277  0.00  0.00    +0.238 C 
ATOM      4  O   UNL     1       6.234   0.494   3.322  0.00  0.00    -0.273 OA
ATOM      5  H   UNL     1       6.696  -0.050   0.321  0.00  0.00    +0.155 HD
BRANCH   2  13
ATOM      6  C   UNL     1       0.292  -1.410   3.347  0.00  0.00    +0.062 C 
ATOM      7  C   UNL     1       0.035  -0.231   2.407  0.00  0.00    +0.256 C 
ATOM      8  C   UNL     1       0.568   1.034   3.030  0.00  0.00    +0.258 C 
ATOM      9  O   UNL     1      -0.151   1.722   3.724  0.00  0.00    -0.271 OA
ATOM     10  N   UNL     1       1.851   1.398   2.813  0.00  0.00    -0.279 N 
ATOM     11  C   UNL     1       2.651   0.604   1.979  0.00  0.00    +0.077 A 
ATOM     12  C   UNL     1       4.028   0.745   1.979  0.00  0.00    +0.050 A 
ATOM     13  C   UNL     1       4.803  -0.051   1.145  0.00  0.00    +0.035 A 
ATOM     14  C   UNL     1       4.196  -0.983   0.314  0.00  0.00    +0.027 A 
ATOM     15  C   UNL     1       2.821  -1.125   0.315  0.00  0.00    +0.049 A 
ATOM     16  C   UNL     1       2.045  -0.335   1.145  0.00  0.00    +0.143 A 
ATOM     17  O   UNL     1       0.691  -0.465   1.159  0.00  0.00    -0.478 OA
ATOM     18  H   UNL     1       2.213   2.196   3.228  0.00  0.00    +0.155 HD
ENDBRANCH   2  13
ENDBRANCH   1   3
BRANCH   1  19
ATOM     19  N   UNL     1       8.790   1.012   3.599  0.00  0.00    -0.300 N 
ATOM     20  C   UNL     1       9.902   1.756   3.767  0.00  0.00    +0.245 C 
ATOM     21  O   UNL     1      10.521   2.151   2.798  0.00  0.00    -0.270 OA
ATOM     22  H   UNL     1       8.296   0.697   4.372  0.00  0.00    +0.150 HD
BRANCH  20  23
ATOM     23  C   UNL     1      10.368   2.090   5.128  0.00  0.00    +0.037 A 
ATOM     24  C   UNL     1       9.662   1.632   6.242  0.00  0.00    +0.016 A 
ATOM     25  C   UNL     1      10.101   1.947   7.510  0.00  0.00    +0.039 A 
ATOM     26  C   UNL     1      11.242   2.717   7.680  0.00  0.00    +0.123 A 
ATOM     27  C   UNL     1      11.946   3.174   6.577  0.00  0.00    +0.039 A 
ATOM     28  C   UNL     1      11.519   2.860   5.305  0.00  0.00    +0.016 A 
ATOM     29  F   UNL     1      11.668   3.024   8.925  0.00  0.00    -0.205 F 
ENDBRANCH  20  23
ENDBRANCH   1  19
BRANCH   1  30
ATOM     30  C   UNL     1       9.060  -0.567   1.751  0.00  0.00    +0.065 C 
BRANCH  30  31
ATOM     31  C   UNL     1      10.529  -0.263   1.606  0.00  0.00    -0.039 C 
ATOM     32  C   UNL     1      11.502  -0.501   2.514  0.00  0.00    -0.001 A 
ATOM     33  C   UNL     1      11.486  -1.092   3.858  0.00  0.00    +0.010 A 
ATOM     34  C   UNL     1      12.648  -1.200   4.541  0.00  0.00    +0.001 A 
ATOM     35  C   UNL     1      13.864  -0.764   3.999  0.00  0.00    +0.002 A 
ATOM     36  C   UNL     1      13.960  -0.211   2.772  0.00  0.00    +0.026 A 
ATOM     37  C   UNL     1      12.800  -0.049   1.964  0.00  0.00    +0.043 A 
ATOM     38  N   UNL     1      12.636   0.450   0.763  0.00  0.00    -0.380 N 
ATOM     39  C   UNL     1      11.214   0.365   0.412  0.00  0.00    +0.144 C 
ATOM     40  H   UNL     1      13.337   0.812   0.200  0.00  0.00    +0.160 HD
ENDBRANCH  30  31
ENDBRANCH   1  30
TORSDOF 6
