REMARK  Name = ZINC38747845
REMARK  2 active torsions:
REMARK  status: ('A' for Active; 'I' for Inactive)
REMARK    1  A    between atoms: C_2  and  C_8
REMARK    2  A    between atoms: N_9  and  C_10
REMARK                            x       y       z     vdW  Elec       q    Type
REMARK                         _______ _______ _______ _____ _____    ______ ____
ROOT
ATOM      1  C   UNL     1       1.750   3.200   0.003  0.00  0.00    +0.152 C 
ATOM      2  N   UNL     1       3.022   3.460  -0.008  0.00  0.00    -0.270 NA
ENDROOT
BRANCH   2   3
ATOM      3  C   UNL     1       3.486   4.849  -0.005  0.00  0.00    +0.230 C 
ATOM      4  C   UNL     1       4.264   5.085   1.275  0.00  0.00    +0.111 C 
ATOM      5  N   UNL     1       5.495   5.477   1.175  0.00  0.00    -0.173 NA
ATOM      6  C   UNL     1       6.099   5.679   0.000  0.00  0.00    +0.329 C 
ATOM      7  O   UNL     1       7.257   6.047   0.018  0.00  0.00    -0.250 OA
ATOM      8  N   UNL     1       5.521   5.507  -1.196  0.00  0.00    -0.236 N 
ATOM      9  C   UNL     1       4.240   5.099  -1.299  0.00  0.00    +0.250 C 
ATOM     10  O   UNL     1       3.715   4.940  -2.380  0.00  0.00    -0.273 OA
ATOM     11  H   UNL     1       6.034   5.677  -2.001  0.00  0.00    +0.159 HD
ENDBRANCH   2   3
BRANCH   1  13
ATOM     12  C   UNL     1      -0.017   1.400   0.010  0.00  0.00    +0.067 A 
ATOM     13  C   UNL     1       1.286   1.811  -0.001  0.00  0.00    +0.148 A 
ATOM     14  O   UNL     1       2.070   0.714  -0.014  0.00  0.00    -0.446 OA
ATOM     15  C   UNL     1       1.300  -0.384  -0.012  0.00  0.00    +0.185 A 
ATOM     16  C   UNL     1       0.002  -0.004   0.002  0.00  0.00    +0.071 A 
ATOM     17 BR   UNL     1      -1.504  -1.148   0.011  0.00  0.00    -0.046 Br
ATOM     18 BR   UNL     1       1.926  -2.169  -0.029  0.00  0.00    -0.007 Br
ENDBRANCH   1  13
TORSDOF 2
