REMARK  Name = ZINC39855697
REMARK  7 active torsions:
REMARK  status: ('A' for Active; 'I' for Inactive)
REMARK    1  A    between atoms: C_1  and  C_2
REMARK    2  A    between atoms: C_6  and  C_7
REMARK    3  A    between atoms: N_9  and  N_10
REMARK    4  A    between atoms: C_11  and  C_13
REMARK    5  A    between atoms: C_21  and  C_26
REMARK    6  A    between atoms: C_21  and  C_27
REMARK    7  A    between atoms: N_24  and  O_25
REMARK                            x       y       z     vdW  Elec       q    Type
REMARK                         _______ _______ _______ _____ _____    ______ ____
ROOT
ATOM      1  C   UNL     1      -0.018   1.503   0.010  0.00  0.00    +0.048 C 
ATOM      2  C   UNL     1       0.002  -0.004   0.002  0.00  0.00    +0.009 A 
ATOM      3  C   UNL     1       0.008  -0.839  -1.123  0.00  0.00    +0.044 A 
ATOM      4  C   UNL     1       0.026  -2.138  -0.672  0.00  0.00    +0.116 A 
ATOM      5  O   UNL     1       0.034  -2.112   0.657  0.00  0.00    -0.454 OA
ATOM      6  C   UNL     1       0.024  -0.830   1.090  0.00  0.00    +0.194 A 
ATOM      7  C   UNL     1       0.033  -3.327  -1.599  0.00  0.00    +0.081 C 
ATOM      8  C   UNL     1      -0.492  -2.903  -2.974  0.00  0.00    -0.023 C 
ATOM      9  C   UNL     1       0.279  -1.686  -3.494  0.00  0.00    +0.066 C 
ATOM     10  C   UNL     1       0.001  -0.513  -2.566  0.00  0.00    +0.091 C 
ATOM     11  N   UNL     1      -0.226   0.683  -3.007  0.00  0.00    -0.091 NA
ATOM     12  C   UNL     1      -0.325  -4.064  -3.956  0.00  0.00    +0.011 C 
ATOM     13  C   UNL     1      -1.976  -2.549  -2.860  0.00  0.00    +0.011 C 
ENDROOT
BRANCH   6  14
ATOM     14  C   UNL     1       0.032  -0.400   2.493  0.00  0.00    +0.296 C 
ATOM     15  O   UNL     1       0.018   0.786   2.766  0.00  0.00    -0.265 OA
ATOM     16  N   UNL     1       0.054  -1.317   3.480  0.00  0.00    -0.228 N 
ATOM     17  H   UNL     1       0.065  -2.263   3.263  0.00  0.00    +0.173 HD
BRANCH  16  18
ATOM     18  N   UNL     1       0.062  -0.906   4.819  0.00  0.00    -0.230 N 
ATOM     19  C   UNL     1       0.084  -1.824   5.806  0.00  0.00    +0.263 C 
ATOM     20  O   UNL     1       0.098  -3.009   5.534  0.00  0.00    -0.269 OA
ATOM     21  H   UNL     1       0.051   0.039   5.036  0.00  0.00    +0.173 HD
BRANCH  19  22
ATOM     22  C   UNL     1       0.092  -1.391   7.218  0.00  0.00    +0.073 A 
ATOM     23  C   UNL     1       0.071  -0.031   7.534  0.00  0.00    +0.016 A 
ATOM     24  C   UNL     1       0.079   0.367   8.854  0.00  0.00    +0.001 A 
ATOM     25  C   UNL     1       0.107  -0.577   9.867  0.00  0.00    +0.003 A 
ATOM     26  C   UNL     1       0.128  -1.925   9.563  0.00  0.00    +0.039 A 
ATOM     27  C   UNL     1       0.115  -2.340   8.244  0.00  0.00    +0.136 A 
ATOM     28  F   UNL     1       0.130  -3.658   7.948  0.00  0.00    -0.205 F 
ENDBRANCH  19  22
ENDBRANCH  16  18
ENDBRANCH   6  14
BRANCH  11  29
ATOM     29  O   UNL     1      -0.220   0.936  -4.400  0.00  0.00    -0.409 OA
ATOM     30  H   UNL     1      -0.399   1.858  -4.633  0.00  0.00    +0.328 HD
ENDBRANCH  11  29
TORSDOF 4
