REMARK  Name = ZINC13467260
REMARK  7 active torsions:
REMARK  status: ('A' for Active; 'I' for Inactive)
REMARK    1  A    between atoms: C_1  and  C_2
REMARK    2  A    between atoms: C_13  and  O_15
REMARK    3  A    between atoms: O_15  and  C_16
REMARK    4  A    between atoms: C_16  and  C_18
REMARK    5  A    between atoms: C_27  and  C_34
REMARK    6  A    between atoms: C_30  and  O_33
REMARK    7  A    between atoms: C_34  and  O_35
REMARK                            x       y       z     vdW  Elec       q    Type
REMARK                         _______ _______ _______ _____ _____    ______ ____
ROOT
ATOM      1  C   UNL     1       3.259   5.282   1.704  0.00  0.00    +0.015 C 
ATOM      2  C   UNL     1       4.536   4.557   2.134  0.00  0.00    +0.008 C 
ATOM      3  C   UNL     1       5.148   3.828   0.952  0.00  0.00    +0.011 C 
ATOM      4  C   UNL     1       4.053   2.925   0.365  0.00  0.00    +0.005 C 
ATOM      5  C   UNL     1       3.503   1.947   1.399  0.00  0.00    +0.005 C 
ATOM      6  C   UNL     1       3.031   2.668   2.674  0.00  0.00    +0.000 C 
ATOM      7  C   UNL     1       4.199   3.482   3.201  0.00  0.00    +0.002 C 
ATOM      8  C   UNL     1       3.905   4.347   4.432  0.00  0.00    +0.008 C 
ATOM      9  C   UNL     1       5.012   5.434   4.366  0.00  0.00    +0.045 C 
ATOM     10  C   UNL     1       5.451   5.520   2.883  0.00  0.00    +0.183 C 
ATOM     11  C   UNL     1       2.657   1.597   3.708  0.00  0.00    +0.031 C 
ATOM     12  C   UNL     1       1.666   0.643   3.111  0.00  0.00    -0.027 C 
ATOM     13  C   UNL     1       1.520   0.467   1.836  0.00  0.00    -0.062 C 
ATOM     14  C   UNL     1       2.334   1.182   0.792  0.00  0.00    +0.018 C 
ATOM     15  C   UNL     1       1.423   2.111  -0.006  0.00  0.00    +0.016 C 
ATOM     16  C   UNL     1      -0.003   1.560  -0.020  0.00  0.00    +0.032 C 
ATOM     17  C   UNL     1      -0.002   0.032  -0.040  0.00  0.00    +0.119 C 
ATOM     18  C   UNL     1       0.463  -0.498   1.324  0.00  0.00    +0.062 C 
ENDROOT
BRANCH  17  19
ATOM     19  O   UNL     1      -1.323  -0.441  -0.310  0.00  0.00    -0.391 OA
ATOM     20  H   UNL     1      -1.397  -1.405  -0.337  0.00  0.00    +0.210 HD
ENDBRANCH  17  19
BRANCH  10  21
ATOM     21  O   UNL     1       5.276   6.872   2.384  0.00  0.00    -0.457 OA
BRANCH  21  22
ATOM     22  C   UNL     1       6.328   7.706   2.494  0.00  0.00    +0.339 C 
ATOM     23  O   UNL     1       7.364   7.315   2.992  0.00  0.00    -0.245 OA
BRANCH  22  24
ATOM     24  C   UNL     1       6.222   9.097   2.007  0.00  0.00    +0.059 A 
ATOM     25  C   UNL     1       5.034   9.549   1.428  0.00  0.00    +0.015 A 
ATOM     26  C   UNL     1       4.940  10.851   0.981  0.00  0.00    +0.001 A 
ATOM     27  C   UNL     1       6.023  11.704   1.095  0.00  0.00    +0.000 A 
ATOM     28  C   UNL     1       7.205  11.262   1.663  0.00  0.00    +0.001 A 
ATOM     29  C   UNL     1       7.311   9.964   2.119  0.00  0.00    +0.015 A 
ENDBRANCH  22  24
ENDBRANCH  21  22
ENDBRANCH  10  21
BRANCH  14  30
ATOM     30  C   UNL     1       2.895   0.137  -0.175  0.00  0.00    +0.167 C 
BRANCH  30  31
ATOM     31  O   UNL     1       3.829  -0.696   0.513  0.00  0.00    -0.394 OA
ATOM     32  H   UNL     1       4.226  -1.383  -0.040  0.00  0.00    +0.209 HD
ENDBRANCH  30  31
ENDBRANCH  14  30
TORSDOF 6
