REMARK  Name = ZINC60362606
REMARK  7 active torsions:
REMARK  status: ('A' for Active; 'I' for Inactive)
REMARK    1  A    between atoms: C_1  and  C_2
REMARK    2  A    between atoms: C_2  and  C_3
REMARK    3  A    between atoms: C_2  and  C_4
REMARK    4  A    between atoms: C_2  and  C_5
REMARK    5  A    between atoms: C_12  and  C_14
REMARK    6  A    between atoms: N_16  and  N_17
REMARK    7  A    between atoms: C_20  and  C_23
REMARK                            x       y       z     vdW  Elec       q    Type
REMARK                         _______ _______ _______ _____ _____    ______ ____
ROOT
ATOM      1  C   UNL     1       6.007  -0.738  -4.546  0.00  0.00    +0.267 C 
ATOM      2  O   UNL     1       6.936  -0.497  -3.797  0.00  0.00    -0.268 OA
ATOM      3  N   UNL     1       6.246  -1.083  -5.826  0.00  0.00    -0.229 N 
ATOM      4  H   UNL     1       5.505  -1.274  -6.423  0.00  0.00    +0.173 HD
ENDROOT
BRANCH   1  11
ATOM      5  C   UNL     1       0.718  -0.497  -1.257  0.00  0.00    -0.001 C 
ATOM      6  C   UNL     1      -0.026   0.007  -2.496  0.00  0.00    +0.009 C 
ATOM      7  C   UNL     1       0.533  -0.709  -3.733  0.00  0.00    +0.043 C 
ATOM      8  C   UNL     1       2.031  -0.643  -3.684  0.00  0.00    -0.006 A 
ATOM      9  C   UNL     1       2.798  -0.317  -2.603  0.00  0.00    -0.036 A 
ATOM     10  C   UNL     1       4.173  -0.320  -2.792  0.00  0.00    +0.024 A 
ATOM     11  C   UNL     1       4.629  -0.652  -4.054  0.00  0.00    +0.076 A 
ATOM     12  S   UNL     1       3.103  -0.949  -4.927  0.00  0.00    -0.088 S 
ATOM     13  C   UNL     1       2.154   0.029  -1.264  0.00  0.00    +0.040 C 
BRANCH   5  15
ATOM     14  C   UNL     1      -0.019   1.526   0.010  0.00  0.00    +0.011 C 
ATOM     15  C   UNL     1       0.002  -0.004   0.002  0.00  0.00    -0.035 C 
ATOM     16  C   UNL     1       0.742  -0.511   1.242  0.00  0.00    +0.011 C 
ATOM     17  C   UNL     1      -1.433  -0.534   0.013  0.00  0.00    +0.011 C 
ENDBRANCH   5  15
ENDBRANCH   1  11
BRANCH   3  18
ATOM     18  N   UNL     1       7.563  -1.165  -6.296  0.00  0.00    -0.216 N 
ATOM     19  C   UNL     1       7.806  -1.517  -7.602  0.00  0.00    +0.331 A 
ATOM     20  N   UNL     1       8.989  -1.633  -8.160  0.00  0.00    -0.173 NA
ATOM     21  C   UNL     1       8.853  -1.992  -9.447  0.00  0.00    +0.204 A 
ATOM     22  N   UNL     1       7.577  -2.108  -9.722  0.00  0.00    -0.054 NA
ATOM     23  O   UNL     1       6.875  -1.806  -8.525  0.00  0.00    -0.315 OA
ATOM     24  H   UNL     1       8.303  -0.973  -5.700  0.00  0.00    +0.175 HD
BRANCH  21  25
ATOM     25  C   UNL     1       9.967  -2.220 -10.403  0.00  0.00    +0.025 A 
ATOM     26  C   UNL     1      11.297  -2.074 -10.002  0.00  0.00    +0.031 A 
ATOM     27  C   UNL     1      12.302  -2.296 -10.922  0.00  0.00    +0.111 A 
ATOM     28  N   UNL     1      12.019  -2.641 -12.163  0.00  0.00    -0.263 NA
ATOM     29  C   UNL     1      10.777  -2.789 -12.582  0.00  0.00    +0.111 A 
ATOM     30  C   UNL     1       9.713  -2.592 -11.725  0.00  0.00    +0.031 A 
ENDBRANCH  21  25
ENDBRANCH   3  18
TORSDOF 4
