REMARK  Name = ZINC04703181
REMARK  7 active torsions:
REMARK  status: ('A' for Active; 'I' for Inactive)
REMARK    1  A    between atoms: C_1  and  C_2
REMARK    2  A    between atoms: C_2  and  C_10
REMARK    3  A    between atoms: C_3  and  C_4
REMARK    4  A    between atoms: N_11  and  N_12
REMARK    5  A    between atoms: N_12  and  C_13
REMARK    6  A    between atoms: N_12  and  C_14
REMARK    7  A    between atoms: N_18  and  C_23
REMARK                            x       y       z     vdW  Elec       q    Type
REMARK                         _______ _______ _______ _____ _____    ______ ____
ROOT
ATOM      1  N   UNL     1      -3.336   2.814   0.875  0.00  0.00    -0.212 N 
ATOM      2  C   UNL     1      -3.159   4.265   0.773  0.00  0.00    +0.160 C 
ENDROOT
BRANCH   1   3
ATOM      3  C   UNL     1      -4.568   2.293   1.178  0.00  0.00    +0.127 A 
ATOM      4  C   UNL     1      -5.634   3.122   1.391  0.00  0.00    +0.113 A 
ATOM      5  C   UNL     1      -6.885   2.561   1.694  0.00  0.00    +0.258 A 
ATOM      6  O   UNL     1      -7.851   3.280   1.883  0.00  0.00    -0.267 OA
ATOM      7  N   UNL     1      -7.010   1.222   1.781  0.00  0.00    -0.264 N 
ATOM      8  C   UNL     1      -5.949   0.420   1.575  0.00  0.00    +0.330 A 
ATOM      9  O   UNL     1      -6.085  -0.785   1.658  0.00  0.00    -0.246 OA
ATOM     10  N   UNL     1      -4.741   0.932   1.277  0.00  0.00    -0.294 N 
ATOM     11  H   UNL     1      -3.965   0.320   1.126  0.00  0.00    +0.172 HD
ATOM     12  C   UNL     1      -8.312   0.633   2.104  0.00  0.00    +0.157 C 
ENDBRANCH   1   3
BRANCH   1  14
ATOM     13  C   UNL     1      -1.076   2.454   0.377  0.00  0.00    +0.134 C 
ATOM     14  N   UNL     1      -2.246   1.959   0.664  0.00  0.00    -0.187 NA
BRANCH  13  16
ATOM     15  C   UNL     1      -0.123   0.106   0.393  0.00  0.00    +0.045 C 
ATOM     16  C   UNL     1       0.027   1.588   0.163  0.00  0.00    -0.030 C 
ATOM     17  C   UNL     1       1.208   2.090  -0.251  0.00  0.00    +0.012 C 
BRANCH  17  18
ATOM     18  C   UNL     1       1.309   3.505  -0.645  0.00  0.00    -0.025 A 
ATOM     19  C   UNL     1       0.226   4.143  -1.258  0.00  0.00    +0.008 A 
ATOM     20  C   UNL     1       0.326   5.470  -1.619  0.00  0.00    +0.001 A 
ATOM     21  C   UNL     1       1.499   6.167  -1.387  0.00  0.00    +0.000 A 
ATOM     22  C   UNL     1       2.577   5.541  -0.785  0.00  0.00    +0.001 A 
ATOM     23  C   UNL     1       2.490   4.216  -0.413  0.00  0.00    +0.008 A 
ENDBRANCH  17  18
ENDBRANCH  13  16
ENDBRANCH   1  14
TORSDOF 4
