REMARK  Name = ZINC63303109
REMARK  7 active torsions:
REMARK  status: ('A' for Active; 'I' for Inactive)
REMARK    1  A    between atoms: C_1  and  O_2
REMARK    2  A    between atoms: O_2  and  C_3
REMARK    3  A    between atoms: C_8  and  C_9
REMARK    4  A    between atoms: C_9  and  N_10
REMARK    5  A    between atoms: C_11  and  C_13
REMARK    6  A    between atoms: C_16  and  C_20
REMARK    7  A    between atoms: C_20  and  C_21
REMARK                            x       y       z     vdW  Elec       q    Type
REMARK                         _______ _______ _______ _____ _____    ______ ____
ROOT
ATOM      1  C   UNL     1       1.517  -3.610  -3.444  0.00  0.00    +0.297 C 
ATOM      2  N   UNL     1       1.609  -2.271  -4.082  0.00  0.00    -0.265 NA
ATOM      3  C   UNL     1       2.917  -2.336  -4.787  0.00  0.00    +0.154 C 
ATOM      4  N   UNL     1       3.771  -3.124  -3.867  0.00  0.00    -0.181 NA
ATOM      5  O   UNL     1       2.859  -3.914  -3.024  0.00  0.00    -0.270 OA
ATOM      6  H   UNL     1       0.853  -2.128  -4.734  0.00  0.00    +0.126 HD
ATOM      7  H   UNL     1       4.398  -3.724  -4.380  0.00  0.00    +0.156 HD
ENDROOT
BRANCH   1   9
ATOM      8  N   UNL     1       0.950  -2.876  -1.151  0.00  0.00    -0.308 N 
ATOM      9  C   UNL     1       0.593  -3.562  -2.255  0.00  0.00    +0.259 C 
ATOM     10  O   UNL     1      -0.472  -4.141  -2.290  0.00  0.00    -0.271 OA
ATOM     11  H   UNL     1       1.802  -2.413  -1.123  0.00  0.00    +0.149 HD
BRANCH   8  12
ATOM     12  C   UNL     1       0.052  -2.828   0.005  0.00  0.00    +0.143 C 
BRANCH  12  18
ATOM     13  C   UNL     1       0.626  -0.618   1.042  0.00  0.00    +0.125 A 
ATOM     14  C   UNL     1       1.202   0.139   2.051  0.00  0.00    +0.046 A 
ATOM     15  C   UNL     1       1.835  -0.488   3.107  0.00  0.00    +0.004 A 
ATOM     16  C   UNL     1       1.895  -1.869   3.158  0.00  0.00    +0.001 A 
ATOM     17  C   UNL     1       1.321  -2.625   2.153  0.00  0.00    +0.009 A 
ATOM     18  C   UNL     1       0.682  -2.003   1.097  0.00  0.00    +0.011 A 
BRANCH  13  20
ATOM     19  C   UNL     1      -0.017   1.425   0.010  0.00  0.00    +0.277 C 
ATOM     20  O   UNL     1       0.002  -0.004   0.002  0.00  0.00    -0.495 OA
ENDBRANCH  13  20
ENDBRANCH  12  18
ENDBRANCH   8  12
ENDBRANCH   1   9
BRANCH   3  21
ATOM     21  C   UNL     1       3.491  -0.932  -4.989  0.00  0.00    +0.070 C 
BRANCH  21  22
ATOM     22  C   UNL     1       4.751  -1.017  -5.811  0.00  0.00    -0.039 C 
ATOM     23  C   UNL     1       4.861  -0.856  -7.149  0.00  0.00    -0.001 A 
ATOM     24  C   UNL     1       3.878  -0.567  -8.200  0.00  0.00    +0.010 A 
ATOM     25  C   UNL     1       4.299  -0.462  -9.481  0.00  0.00    +0.001 A 
ATOM     26  C   UNL     1       5.647  -0.623  -9.829  0.00  0.00    +0.002 A 
ATOM     27  C   UNL     1       6.608  -0.891  -8.920  0.00  0.00    +0.026 A 
ATOM     28  C   UNL     1       6.278  -1.022  -7.543  0.00  0.00    +0.043 A 
ATOM     29  N   UNL     1       7.016  -1.275  -6.489  0.00  0.00    -0.380 N 
ATOM     30  C   UNL     1       6.149  -1.293  -5.305  0.00  0.00    +0.144 C 
ATOM     31  H   UNL     1       7.975  -1.422  -6.491  0.00  0.00    +0.160 HD
ENDBRANCH  21  22
ENDBRANCH   3  21
TORSDOF 6
