REMARK  Name = ZINC65457021
REMARK  6 active torsions:
REMARK  status: ('A' for Active; 'I' for Inactive)
REMARK    1  A    between atoms: C_1  and  C_2
REMARK    2  A    between atoms: N_11  and  C_12
REMARK    3  A    between atoms: C_12  and  C_13
REMARK    4  A    between atoms: C_13  and  C_15
REMARK    5  A    between atoms: C_16  and  N_27
REMARK    6  A    between atoms: N_17  and  C_24
REMARK                            x       y       z     vdW  Elec       q    Type
REMARK                         _______ _______ _______ _____ _____    ______ ____
ROOT
ATOM      1  C   UNL     1      -1.357  -1.183   4.285  0.00  0.00    +0.121 A 
ATOM      2  C   UNL     1      -1.898  -2.367   4.815  0.00  0.00    +0.116 A 
ATOM      3  N   UNL     1      -2.063  -2.471   6.166  0.00  0.00    -0.278 N 
ATOM      4  C   UNL     1      -1.720  -1.469   6.990  0.00  0.00    +0.331 A 
ATOM      5  O   UNL     1      -1.887  -1.611   8.186  0.00  0.00    -0.246 OA
ATOM      6  N   UNL     1      -1.199  -0.315   6.543  0.00  0.00    -0.274 N 
ATOM      7  H   UNL     1      -0.966   0.383   7.175  0.00  0.00    +0.173 HD
ATOM      8  C   UNL     1      -0.991  -0.115   5.225  0.00  0.00    +0.266 A 
ATOM      9  O   UNL     1      -0.514   0.930   4.823  0.00  0.00    -0.267 OA
ENDROOT
BRANCH   3  10
ATOM     10  C   UNL     1      -2.625  -3.702   6.728  0.00  0.00    +0.094 C 
ATOM     11  C   UNL     1      -1.905  -4.326   7.925  0.00  0.00    +0.027 C 
ATOM     12  C   UNL     1      -1.822  -4.992   6.549  0.00  0.00    +0.027 C 
ENDBRANCH   3  10
BRANCH   2  13
ATOM     13  N   UNL     1      -2.252  -3.393   3.994  0.00  0.00    -0.344 N 
ATOM     14  H   UNL     1      -1.802  -3.510   3.142  0.00  0.00    +0.144 HD
ATOM     15  H   UNL     1      -2.953  -4.008   4.260  0.00  0.00    +0.144 HD
ENDBRANCH   2  13
BRANCH   1  16
ATOM     16  C   UNL     1      -1.167  -1.026   2.896  0.00  0.00    +0.189 C 
ATOM     17  O   UNL     1      -1.360  -1.963   2.147  0.00  0.00    -0.290 OA
BRANCH  16  18
ATOM     18  C   UNL     1      -0.724   0.303   2.340  0.00  0.00    +0.185 C 
BRANCH  18  28
ATOM     19  C   UNL     1      -2.140   1.936   0.060  0.00  0.00    +0.028 C 
ATOM     20  C   UNL     1      -1.676   0.484  -0.071  0.00  0.00    +0.075 C 
ATOM     21  C   UNL     1      -1.058   0.244  -1.458  0.00  0.00    +0.059 C 
ATOM     22  C   UNL     1       0.370  -0.163  -1.173  0.00  0.00    -0.025 A 
ATOM     23  C   UNL     1       1.403  -0.503  -2.026  0.00  0.00    +0.005 A 
ATOM     24  C   UNL     1       2.640  -0.845  -1.514  0.00  0.00    +0.000 A 
ATOM     25  C   UNL     1       2.843  -0.848  -0.146  0.00  0.00    +0.002 A 
ATOM     26  C   UNL     1       1.816  -0.509   0.708  0.00  0.00    +0.023 A 
ATOM     27  C   UNL     1       0.562  -0.162   0.199  0.00  0.00    +0.034 A 
ATOM     28  N   UNL     1      -0.599   0.206   0.884  0.00  0.00    -0.319 N 
ENDBRANCH  18  28
ENDBRANCH  16  18
ENDBRANCH   1  16
TORSDOF 5
