REMARK  Name = ZINC51147793
REMARK  4 active torsions:
REMARK  status: ('A' for Active; 'I' for Inactive)
REMARK    1  A    between atoms: N_8  and  C_13
REMARK    2  A    between atoms: C_13  and  C_14
REMARK    3  A    between atoms: C_15  and  N_19
REMARK    4  A    between atoms: N_19  and  N_20
REMARK                            x       y       z     vdW  Elec       q    Type
REMARK                         _______ _______ _______ _____ _____    ______ ____
ROOT
ATOM      1  C   UNL     1      -0.483   1.169   0.835  0.00  0.00    +0.024 A 
ATOM      2  C   UNL     1       0.603   2.008   1.008  0.00  0.00    +0.049 A 
ATOM      3  C   UNL     1       1.887   1.502   0.912  0.00  0.00    +0.143 A 
ATOM      4  C   UNL     1       2.082   0.148   0.641  0.00  0.00    +0.080 A 
ATOM      5  C   UNL     1       0.991  -0.688   0.469  0.00  0.00    +0.047 A 
ATOM      6  C   UNL     1      -0.291  -0.174   0.567  0.00  0.00    +0.043 A 
ATOM      7 CL   UNL     1      -1.661  -1.219   0.352  0.00  0.00    -0.083 Cl
ATOM      8  N   UNL     1       3.388  -0.352   0.546  0.00  0.00    -0.259 N 
ATOM      9  C   UNL     1       4.410   0.394   1.021  0.00  0.00    +0.258 C 
ATOM     10  O   UNL     1       5.551  -0.004   0.922  0.00  0.00    -0.271 OA
ATOM     11  C   UNL     1       4.126   1.722   1.675  0.00  0.00    +0.325 C 
ATOM     12  O   UNL     1       2.966   2.312   1.081  0.00  0.00    -0.481 OA
ENDROOT
BRANCH   8  13
ATOM     13  C   UNL     1       3.642  -1.662  -0.059  0.00  0.00    +0.173 C 
BRANCH  13  14
ATOM     14  C   UNL     1       3.656  -2.717   1.017  0.00  0.00    +0.112 A 
ATOM     15  C   UNL     1       4.820  -3.149   1.587  0.00  0.00    +0.124 A 
ATOM     16  S   UNL     1       4.266  -4.292   2.688  0.00  0.00    +0.053 S 
ATOM     17  N   UNL     1       2.623  -4.172   2.381  0.00  0.00    -0.108 NA
ATOM     18  N   UNL     1       2.550  -3.269   1.462  0.00  0.00    -0.143 NA
BRANCH  15  19
ATOM     19  N   UNL     1       6.127  -2.747   1.324  0.00  0.00    -0.274 N 
ATOM     20  H   UNL     1       6.310  -2.145   0.585  0.00  0.00    +0.167 HD
BRANCH  19  21
ATOM     21  N   UNL     1       7.152  -3.199   2.106  0.00  0.00    -0.256 NA
ATOM     22  H   UNL     1       7.173  -4.208   2.126  0.00  0.00    +0.140 HD
ATOM     23  H   UNL     1       8.036  -2.825   1.797  0.00  0.00    +0.140 HD
ENDBRANCH  19  21
ENDBRANCH  15  19
ENDBRANCH  13  14
ENDBRANCH   8  13
TORSDOF 4
