REMARK  Name = ZINC59193807
REMARK  6 active torsions:
REMARK  status: ('A' for Active; 'I' for Inactive)
REMARK    1  A    between atoms: C_1  and  C_2
REMARK    2  A    between atoms: C_3  and  C_18
REMARK    3  A    between atoms: N_7  and  N_8
REMARK    4  A    between atoms: C_9  and  C_10
REMARK    5  A    between atoms: C_15  and  O_16
REMARK    6  A    between atoms: O_16  and  C_17
REMARK                            x       y       z     vdW  Elec       q    Type
REMARK                         _______ _______ _______ _____ _____    ______ ____
ROOT
ATOM      1  C   UNL     1      -0.008   1.499   0.134  0.00  0.00    +0.054 C 
ATOM      2  C   UNL     1       0.007  -0.006   0.058  0.00  0.00    +0.014 A 
ATOM      3  C   UNL     1      -1.032  -0.868   0.093  0.00  0.00    +0.058 A 
ATOM      4  N   UNL     1      -0.797  -2.211   0.009  0.00  0.00    -0.332 N 
ATOM      5  C   UNL     1       0.500  -2.649  -0.111  0.00  0.00    +0.193 A 
ATOM      6  S   UNL     1       1.401  -1.108  -0.110  0.00  0.00    -0.053 S 
ATOM      7  N   UNL     1       0.959  -3.887  -0.207  0.00  0.00    -0.124 NA
ATOM      8  H   UNL     1      -1.532  -2.844   0.033  0.00  0.00    +0.168 HD
ENDROOT
BRANCH   3   9
ATOM      9  C   UNL     1      -2.415  -0.361   0.223  0.00  0.00    -0.001 A 
ATOM     10  C   UNL     1      -2.859   0.681  -0.592  0.00  0.00    +0.010 A 
ATOM     11  C   UNL     1      -4.151   1.149  -0.466  0.00  0.00    +0.001 A 
ATOM     12  C   UNL     1      -5.005   0.588   0.466  0.00  0.00    +0.000 A 
ATOM     13  C   UNL     1      -4.571  -0.445   1.278  0.00  0.00    +0.001 A 
ATOM     14  C   UNL     1      -3.284  -0.926   1.158  0.00  0.00    +0.010 A 
ENDBRANCH   3   9
BRANCH   7  15
ATOM     15  N   UNL     1       2.227  -4.098  -0.313  0.00  0.00    -0.154 NA
ATOM     16  C   UNL     1       2.681  -5.321  -0.408  0.00  0.00    +0.146 C 
BRANCH  16  17
ATOM     17  C   UNL     1       4.127  -5.561  -0.529  0.00  0.00    +0.036 A 
ATOM     18  C   UNL     1       4.616  -6.866  -0.636  0.00  0.00    +0.013 A 
ATOM     19  C   UNL     1       5.973  -7.084  -0.749  0.00  0.00    +0.001 A 
ATOM     20  C   UNL     1       6.853  -6.015  -0.757  0.00  0.00    +0.004 A 
ATOM     21  C   UNL     1       6.382  -4.719  -0.652  0.00  0.00    +0.046 A 
ATOM     22  C   UNL     1       5.023  -4.481  -0.543  0.00  0.00    +0.129 A 
BRANCH  22  23
ATOM     23  O   UNL     1       4.559  -3.208  -0.446  0.00  0.00    -0.494 OA
ATOM     24  C   UNL     1       5.530  -2.160  -0.467  0.00  0.00    +0.277 C 
ENDBRANCH  22  23
ENDBRANCH  16  17
ENDBRANCH   7  15
TORSDOF 4
