REMARK  Name = ZINC23029492
REMARK  8 active torsions:
REMARK  status: ('A' for Active; 'I' for Inactive)
REMARK    1  A    between atoms: C_1  and  C_2
REMARK    2  A    between atoms: C_2  and  C_3
REMARK    3  A    between atoms: C_3  and  C_28
REMARK    4  A    between atoms: N_6  and  N_10
REMARK    5  A    between atoms: C_11  and  C_13
REMARK    6  A    between atoms: C_13  and  N_14
REMARK    7  A    between atoms: N_17  and  S_20
REMARK    8  A    between atoms: S_20  and  C_23
REMARK                            x       y       z     vdW  Elec       q    Type
REMARK                         _______ _______ _______ _____ _____    ______ ____
ROOT
ATOM      1  N   UNL     1      -0.016   1.344   0.009  0.00  0.00    -0.225 N 
ATOM      2  C   UNL     1       0.002  -0.004   0.002  0.00  0.00    +0.213 C 
ATOM      3  O   UNL     1       1.060  -0.596  -0.011  0.00  0.00    -0.276 OA
ATOM      4  H   UNL     1      -0.976   1.881   0.021  0.00  0.00    +0.173 HD
ENDROOT
BRANCH   1   8
ATOM      5  C   UNL     1       2.983   3.329  -0.621  0.00  0.00    +0.139 C 
ATOM      6  C   UNL     1       1.680   2.702  -1.077  0.00  0.00    +0.268 C 
ATOM      7  O   UNL     1       1.185   2.763  -2.181  0.00  0.00    -0.271 OA
ATOM      8  N   UNL     1       1.187   2.061   0.002  0.00  0.00    -0.137 N 
ATOM      9  C   UNL     1       1.987   2.198   1.066  0.00  0.00    +0.327 C 
ATOM     10  O   UNL     1       1.752   1.713   2.155  0.00  0.00    -0.251 OA
ATOM     11  N   UNL     1       3.082   2.931   0.794  0.00  0.00    -0.280 N 
ATOM     12  H   UNL     1       3.948   3.247   1.395  0.00  0.00    +0.152 HD
BRANCH   5  13
ATOM     13  C   UNL     1       2.923   4.829  -0.750  0.00  0.00    -0.015 A 
ATOM     14  C   UNL     1       3.342   5.439  -1.917  0.00  0.00    +0.006 A 
ATOM     15  C   UNL     1       3.283   6.815  -2.038  0.00  0.00    +0.000 A 
ATOM     16  C   UNL     1       2.813   7.581  -0.987  0.00  0.00    +0.000 A 
ATOM     17  C   UNL     1       2.399   6.971   0.182  0.00  0.00    +0.000 A 
ATOM     18  C   UNL     1       2.453   5.595   0.301  0.00  0.00    +0.006 A 
ENDBRANCH   5  13
BRANCH   5  20
ATOM     19  C   UNL     1       4.229   1.251  -1.231  0.00  0.00    +0.007 C 
ATOM     20  C   UNL     1       4.159   2.768  -1.422  0.00  0.00    +0.037 C 
ENDBRANCH   5  20
ENDBRANCH   1   8
BRANCH   2  21
ATOM     21  C   UNL     1      -1.293  -0.775   0.010  0.00  0.00    +0.020 C 
BRANCH  21  22
ATOM     22  N   UNL     1      -1.005  -2.216  -0.000  0.00  0.00    +0.387 N 
ATOM     23  C   UNL     1      -0.360  -2.615  -1.258  0.00  0.00    -0.061 C 
ATOM     24  C   UNL     1       0.086  -4.077  -1.159  0.00  0.00    +0.091 C 
ATOM     25  N   UNL     1      -1.073  -4.894  -0.768  0.00  0.00    -0.180 NA
ATOM     26  C   UNL     1      -1.854  -4.476   0.407  0.00  0.00    +0.091 C 
ATOM     27  C   UNL     1      -2.224  -2.998   0.245  0.00  0.00    -0.061 C 
ATOM     28  H   UNL     1      -0.301  -2.427   0.818  0.00  0.00    -0.081 HD
BRANCH  25  29
ATOM     29  S   UNL     1      -1.488  -6.247  -1.627  0.00  0.00    +0.067 S 
ATOM     30  O   UNL     1      -0.308  -6.687  -2.286  0.00  0.00    -0.152 OA
ATOM     31  O   UNL     1      -2.222  -7.081  -0.742  0.00  0.00    -0.152 OA
BRANCH  29  32
ATOM     32  C   UNL     1      -2.610  -5.740  -2.888  0.00  0.00    +0.143 A 
ATOM     33  C   UNL     1      -2.344  -5.323  -4.150  0.00  0.00    +0.036 A 
ATOM     34  C   UNL     1      -3.396  -4.974  -4.976  0.00  0.00    +0.010 A 
ATOM     35  C   UNL     1      -4.662  -5.050  -4.496  0.00  0.00    +0.047 A 
ATOM     36  S   UNL     1      -4.391  -5.636  -2.832  0.00  0.00    -0.077 S 
ENDBRANCH  29  32
ENDBRANCH  25  29
ENDBRANCH  21  22
ENDBRANCH   2  21
TORSDOF 7
