REMARK  Name = ZINC20465557
REMARK  10 active torsions:
REMARK  status: ('A' for Active; 'I' for Inactive)
REMARK    1  A    between atoms: C_1  and  O_2
REMARK    2  A    between atoms: O_2  and  C_3
REMARK    3  A    between atoms: C_8  and  N_9
REMARK    4  A    between atoms: N_12  and  C_15
REMARK    5  A    between atoms: C_17  and  C_27
REMARK    6  A    between atoms: C_20  and  C_25
REMARK    7  A    between atoms: C_22  and  O_24
REMARK    8  A    between atoms: C_25  and  O_26
REMARK    9  A    between atoms: C_27  and  N_28
REMARK   10  A    between atoms: N_31  and  C_32
REMARK                            x       y       z     vdW  Elec       q    Type
REMARK                         _______ _______ _______ _____ _____    ______ ____
ROOT
ATOM      1  C   UNL     1      -8.524   1.432   0.349  0.00  0.00    +0.118 C 
ATOM      2  C   UNL     1      -7.170   0.696   0.322  0.00  0.00    +0.155 C 
ATOM      3  O   UNL     1      -7.021   0.028   1.586  0.00  0.00    -0.365 OA
ATOM      4  C   UNL     1      -8.351  -0.228   2.087  0.00  0.00    +0.174 C 
ATOM      5  C   UNL     1      -9.128   1.063   1.726  0.00  0.00    +0.165 C 
ENDROOT
BRANCH   1   9
ATOM      6  N   UNL     1      -8.938   5.520  -0.631  0.00  0.00    -0.325 N 
ATOM      7  C   UNL     1      -7.795   4.789  -1.196  0.00  0.00    +0.120 C 
ATOM      8  C   UNL     1      -8.078   3.286  -1.144  0.00  0.00    +0.104 C 
ATOM      9  N   UNL     1      -8.322   2.884   0.248  0.00  0.00    -0.292 NA
ATOM     10  C   UNL     1      -9.465   3.615   0.813  0.00  0.00    +0.104 C 
ATOM     11  C   UNL     1      -9.181   5.118   0.761  0.00  0.00    +0.120 C 
BRANCH   6  17
ATOM     12  C   UNL     1      -9.643   7.684  -1.452  0.00  0.00    +0.141 A 
ATOM     13  C   UNL     1      -9.450   9.053  -1.539  0.00  0.00    +0.047 A 
ATOM     14  C   UNL     1      -8.364   9.640  -0.917  0.00  0.00    +0.004 A 
ATOM     15  C   UNL     1      -7.470   8.865  -0.203  0.00  0.00    +0.002 A 
ATOM     16  C   UNL     1      -7.658   7.499  -0.106  0.00  0.00    +0.027 A 
ATOM     17  C   UNL     1      -8.745   6.903  -0.728  0.00  0.00    +0.072 A 
BRANCH  12  19
ATOM     18  C   UNL     1     -11.586   7.968  -2.794  0.00  0.00    +0.277 C 
ATOM     19  O   UNL     1     -10.708   7.105  -2.068  0.00  0.00    -0.493 OA
ENDBRANCH  12  19
ENDBRANCH   6  17
ENDBRANCH   1   9
BRANCH   5  20
ATOM     20  O   UNL     1      -8.879   2.093   2.685  0.00  0.00    -0.388 OA
ATOM     21  H   UNL     1      -9.245   1.984   3.717  0.00  0.00    +0.210 HD
ENDBRANCH   5  20
BRANCH   4  22
ATOM     22  C   UNL     1      -8.325  -0.440   3.602  0.00  0.00    +0.190 C 
BRANCH  22  23
ATOM     23  O   UNL     1      -7.615  -1.643   3.902  0.00  0.00    -0.392 OA
ATOM     24  H   UNL     1      -7.491  -1.962   4.948  0.00  0.00    +0.210 HD
ENDBRANCH  22  23
ENDBRANCH   4  22
BRANCH   2  25
ATOM     25  C   UNL     1      -6.034   1.703   0.128  0.00  0.00    +0.139 C 
BRANCH  25  26
ATOM     26  N   UNL     1      -4.747   1.031   0.325  0.00  0.00    -0.297 N 
ATOM     27  C   UNL     1      -3.599   1.725   0.203  0.00  0.00    +0.304 C 
ATOM     28  O   UNL     1      -3.631   2.910  -0.070  0.00  0.00    -0.253 OA
ATOM     29  N   UNL     1      -2.415   1.107   0.384  0.00  0.00    -0.269 N 
ATOM     30  H   UNL     1      -4.718  -0.041   0.572  0.00  0.00    +0.150 HD
ATOM     31  H   UNL     1      -2.381   0.019   0.540  0.00  0.00    +0.156 HD
BRANCH  29  32
ATOM     32  C   UNL     1      -1.229   1.850   0.372  0.00  0.00    +0.035 A 
ATOM     33  C   UNL     1      -1.217   3.150   0.861  0.00  0.00    +0.023 A 
ATOM     34  C   UNL     1      -0.043   3.878   0.853  0.00  0.00    +0.002 A 
ATOM     35  C   UNL     1       1.117   3.316   0.353  0.00  0.00    +0.000 A 
ATOM     36  C   UNL     1       1.107   2.024  -0.139  0.00  0.00    +0.002 A 
ATOM     37  C   UNL     1      -0.063   1.290  -0.133  0.00  0.00    +0.023 A 
ENDBRANCH  29  32
ENDBRANCH  25  26
ENDBRANCH   2  25
TORSDOF 9
