REMARK  Name = ZINC20329053
REMARK  11 active torsions:
REMARK  status: ('A' for Active; 'I' for Inactive)
REMARK    1  A    between atoms: C_1  and  C_2
REMARK    2  A    between atoms: C_2  and  C_4
REMARK    3  A    between atoms: C_2  and  N_10
REMARK    4  A    between atoms: C_11  and  C_13
REMARK    5  A    between atoms: C_13  and  C_14
REMARK    6  A    between atoms: C_14  and  C_15
REMARK    7  A    between atoms: C_15  and  C_16
REMARK    8  A    between atoms: C_16  and  C_17
REMARK    9  A    between atoms: C_17  and  N_18
REMARK   10  A    between atoms: C_25  and  O_31
REMARK   11  A    between atoms: O_31  and  C_32
REMARK                            x       y       z     vdW  Elec       q    Type
REMARK                         _______ _______ _______ _____ _____    ______ ____
ROOT
ATOM      1  N   UNL     1       7.388   0.652  -0.065  0.00  0.00    -0.287 N 
ATOM      2  C   UNL     1       7.912   0.227   1.101  0.00  0.00    +0.279 A 
ATOM      3  O   UNL     1       7.454   0.617   2.160  0.00  0.00    -0.265 OA
ATOM      4  C   UNL     1       9.000  -0.684   1.085  0.00  0.00    +0.129 A 
ATOM      5  C   UNL     1       9.496  -1.099  -0.138  0.00  0.00    +0.079 A 
ATOM      6  C   UNL     1      10.601  -2.016   0.142  0.00  0.00    +0.027 A 
ATOM      7  C   UNL     1      11.477  -2.746  -0.667  0.00  0.00    +0.057 A 
ATOM      8  C   UNL     1      12.440  -3.545  -0.085  0.00  0.00    +0.121 A 
ATOM      9  C   UNL     1      12.541  -3.625   1.302  0.00  0.00    +0.047 A 
ATOM     10  C   UNL     1      11.685  -2.912   2.110  0.00  0.00    +0.030 A 
ATOM     11  C   UNL     1      10.705  -2.099   1.543  0.00  0.00    +0.049 A 
ATOM     12  N   UNL     1       9.733  -1.290   2.092  0.00  0.00    -0.349 N 
ATOM     13  H   UNL     1       9.492  -1.087   3.146  0.00  0.00    +0.166 HD
ATOM     14  N   UNL     1       8.920  -0.624  -1.302  0.00  0.00    -0.333 N 
ATOM     15  C   UNL     1       7.885   0.236  -1.242  0.00  0.00    +0.161 A 
ATOM     16  S   UNL     1       7.189   0.811  -2.697  0.00  0.00    -0.013 S 
ATOM     17  H   UNL     1       9.307  -0.948  -2.279  0.00  0.00    +0.168 HD
ENDROOT
BRANCH   8  18
ATOM     18  O   UNL     1      13.293  -4.256  -0.869  0.00  0.00    -0.495 OA
ATOM     19  C   UNL     1      14.266  -5.063  -0.202  0.00  0.00    +0.277 C 
ENDBRANCH   8  18
BRANCH   1  20
ATOM     20  C   UNL     1       6.262   1.589  -0.049  0.00  0.00    +0.127 C 
BRANCH  20  21
ATOM     21  C   UNL     1       4.947   0.806  -0.041  0.00  0.00    +0.022 C 
BRANCH  21  22
ATOM     22  C   UNL     1       3.771   1.784  -0.024  0.00  0.00    +0.002 C 
BRANCH  22  23
ATOM     23  C   UNL     1       2.457   1.002  -0.016  0.00  0.00    +0.009 C 
BRANCH  23  24
ATOM     24  C   UNL     1       1.280   1.980   0.001  0.00  0.00    +0.096 C 
BRANCH  24  26
ATOM     25  N   UNL     1      -1.191   1.867   0.018  0.00  0.00    -0.309 N 
ATOM     26  C   UNL     1      -0.014   1.209   0.009  0.00  0.00    +0.213 C 
ATOM     27  O   UNL     1       0.002  -0.004   0.002  0.00  0.00    -0.276 OA
ATOM     28  H   UNL     1      -1.206   2.966   0.024  0.00  0.00    +0.149 HD
BRANCH  25  30
ATOM     29  C   UNL     1      -2.830   0.756  -1.417  0.00  0.00    +0.033 C 
ATOM     30  C   UNL     1      -2.449   1.117   0.020  0.00  0.00    +0.100 C 
BRANCH  30  31
ATOM     31  C   UNL     1      -3.537   1.963   0.630  0.00  0.00    -0.027 A 
ATOM     32  C   UNL     1      -3.600   3.315   0.349  0.00  0.00    +0.005 A 
ATOM     33  C   UNL     1      -4.601   4.090   0.906  0.00  0.00    +0.000 A 
ATOM     34  C   UNL     1      -5.532   3.515   1.750  0.00  0.00    +0.000 A 
ATOM     35  C   UNL     1      -5.465   2.164   2.035  0.00  0.00    +0.000 A 
ATOM     36  C   UNL     1      -4.468   1.388   1.475  0.00  0.00    +0.005 A 
ENDBRANCH  30  31
ENDBRANCH  25  30
ENDBRANCH  24  26
ENDBRANCH  23  24
ENDBRANCH  22  23
ENDBRANCH  21  22
ENDBRANCH  20  21
ENDBRANCH   1  20
TORSDOF 9
