REMARK  Name = ZINC63846656
REMARK  3 active torsions:
REMARK  status: ('A' for Active; 'I' for Inactive)
REMARK    1  A    between atoms: C_4  and  N_7
REMARK    2  A    between atoms: C_8  and  C_12
REMARK    3  A    between atoms: N_21  and  C_22
REMARK                            x       y       z     vdW  Elec       q    Type
REMARK                         _______ _______ _______ _____ _____    ______ ____
ROOT
ATOM      1  C   UNL     1       2.986  -2.522   1.575  0.00  0.00    +0.224 C 
ATOM      2  N   UNL     1       3.369  -3.961   1.646  0.00  0.00    -0.266 NA
ATOM      3  C   UNL     1       2.608  -4.504   0.514  0.00  0.00    +0.212 C 
ATOM      4  C   UNL     1       1.348  -3.640   0.475  0.00  0.00    +0.094 C 
ATOM      5  N   UNL     1       1.615  -2.510   1.038  0.00  0.00    -0.258 NA
ATOM      6  C   UNL     1       0.353  -4.563  -0.068  0.00  0.00    +0.156 C 
ATOM      7  N   UNL     1       0.785  -5.787   0.064  0.00  0.00    -0.189 NA
ATOM      8  N   UNL     1       2.049  -5.841   0.716  0.00  0.00    -0.229 N 
ATOM      9  H   UNL     1       4.361  -4.078   1.504  0.00  0.00    +0.126 HD
ENDROOT
BRANCH   1  11
ATOM     10  N   UNL     1       3.623  -0.653  -0.038  0.00  0.00    -0.233 N 
ATOM     11  C   UNL     1       3.916  -1.778   0.652  0.00  0.00    +0.084 A 
ATOM     12  C   UNL     1       5.195  -2.116   0.365  0.00  0.00    +0.048 A 
ATOM     13  C   UNL     1       5.701  -1.167  -0.529  0.00  0.00    +0.135 A 
ATOM     14  N   UNL     1       4.758  -0.293  -0.776  0.00  0.00    -0.174 NA
BRANCH  10  18
ATOM     15  C   UNL     1      -0.017   1.378   0.008  0.00  0.00    +0.000 A 
ATOM     16  C   UNL     1       0.526   0.908   1.190  0.00  0.00    +0.002 A 
ATOM     17  C   UNL     1       1.732   0.235   1.178  0.00  0.00    +0.028 A 
ATOM     18  C   UNL     1       2.399   0.030  -0.022  0.00  0.00    +0.066 A 
ATOM     19  C   UNL     1       1.851   0.502  -1.207  0.00  0.00    +0.028 A 
ATOM     20  C   UNL     1       0.645   1.175  -1.189  0.00  0.00    +0.002 A 
ENDBRANCH  10  18
ENDBRANCH   1  11
BRANCH   8  21
ATOM     21  C   UNL     1       2.653  -6.966   1.434  0.00  0.00    +0.095 C 
ATOM     22  C   UNL     1       2.768  -8.189   0.501  0.00  0.00    +0.024 C 
ATOM     23  C   UNL     1       2.466  -9.398   1.420  0.00  0.00    +0.002 C 
ATOM     24  C   UNL     1       1.346  -8.856   2.342  0.00  0.00    +0.002 C 
ATOM     25  C   UNL     1       1.749  -7.390   2.605  0.00  0.00    +0.024 C 
ENDBRANCH   8  21
TORSDOF 3
