REMARK  Name = ZINC16957677
REMARK  12 active torsions:
REMARK  status: ('A' for Active; 'I' for Inactive)
REMARK    1  A    between atoms: C_1  and  C_2
REMARK    2  A    between atoms: C_5  and  C_8
REMARK    3  A    between atoms: C_8  and  C_10
REMARK    4  A    between atoms: C_11  and  C_12
REMARK    5  A    between atoms: N_14  and  C_21
REMARK    6  A    between atoms: C_21  and  C_22
REMARK    7  A    between atoms: C_22  and  C_24
REMARK    8  A    between atoms: C_22  and  O_38
REMARK    9  A    between atoms: C_24  and  N_66
REMARK   10  A    between atoms: C_25  and  C_26
REMARK   11  A    between atoms: C_25  and  N_66
REMARK   12  A    between atoms: C_26  and  C_27
REMARK                            x       y       z     vdW  Elec       q    Type
REMARK                         _______ _______ _______ _____ _____    ______ ____
ROOT
ATOM      1  C   UNL     1       0.649   6.284   0.030  0.00  0.00    +0.151 C 
ENDROOT
BRANCH   1   4
ATOM      2  C   UNL     1      -2.306   4.149   0.046  0.00  0.00    +0.000 A 
ATOM      3  C   UNL     1      -1.679   5.377   0.047  0.00  0.00    +0.094 A 
ATOM      4  N   UNL     1      -0.336   5.200   0.033  0.00  0.00    -0.344 N 
ATOM      5  C   UNL     1      -0.025   3.855   0.023  0.00  0.00    +0.050 A 
ATOM      6  C   UNL     1      -1.232   3.138   0.031  0.00  0.00    +0.007 A 
ATOM      7  C   UNL     1      -1.217   1.746   0.017  0.00  0.00    +0.010 A 
ATOM      8  C   UNL     1      -0.013   1.076   0.008  0.00  0.00    +0.001 A 
ATOM      9  C   UNL     1       1.181   1.783   0.000  0.00  0.00    +0.002 A 
ATOM     10  C   UNL     1       1.181   3.161   0.008  0.00  0.00    +0.026 A 
BRANCH   2  12
ATOM     11  C   UNL     1      -4.616   4.942   0.072  0.00  0.00    +0.052 C 
ATOM     12  C   UNL     1      -3.746   3.900   0.058  0.00  0.00    +0.014 C 
BRANCH  11  13
ATOM     13  C   UNL     1      -6.007   4.701   0.083  0.00  0.00    +0.186 C 
ATOM     14  O   UNL     1      -6.427   3.557   0.081  0.00  0.00    -0.287 OA
BRANCH  13  19
ATOM     15  C   UNL     1      -9.694   9.120   0.141  0.00  0.00    +0.044 C 
ATOM     16  C   UNL     1      -8.729   7.963   0.127  0.00  0.00    -0.050 A 
ATOM     17  C   UNL     1      -9.209   6.666   0.124  0.00  0.00    +0.004 A 
ATOM     18  C   UNL     1      -8.331   5.602   0.110  0.00  0.00    +0.012 A 
ATOM     19  C   UNL     1      -6.955   5.837   0.099  0.00  0.00    +0.022 A 
ATOM     20  C   UNL     1      -6.477   7.148   0.108  0.00  0.00    +0.012 A 
ATOM     21  C   UNL     1      -7.366   8.203   0.116  0.00  0.00    +0.004 A 
ENDBRANCH  13  19
ENDBRANCH  11  13
ENDBRANCH   2  12
ENDBRANCH   1   4
BRANCH   1  22
ATOM     22  C   UNL     1       1.071   6.585  -1.410  0.00  0.00    +0.117 C 
BRANCH  22  23
ATOM     23  O   UNL     1       1.754   5.453  -1.953  0.00  0.00    -0.392 OA
ATOM     24  H   UNL     1       2.552   5.205  -1.467  0.00  0.00    +0.210 HD
ENDBRANCH  22  23
BRANCH  22  25
ATOM     25  C   UNL     1       2.004   7.798  -1.425  0.00  0.00    -0.049 C 
BRANCH  25  26
ATOM     26  N   UNL     1       2.310   8.155  -2.823  0.00  0.00    +0.381 N 
ATOM     27  H   UNL     1       1.436   8.380  -3.314  0.00  0.00    -0.086 HD
ATOM     28  H   UNL     1       2.766   7.359  -3.284  0.00  0.00    -0.086 HD
BRANCH  26  29
ATOM     29  C   UNL     1       3.209   9.323  -2.868  0.00  0.00    -0.078 C 
BRANCH  29  30
ATOM     30  C   UNL     1       3.508   9.670  -4.328  0.00  0.00    +0.018 C 
BRANCH  30  31
ATOM     31  C   UNL     1       4.426  10.863  -4.383  0.00  0.00    -0.024 A 
ATOM     32  C   UNL     1       4.060  12.147  -4.525  0.00  0.00    +0.087 A 
ATOM     33  N   UNL     1       5.167  12.950  -4.532  0.00  0.00    -0.360 N 
ATOM     34  H   UNL     1       5.154  13.916  -4.622  0.00  0.00    +0.165 HD
ATOM     35  C   UNL     1       6.303  12.183  -4.391  0.00  0.00    +0.047 A 
ATOM     36  C   UNL     1       5.888  10.843  -4.286  0.00  0.00    +0.005 A 
ATOM     37  C   UNL     1       6.836   9.829  -4.138  0.00  0.00    +0.048 A 
ATOM     38  C   UNL     1       8.175  10.150  -4.085  0.00  0.00    +0.124 A 
ATOM     39  C   UNL     1       8.584  11.475  -4.184  0.00  0.00    +0.040 A 
ATOM     40  C   UNL     1       7.659  12.485  -4.335  0.00  0.00    +0.029 A 
ATOM     41  F   UNL     1       9.095   9.172  -3.937  0.00  0.00    -0.205 F 
ENDBRANCH  30  31
ENDBRANCH  29  30
ENDBRANCH  26  29
ENDBRANCH  25  26
ENDBRANCH  22  25
ENDBRANCH   1  22
TORSDOF 11
