REMARK  Name = ZINC40310972
REMARK  8 active torsions:
REMARK  status: ('A' for Active; 'I' for Inactive)
REMARK    1  A    between atoms: C_1  and  C_2
REMARK    2  A    between atoms: C_3  and  C_21
REMARK    3  A    between atoms: C_5  and  N_11
REMARK    4  A    between atoms: C_6  and  C_7
REMARK    5  A    between atoms: C_7  and  O_9
REMARK    6  A    between atoms: O_9  and  C_10
REMARK    7  A    between atoms: C_12  and  C_14
REMARK    8  A    between atoms: C_16  and  N_20
REMARK                            x       y       z     vdW  Elec       q    Type
REMARK                         _______ _______ _______ _____ _____    ______ ____
ROOT
ATOM      1  N   UNL     1       0.053  -3.118   2.079  0.00  0.00    -0.274 N 
ATOM      2  C   UNL     1       0.070  -4.427   1.758  0.00  0.00    +0.265 C 
ATOM      3  O   UNL     1       0.069  -4.766   0.589  0.00  0.00    -0.268 OA
ATOM      4  H   UNL     1       0.053  -2.848   3.011  0.00  0.00    +0.156 HD
ENDROOT
BRANCH   1   9
ATOM      5  C   UNL     1      -0.018   1.503   0.010  0.00  0.00    +0.045 C 
ATOM      6  C   UNL     1       0.002  -0.004   0.002  0.00  0.00    -0.025 A 
ATOM      7  C   UNL     1       0.006  -0.712  -1.142  0.00  0.00    -0.008 A 
ATOM      8  S   UNL     1       0.032  -2.400  -0.580  0.00  0.00    -0.078 S 
ATOM      9  C   UNL     1       0.036  -2.160   1.081  0.00  0.00    +0.087 A 
ATOM     10  C   UNL     1       0.024  -0.778   1.223  0.00  0.00    +0.091 A 
ATOM     11  C   UNL     1      -0.007  -0.199  -2.559  0.00  0.00    +0.052 C 
BRANCH  10  12
ATOM     12  C   UNL     1       0.029  -0.139   2.540  0.00  0.00    +0.342 C 
ATOM     13  O   UNL     1      -1.023   0.112   3.097  0.00  0.00    -0.245 OA
BRANCH  12  14
ATOM     14  O   UNL     1       1.198   0.170   3.135  0.00  0.00    -0.464 OA
ATOM     15  C   UNL     1       1.128   0.792   4.420  0.00  0.00    +0.280 C 
ENDBRANCH  12  14
ENDBRANCH  10  12
ENDBRANCH   1   9
BRANCH   2  16
ATOM     16  C   UNL     1       0.088  -5.441   2.815  0.00  0.00    +0.104 A 
ATOM     17  C   UNL     1       0.111  -6.809   2.631  0.00  0.00    +0.055 A 
ATOM     18  C   UNL     1       0.123  -7.396   3.904  0.00  0.00    +0.043 A 
ATOM     19  C   UNL     1       0.107  -6.395   4.823  0.00  0.00    +0.106 A 
ATOM     20  N   UNL     1       0.090  -5.202   4.170  0.00  0.00    -0.355 N 
ATOM     21  H   UNL     1       0.080  -4.328   4.590  0.00  0.00    +0.166 HD
BRANCH  18  22
ATOM     22  N   UNL     1       0.146  -8.776   4.181  0.00  0.00    -0.357 N 
ATOM     23  H   UNL     1       0.156  -9.416   3.452  0.00  0.00    +0.142 HD
ATOM     24  H   UNL     1       0.153  -9.086   5.100  0.00  0.00    +0.142 HD
ENDBRANCH  18  22
ENDBRANCH   2  16
TORSDOF 5
