REMARK  Name = ZINC15906001
REMARK  4 active torsions:
REMARK  status: ('A' for Active; 'I' for Inactive)
REMARK    1  A    between atoms: N_14  and  N_15
REMARK    2  A    between atoms: N_15  and  C_16
REMARK    3  A    between atoms: C_16  and  N_18
REMARK    4  A    between atoms: C_19  and  C_21
REMARK                            x       y       z     vdW  Elec       q    Type
REMARK                         _______ _______ _______ _____ _____    ______ ____
ROOT
ATOM      1  N   UNL     1       3.190   5.338  -0.106  0.00  0.00    -0.246 N 
ATOM      2  H   UNL     1       2.456   5.969  -0.168  0.00  0.00    +0.172 HD
ENDROOT
BRANCH   1  16
ATOM      3  C   UNL     1      -0.624   3.894  -0.404  0.00  0.00    +0.224 A 
ATOM      4  N   UNL     1       0.635   4.294  -0.399  0.00  0.00    -0.219 NA
ATOM      5  C   UNL     1       1.621   3.510   0.005  0.00  0.00    +0.147 A 
ATOM      6  C   UNL     1       1.321   2.193   0.451  0.00  0.00    +0.052 A 
ATOM      7  C   UNL     1       2.235   1.160   0.939  0.00  0.00    -0.025 A 
ATOM      8  C   UNL     1       1.689  -0.018   1.305  0.00  0.00    -0.004 A 
ATOM      9  S   UNL     1      -0.051   0.174   1.026  0.00  0.00    -0.073 S 
ATOM     10  C   UNL     1      -0.043   1.839   0.417  0.00  0.00    +0.114 A 
ATOM     11  N   UNL     1      -0.965   2.687   0.002  0.00  0.00    -0.228 NA
ATOM     12  C   UNL     1       2.403  -1.224   1.833  0.00  0.00    +0.043 C 
ATOM     13  C   UNL     1       3.904  -1.061   1.552  0.00  0.00    +0.005 C 
ATOM     14  C   UNL     1       4.335   0.343   1.987  0.00  0.00    +0.005 C 
ATOM     15  C   UNL     1       3.742   1.385   1.038  0.00  0.00    +0.037 C 
ATOM     16  N   UNL     1       2.928   3.966  -0.005  0.00  0.00    -0.249 N 
ATOM     17  H   UNL     1       3.662   3.334   0.057  0.00  0.00    +0.172 HD
ENDBRANCH   1  16
BRANCH   1  18
ATOM     18  C   UNL     1       4.463   5.781  -0.117  0.00  0.00    +0.153 C 
ATOM     19  S   UNL     1       4.784   7.458  -0.240  0.00  0.00    -0.017 S 
BRANCH  18  20
ATOM     20  N   UNL     1       5.483   4.905  -0.030  0.00  0.00    -0.266 N 
ATOM     21  C   UNL     1       6.756   5.348  -0.041  0.00  0.00    +0.225 C 
ATOM     22  O   UNL     1       6.983   6.536  -0.128  0.00  0.00    -0.275 OA
ATOM     23  H   UNL     1       5.301   3.954   0.040  0.00  0.00    +0.157 HD
BRANCH  21  24
ATOM     24  C   UNL     1       7.896   4.368   0.056  0.00  0.00    +0.048 C 
ATOM     25  C   UNL     1       7.787   3.587   1.367  0.00  0.00    +0.019 C 
ATOM     26  C   UNL     1       8.945   2.591   1.466  0.00  0.00    -0.009 C 
ATOM     27  C   UNL     1      10.274   3.349   1.432  0.00  0.00    +0.007 C 
ATOM     28  C   UNL     1      10.382   4.130   0.121  0.00  0.00    -0.009 C 
ATOM     29  C   UNL     1       9.225   5.126   0.022  0.00  0.00    +0.019 C 
ATOM     30  C   UNL     1      10.320   3.158  -1.059  0.00  0.00    +0.007 C 
ATOM     31  C   UNL     1       8.992   2.400  -1.025  0.00  0.00    -0.009 C 
ATOM     32  C   UNL     1       8.883   1.619   0.286  0.00  0.00    +0.007 C 
ATOM     33  C   UNL     1       7.834   3.395  -1.123  0.00  0.00    +0.019 C 
ENDBRANCH  21  24
ENDBRANCH  18  20
ENDBRANCH   1  18
TORSDOF 4
