REMARK  Name = ZINC20562398
REMARK  3 active torsions:
REMARK  status: ('A' for Active; 'I' for Inactive)
REMARK    1  A    between atoms: C_1  and  C_2
REMARK    2  A    between atoms: C_2  and  N_3
REMARK    3  A    between atoms: C_14  and  C_17
REMARK                            x       y       z     vdW  Elec       q    Type
REMARK                         _______ _______ _______ _____ _____    ______ ____
ROOT
ATOM      1  N   UNL     1       2.033  -2.649   6.917  0.00  0.00    +0.383 N 
ATOM      2  C   UNL     1       0.916  -3.519   6.522  0.00  0.00    -0.074 C 
ATOM      3  C   UNL     1       0.328  -3.049   5.189  0.00  0.00    +0.018 C 
ATOM      4  C   UNL     1       1.468  -2.909   4.188  0.00  0.00    -0.027 A 
ATOM      5  C   UNL     1       2.747  -2.839   4.625  0.00  0.00    -0.021 A 
ATOM      6  S   UNL     1       3.725  -2.691   3.156  0.00  0.00    -0.080 S 
ATOM      7  C   UNL     1       2.468  -2.721   1.993  0.00  0.00    +0.080 A 
ATOM      8  C   UNL     1       1.291  -2.844   2.748  0.00  0.00    +0.068 A 
ATOM      9  C   UNL     1       0.008  -2.892   2.010  0.00  0.00    +0.248 C 
ATOM     10  O   UNL     1      -1.044  -3.111   2.582  0.00  0.00    -0.270 OA
ATOM     11  N   UNL     1       0.052  -2.685   0.677  0.00  0.00    -0.289 N 
ATOM     12  C   UNL     1       1.233  -2.186  -0.021  0.00  0.00    +0.194 C 
ATOM     13  N   UNL     1       2.473  -2.654   0.624  0.00  0.00    -0.316 N 
ATOM     14  C   UNL     1       3.204  -2.879   6.050  0.00  0.00    -0.035 C 
ATOM     15  H   UNL     1      -0.865  -2.913   0.114  0.00  0.00    +0.151 HD
ATOM     16  H   UNL     1       3.343  -2.929   0.009  0.00  0.00    +0.149 HD
ATOM     17  H   UNL     1       1.710  -1.604   6.793  0.00  0.00    -0.081 HD
ENDROOT
BRANCH  12  18
ATOM     18  C   UNL     1       1.211  -0.679  -0.013  0.00  0.00    +0.044 A 
ATOM     19  C   UNL     1       0.002  -0.004   0.002  0.00  0.00    +0.131 A 
ATOM     20  C   UNL     1      -0.017   1.380   0.010  0.00  0.00    +0.039 A 
ATOM     21  C   UNL     1       1.171   2.088   0.002  0.00  0.00    +0.004 A 
ATOM     22  C   UNL     1       2.377   1.414  -0.013  0.00  0.00    +0.020 A 
ATOM     23  C   UNL     1       2.398   0.030  -0.021  0.00  0.00    +0.050 A 
ATOM     24 CL   UNL     1       3.914  -0.815  -0.039  0.00  0.00    -0.083 Cl
ATOM     25  F   UNL     1      -1.158  -0.696   0.010  0.00  0.00    -0.205 F 
ENDBRANCH  12  18
BRANCH   1  27
ATOM     26  C   UNL     1       3.372  -1.766   8.767  0.00  0.00    -0.017 C 
ATOM     27  C   UNL     1       2.378  -2.844   8.331  0.00  0.00    -0.082 C 
ENDBRANCH   1  27
TORSDOF 2
