REMARK  Name = ZINC64764825
REMARK  6 active torsions:
REMARK  status: ('A' for Active; 'I' for Inactive)
REMARK    1  A    between atoms: C_1  and  C_2
REMARK    2  A    between atoms: C_4  and  C_7
REMARK    3  A    between atoms: C_7  and  N_8
REMARK    4  A    between atoms: N_8  and  C_9
REMARK    5  A    between atoms: N_12  and  C_13
REMARK    6  A    between atoms: C_13  and  C_14
REMARK                            x       y       z     vdW  Elec       q    Type
REMARK                         _______ _______ _______ _____ _____    ______ ____
ROOT
ATOM      1  N   UNL     1      -1.691  -3.832  -1.387  0.00  0.00    -0.283 N 
ATOM      2  C   UNL     1      -0.756  -4.794  -1.975  0.00  0.00    +0.134 C 
ATOM      3  C   UNL     1      -2.728  -3.369  -2.114  0.00  0.00    +0.303 C 
ATOM      4  O   UNL     1      -3.504  -2.571  -1.626  0.00  0.00    -0.253 OA
ATOM      5  N   UNL     1      -2.904  -3.793  -3.381  0.00  0.00    -0.295 N 
ATOM      6  H   UNL     1      -2.285  -4.430  -3.771  0.00  0.00    +0.151 HD
ENDROOT
BRANCH   1   7
ATOM      7  C   UNL     1      -1.500  -3.372  -0.010  0.00  0.00    +0.167 C 
BRANCH   7  11
ATOM      8  C   UNL     1      -0.018   1.503   0.010  0.00  0.00    +0.089 C 
ATOM      9  C   UNL     1       0.002  -0.004   0.002  0.00  0.00    +0.135 A 
ATOM     10  C   UNL     1      -1.077  -0.810   0.003  0.00  0.00    +0.072 A 
ATOM     11  C   UNL     1      -0.627  -2.143  -0.007  0.00  0.00    +0.101 A 
ATOM     12  N   UNL     1       0.676  -2.130  -0.013  0.00  0.00    -0.081 NA
ATOM     13  O   UNL     1       1.098  -0.778  -0.013  0.00  0.00    -0.360 OA
ENDBRANCH   7  11
ENDBRANCH   1   7
BRANCH   5  14
ATOM     14  C   UNL     1      -4.031  -3.290  -4.171  0.00  0.00    +0.141 C 
BRANCH  14  15
ATOM     15  C   UNL     1      -4.001  -3.915  -5.543  0.00  0.00    -0.026 A 
ATOM     16  C   UNL     1      -3.302  -3.300  -6.565  0.00  0.00    +0.054 A 
ATOM     17  C   UNL     1      -3.273  -3.872  -7.827  0.00  0.00    +0.168 A 
ATOM     18  C   UNL     1      -3.949  -5.066  -8.062  0.00  0.00    +0.180 A 
ATOM     19  C   UNL     1      -4.648  -5.677  -7.033  0.00  0.00    +0.064 A 
ATOM     20  C   UNL     1      -4.668  -5.103  -5.774  0.00  0.00    +0.024 A 
ATOM     21 BR   UNL     1      -5.568  -7.299  -7.347  0.00  0.00    -0.046 Br
ATOM     22  O   UNL     1      -3.769  -5.420  -9.368  0.00  0.00    -0.451 OA
ATOM     23  C   UNL     1      -3.319  -4.224 -10.031  0.00  0.00    +0.466 C 
ATOM     24  O   UNL     1      -2.669  -3.477  -8.986  0.00  0.00    -0.453 OA
ENDBRANCH  14  15
ENDBRANCH   5  14
TORSDOF 4
