REMARK  Name = ZINC04647345
REMARK  11 active torsions:
REMARK  status: ('A' for Active; 'I' for Inactive)
REMARK    1  A    between atoms: C_1  and  C_2
REMARK    2  A    between atoms: C_2  and  C_24
REMARK    3  A    between atoms: N_3  and  O_4
REMARK    4  A    between atoms: O_4  and  C_5
REMARK    5  A    between atoms: C_5  and  C_6
REMARK    6  A    between atoms: N_8  and  C_9
REMARK    7  A    between atoms: C_10  and  C_22
REMARK    8  A    between atoms: C_14  and  C_20
REMARK    9  A    between atoms: C_14  and  C_21
REMARK   10  A    between atoms: C_16  and  C_18
REMARK   11  A    between atoms: C_16  and  C_19
REMARK                            x       y       z     vdW  Elec       q    Type
REMARK                         _______ _______ _______ _____ _____    ______ ____
ROOT
ATOM      1  C   UNL     1       0.119  -6.317   3.278  0.00  0.00    +0.090 A 
ATOM      2  C   UNL     1       0.142  -7.257   4.298  0.00  0.00    +0.084 A 
ATOM      3  C   UNL     1       0.159  -8.648   3.908  0.00  0.00    -0.021 A 
ATOM      4  C   UNL     1       0.156  -8.858   2.570  0.00  0.00    -0.015 A 
ATOM      5  S   UNL     1       0.118  -7.235   1.871  0.00  0.00    -0.078 S 
ATOM      6  C   UNL     1       0.188 -10.182   1.881  0.00  0.00    -0.041 C 
ATOM      7  N   UNL     1       0.024 -11.296   2.813  0.00  0.00    +0.389 N 
ATOM      8  C   UNL     1      -0.574 -10.984   4.104  0.00  0.00    -0.069 C 
ATOM      9  C   UNL     1       0.174  -9.858   4.829  0.00  0.00    +0.024 C 
ATOM     10  C   UNL     1      -2.048 -10.601   3.953  0.00  0.00    -0.010 C 
ATOM     11  C   UNL     1      -0.502 -12.243   4.989  0.00  0.00    -0.010 C 
ATOM     12  C   UNL     1       1.552 -10.325   1.177  0.00  0.00    -0.005 C 
ATOM     13  C   UNL     1      -0.904 -10.225   0.804  0.00  0.00    -0.005 C 
ATOM     14  H   UNL     1      -0.539 -12.018   2.361  0.00  0.00    -0.084 HD
ATOM     15  H   UNL     1       0.939 -11.721   2.974  0.00  0.00    -0.084 HD
ENDROOT
BRANCH   1  18
ATOM     16  C   UNL     1       0.080  -4.164   2.289  0.00  0.00    +0.258 C 
ATOM     17  O   UNL     1       0.077  -4.680   1.191  0.00  0.00    -0.272 OA
ATOM     18  N   UNL     1       0.101  -4.934   3.395  0.00  0.00    -0.276 N 
ATOM     19  H   UNL     1       0.104  -4.522   4.273  0.00  0.00    +0.155 HD
BRANCH  16  20
ATOM     20  C   UNL     1       0.061  -2.663   2.416  0.00  0.00    +0.358 C 
BRANCH  20  21
ATOM     21  O   UNL     1       0.041  -2.075   1.114  0.00  0.00    -0.384 OA
BRANCH  21  24
ATOM     22  C   UNL     1      -0.018   1.503   0.010  0.00  0.00    +0.070 C 
ATOM     23  C   UNL     1       0.002  -0.004   0.002  0.00  0.00    +0.091 C 
ATOM     24  N   UNL     1       0.022  -0.659   1.122  0.00  0.00    -0.088 NA
BRANCH  23  25
ATOM     25  C   UNL     1      -0.000  -0.731  -1.272  0.00  0.00    +0.036 A 
ATOM     26  C   UNL     1       0.011  -2.096  -1.498  0.00  0.00    +0.017 A 
ATOM     27  C   UNL     1       0.006  -2.544  -2.798  0.00  0.00    +0.008 A 
ATOM     28  C   UNL     1      -0.009  -1.639  -3.813  0.00  0.00    +0.046 A 
ATOM     29  S   UNL     1      -0.025  -0.085  -2.937  0.00  0.00    -0.095 S 
ENDBRANCH  23  25
ENDBRANCH  21  24
ENDBRANCH  20  21
ENDBRANCH  16  20
ENDBRANCH   1  18
BRANCH   2  30
ATOM     30  C   UNL     1       0.151  -6.854   5.673  0.00  0.00    +0.102 C 
ATOM     31  N   UNL     1       0.158  -6.535   6.763  0.00  0.00    -0.191 NA
ENDBRANCH   2  30
TORSDOF 6
