REMARK  Name = ZINC03852038
REMARK  3 active torsions:
REMARK  status: ('A' for Active; 'I' for Inactive)
REMARK    1  A    between atoms: C_4  and  C_7
REMARK    2  A    between atoms: N_9  and  C_18
REMARK    3  A    between atoms: N_14  and  N_17
REMARK                            x       y       z     vdW  Elec       q    Type
REMARK                         _______ _______ _______ _____ _____    ______ ____
ROOT
ATOM      1  C   UNL     1       3.659   2.163  -0.022  0.00  0.00    +0.013 A 
ATOM      2  C   UNL     1       4.722   1.976   0.805  0.00  0.00    +0.102 A 
ATOM      3  N   UNL     1       5.709   2.866   0.482  0.00  0.00    -0.300 N 
ATOM      4  C   UNL     1       5.310   3.662  -0.557  0.00  0.00    +0.151 A 
ATOM      5  C   UNL     1       4.022   3.263  -0.918  0.00  0.00    +0.068 A 
ATOM      6  C   UNL     1       3.354   3.962  -2.018  0.00  0.00    +0.135 A 
ATOM      7  N   UNL     1       2.143   3.634  -2.403  0.00  0.00    -0.383 N 
ATOM      8  N   UNL     1       4.055   4.984  -2.635  0.00  0.00    -0.241 N 
ATOM      9  C   UNL     1       5.308   5.293  -2.205  0.00  0.00    +0.222 A 
ATOM     10  N   UNL     1       5.896   4.670  -1.228  0.00  0.00    -0.217 NA
ATOM     11  H   UNL     1       1.664   4.174  -3.233  0.00  0.00    +0.157 HD
ATOM     12  H   UNL     1       1.608   2.817  -1.897  0.00  0.00    +0.157 HD
ENDROOT
BRANCH   3  13
ATOM     13  C   UNL     1       6.950   2.955   1.127  0.00  0.00    +0.048 A 
ATOM     14  C   UNL     1       8.122   2.971   0.383  0.00  0.00    +0.027 A 
ATOM     15  C   UNL     1       9.343   3.063   1.021  0.00  0.00    +0.022 A 
ATOM     16  C   UNL     1       9.400   3.129   2.402  0.00  0.00    +0.041 A 
ATOM     17  C   UNL     1       8.234   3.108   3.147  0.00  0.00    +0.022 A 
ATOM     18  C   UNL     1       7.010   3.021   2.513  0.00  0.00    +0.027 A 
ATOM     19 CL   UNL     1      10.937   3.239   3.202  0.00  0.00    -0.084 Cl
ENDBRANCH   3  13
BRANCH   1  23
ATOM     20  C   UNL     1       0.002  -0.004   0.002  0.00  0.00    +0.000 A 
ATOM     21  C   UNL     1      -0.017   1.379   0.010  0.00  0.00    +0.001 A 
ATOM     22  C   UNL     1       1.167   2.088   0.002  0.00  0.00    +0.008 A 
ATOM     23  C   UNL     1       2.384   1.407  -0.014  0.00  0.00    -0.016 A 
ATOM     24  C   UNL     1       2.397   0.013  -0.021  0.00  0.00    +0.008 A 
ATOM     25  C   UNL     1       1.206  -0.685  -0.013  0.00  0.00    +0.001 A 
ENDBRANCH   1  23
BRANCH   8  26
ATOM     26  N   UNL     1       3.492   5.678  -3.668  0.00  0.00    -0.296 N 
ATOM     27  H   UNL     1       4.052   6.490  -4.155  0.00  0.00    +0.163 HD
ATOM     28  H   UNL     1       2.478   5.426  -4.012  0.00  0.00    +0.163 HD
ENDBRANCH   8  26
TORSDOF 3
