REMARK  Name = ZINC12590882
REMARK  7 active torsions:
REMARK  status: ('A' for Active; 'I' for Inactive)
REMARK    1  A    between atoms: C_1  and  C_2
REMARK    2  A    between atoms: C_5  and  N_8
REMARK    3  A    between atoms: C_10  and  C_20
REMARK    4  A    between atoms: C_11  and  C_13
REMARK    5  A    between atoms: C_20  and  N_46
REMARK    6  A    between atoms: C_21  and  C_22
REMARK    7  A    between atoms: C_21  and  N_46
REMARK                            x       y       z     vdW  Elec       q    Type
REMARK                         _______ _______ _______ _____ _____    ______ ____
ROOT
ATOM      1  N   UNL     1       6.775   5.130  -0.454  0.00  0.00    -0.239 N 
ATOM      2  C   UNL     1       6.391   3.913  -0.921  0.00  0.00    +0.116 A 
ATOM      3  C   UNL     1       5.887   3.211   0.117  0.00  0.00    -0.019 A 
ATOM      4  C   UNL     1       5.972   4.019   1.268  0.00  0.00    +0.094 A 
ATOM      5  N   UNL     1       6.506   5.171   0.920  0.00  0.00    -0.166 NA
ENDROOT
BRANCH   1  10
ATOM      6  C   UNL     1       9.088   9.303  -3.526  0.00  0.00    +0.044 C 
ATOM      7  C   UNL     1       8.474   8.195  -2.710  0.00  0.00    -0.050 A 
ATOM      8  C   UNL     1       8.263   8.371  -1.355  0.00  0.00    +0.005 A 
ATOM      9  C   UNL     1       7.700   7.357  -0.605  0.00  0.00    +0.028 A 
ATOM     10  C   UNL     1       7.346   6.160  -1.213  0.00  0.00    +0.065 A 
ATOM     11  C   UNL     1       7.564   5.984  -2.572  0.00  0.00    +0.028 A 
ATOM     12  C   UNL     1       8.122   7.004  -3.318  0.00  0.00    +0.005 A 
ENDBRANCH   1  10
BRANCH   4  13
ATOM     13  C   UNL     1       5.535   3.638   2.634  0.00  0.00    +0.002 A 
ATOM     14  C   UNL     1       4.323   2.977   2.821  0.00  0.00    +0.013 A 
ATOM     15  C   UNL     1       3.924   2.620   4.093  0.00  0.00    +0.039 A 
ATOM     16  C   UNL     1       4.721   2.928   5.184  0.00  0.00    +0.123 A 
ATOM     17  C   UNL     1       5.924   3.590   5.003  0.00  0.00    +0.039 A 
ATOM     18  C   UNL     1       6.334   3.946   3.734  0.00  0.00    +0.013 A 
ATOM     19  F   UNL     1       4.323   2.581   6.428  0.00  0.00    -0.205 F 
ENDBRANCH   4  13
BRANCH   3  20
ATOM     20  C   UNL     1       5.339   1.809   0.056  0.00  0.00    -0.042 C 
BRANCH  20  21
ATOM     21  N   UNL     1       6.310   0.883   0.669  0.00  0.00    +0.387 N 
ATOM     22  H   UNL     1       6.533   1.205   1.618  0.00  0.00    -0.085 HD
ATOM     23  H   UNL     1       7.167   0.867   0.103  0.00  0.00    -0.085 HD
BRANCH  21  24
ATOM     24  C   UNL     1       5.747  -0.479   0.736  0.00  0.00    -0.005 C 
BRANCH  24  25
ATOM     25  C   UNL     1       6.760  -1.401   1.365  0.00  0.00    +0.114 A 
ATOM     26  N   UNL     1       6.585  -2.745   1.591  0.00  0.00    -0.295 N 
ATOM     27  H   UNL     1       5.791  -3.259   1.374  0.00  0.00    +0.172 HD
ATOM     28  C   UNL     1       7.703  -3.226   2.172  0.00  0.00    +0.341 A 
ATOM     29  O   UNL     1       7.898  -4.378   2.516  0.00  0.00    -0.245 OA
ATOM     30  N   UNL     1       8.567  -2.197   2.298  0.00  0.00    -0.227 N 
ATOM     31  H   UNL     1       9.457  -2.238   2.679  0.00  0.00    +0.194 HD
ATOM     32  N   UNL     1       7.936  -1.057   1.781  0.00  0.00    -0.159 NA
ENDBRANCH  24  25
ENDBRANCH  21  24
ENDBRANCH  20  21
ENDBRANCH   3  20
TORSDOF 6
