REMARK  Name = ZINC08546885
REMARK  6 active torsions:
REMARK  status: ('A' for Active; 'I' for Inactive)
REMARK    1  A    between atoms: C_4  and  N_9
REMARK    2  A    between atoms: C_5  and  C_6
REMARK    3  A    between atoms: C_10  and  C_12
REMARK    4  A    between atoms: C_12  and  O_13
REMARK    5  A    between atoms: O_13  and  C_14
REMARK    6  A    between atoms: C_14  and  C_16
REMARK                            x       y       z     vdW  Elec       q    Type
REMARK                         _______ _______ _______ _____ _____    ______ ____
ROOT
ATOM      1  N   UNL     1       1.143   1.898   0.001  0.00  0.00    -0.277 N 
ATOM      2  C   UNL     1      -0.014   1.209   0.009  0.00  0.00    +0.255 C 
ATOM      3  O   UNL     1       0.002  -0.004   0.002  0.00  0.00    -0.272 OA
ATOM      4  H   UNL     1       1.130   2.868   0.007  0.00  0.00    +0.155 HD
ENDROOT
BRANCH   1   8
ATOM      5  C   UNL     1       4.730   0.805  -0.038  0.00  0.00    +0.022 A 
ATOM      6  C   UNL     1       4.410  -0.501  -0.043  0.00  0.00    +0.048 A 
ATOM      7  S   UNL     1       2.630  -0.488  -0.026  0.00  0.00    -0.081 S 
ATOM      8  C   UNL     1       2.354   1.221  -0.014  0.00  0.00    +0.084 A 
ATOM      9  C   UNL     1       3.639   1.750  -0.029  0.00  0.00    +0.065 A 
BRANCH   9  10
ATOM     10  C   UNL     1       3.875   3.198  -0.031  0.00  0.00    +0.244 C 
ATOM     11  O   UNL     1       2.932   3.968  -0.019  0.00  0.00    -0.270 OA
ATOM     12  N   UNL     1       5.135   3.675  -0.046  0.00  0.00    -0.325 N 
ATOM     13  H   UNL     1       5.886   3.061  -0.055  0.00  0.00    +0.145 HD
ATOM     14  H   UNL     1       5.291   4.632  -0.047  0.00  0.00    +0.145 HD
ENDBRANCH   9  10
ENDBRANCH   1   8
BRANCH   2  15
ATOM     15  C   UNL     1      -1.330   1.944   0.019  0.00  0.00    +0.328 C 
BRANCH  15  16
ATOM     16  O   UNL     1      -2.420   0.986   0.019  0.00  0.00    -0.452 OA
BRANCH  16  17
ATOM     17  C   UNL     1      -3.672   1.484   0.028  0.00  0.00    +0.340 C 
ATOM     18  O   UNL     1      -3.848   2.686   0.035  0.00  0.00    -0.245 OA
BRANCH  17  19
ATOM     19  C   UNL     1      -4.830   0.570   0.028  0.00  0.00    +0.064 A 
ATOM     20  C   UNL     1      -6.129   1.085   0.037  0.00  0.00    +0.064 A 
ATOM     21  C   UNL     1      -7.210   0.226   0.037  0.00  0.00    +0.168 A 
ATOM     22  C   UNL     1      -7.005  -1.155   0.029  0.00  0.00    +0.184 A 
ATOM     23  C   UNL     1      -5.713  -1.666   0.021  0.00  0.00    +0.087 A 
ATOM     24  C   UNL     1      -4.630  -0.813   0.014  0.00  0.00    +0.039 A 
ATOM     25 CL   UNL     1      -5.462  -3.384   0.010  0.00  0.00    -0.080 Cl
ATOM     26  O   UNL     1      -8.219  -1.775   0.031  0.00  0.00    -0.451 OA
ATOM     27  C   UNL     1      -9.167  -0.769  -0.373  0.00  0.00    +0.466 C 
ATOM     28  O   UNL     1      -8.555   0.465   0.044  0.00  0.00    -0.453 OA
ENDBRANCH  17  19
ENDBRANCH  16  17
ENDBRANCH  15  16
ENDBRANCH   2  15
TORSDOF 6
