REMARK  Name = ZINC15336330
REMARK  15 active torsions:
REMARK  status: ('A' for Active; 'I' for Inactive)
REMARK    1  A    between atoms: C_1  and  C_2
REMARK    2  A    between atoms: C_2  and  C_3
REMARK    3  A    between atoms: C_3  and  O_4
REMARK    4  A    between atoms: O_4  and  C_5
REMARK    5  A    between atoms: C_8  and  C_15
REMARK    6  A    between atoms: C_10  and  O_11
REMARK    7  A    between atoms: O_11  and  C_12
REMARK    8  A    between atoms: C_12  and  C_13
REMARK    9  A    between atoms: C_13  and  C_14
REMARK   10  A    between atoms: C_15  and  C_17
REMARK   11  A    between atoms: C_15  and  N_18
REMARK   12  A    between atoms: N_18  and  S_19
REMARK   13  A    between atoms: S_19  and  C_22
REMARK   14  A    between atoms: N_24  and  C_31
REMARK   15  A    between atoms: N_27  and  C_30
REMARK                            x       y       z     vdW  Elec       q    Type
REMARK                         _______ _______ _______ _____ _____    ______ ____
ROOT
ATOM      1  C   UNL     1       3.243  -4.423  -5.653  0.00  0.00    +0.103 C 
ATOM      2  C   UNL     1       4.759  -4.417  -5.446  0.00  0.00    +0.031 C 
ENDROOT
BRANCH   1   6
ATOM      3  C   UNL     1       1.342  -2.530  -2.323  0.00  0.00    +0.162 A 
ATOM      4  C   UNL     1       1.908  -1.763  -3.329  0.00  0.00    +0.050 A 
ATOM      5  C   UNL     1       2.522  -2.378  -4.404  0.00  0.00    +0.009 A 
ATOM      6  C   UNL     1       2.573  -3.758  -4.479  0.00  0.00    -0.025 A 
ATOM      7  C   UNL     1       2.009  -4.529  -3.479  0.00  0.00    +0.054 A 
ATOM      8  C   UNL     1       1.397  -3.918  -2.396  0.00  0.00    +0.162 A 
BRANCH   3   9
ATOM      9  O   UNL     1       0.738  -1.926  -1.265  0.00  0.00    -0.488 OA
BRANCH   9  10
ATOM     10  C   UNL     1       0.718  -0.497  -1.257  0.00  0.00    +0.229 C 
BRANCH  10  12
ATOM     11  C   UNL     1      -0.019   1.526   0.010  0.00  0.00    +0.007 C 
ATOM     12  C   UNL     1       0.002  -0.004   0.002  0.00  0.00    +0.038 C 
ENDBRANCH  10  12
ENDBRANCH   9  10
ENDBRANCH   3   9
BRANCH   8  13
ATOM     13  O   UNL     1       0.847  -4.675  -1.408  0.00  0.00    -0.488 OA
BRANCH  13  14
ATOM     14  C   UNL     1       0.942  -6.094  -1.549  0.00  0.00    +0.229 C 
BRANCH  14  15
ATOM     15  C   UNL     1       0.273  -6.771  -0.352  0.00  0.00    +0.038 C 
ATOM     16  C   UNL     1       0.374  -8.290  -0.503  0.00  0.00    +0.007 C 
ENDBRANCH  14  15
ENDBRANCH  13  14
ENDBRANCH   8  13
ENDBRANCH   1   6
BRANCH   1  17
ATOM     17  N   UNL     1       2.915  -3.694  -6.880  0.00  0.00    -0.183 NA
ATOM     18  H   UNL     1       2.814  -2.729  -6.859  0.00  0.00    +0.149 HD
BRANCH  17  19
ATOM     19  S   UNL     1       2.715  -4.516  -8.304  0.00  0.00    +0.065 S 
ATOM     20  O   UNL     1       2.382  -3.547  -9.289  0.00  0.00    -0.153 OA
ATOM     21  O   UNL     1       3.835  -5.380  -8.434  0.00  0.00    -0.153 OA
BRANCH  19  22
ATOM     22  C   UNL     1       1.300  -5.549  -8.115  0.00  0.00    +0.186 A 
ATOM     23  C   UNL     1       1.444  -6.879  -7.932  0.00  0.00    +0.124 A 
ATOM     24  N   UNL     1       0.335  -7.666  -7.787  0.00  0.00    -0.301 N 
ATOM     25  C   UNL     1      -0.898  -7.128  -7.826  0.00  0.00    +0.332 A 
ATOM     26  O   UNL     1      -1.870  -7.847  -7.696  0.00  0.00    -0.246 OA
ATOM     27  N   UNL     1      -1.070  -5.806  -8.008  0.00  0.00    -0.262 N 
ATOM     28  C   UNL     1      -0.002  -4.995  -8.149  0.00  0.00    +0.283 A 
ATOM     29  O   UNL     1      -0.157  -3.797  -8.307  0.00  0.00    -0.265 OA
ATOM     30  C   UNL     1      -2.422  -5.245  -8.047  0.00  0.00    +0.157 C 
ATOM     31  C   UNL     1       0.490  -9.109  -7.588  0.00  0.00    +0.153 C 
ENDBRANCH  19  22
ENDBRANCH  17  19
ENDBRANCH   1  17
TORSDOF 10
