REMARK  Name = ZINC13139149
REMARK  12 active torsions:
REMARK  status: ('A' for Active; 'I' for Inactive)
REMARK    1  A    between atoms: C_1  and  C_2
REMARK    2  A    between atoms: C_2  and  C_3
REMARK    3  A    between atoms: C_3  and  C_4
REMARK    4  A    between atoms: C_3  and  C_5
REMARK    5  A    between atoms: C_3  and  N_13
REMARK    6  A    between atoms: N_7  and  C_8
REMARK    7  A    between atoms: N_13  and  C_14
REMARK    8  A    between atoms: C_15  and  C_27
REMARK    9  A    between atoms: N_16  and  C_26
REMARK   10  A    between atoms: N_17  and  C_20
REMARK   11  A    between atoms: C_28  and  C_30
REMARK   12  A    between atoms: C_30  and  C_31
REMARK                            x       y       z     vdW  Elec       q    Type
REMARK                         _______ _______ _______ _____ _____    ______ ____
ROOT
ATOM      1  N   UNL     1       2.333  -0.168  -1.638  0.00  0.00    -0.251 N 
ATOM      2  C   UNL     1       2.230   1.135  -1.970  0.00  0.00    +0.223 C 
ATOM      3  O   UNL     1       3.097   1.915  -1.638  0.00  0.00    -0.275 OA
ENDROOT
BRANCH   1   4
ATOM      4  C   UNL     1       2.663  -0.534  -0.318  0.00  0.00    +0.125 A 
ATOM      5  C   UNL     1       3.605   0.042   0.462  0.00  0.00    +0.060 A 
ATOM      6  N   UNL     1       3.621  -0.599   1.673  0.00  0.00    -0.282 N 
ATOM      7  N   UNL     1       2.660  -1.617   1.667  0.00  0.00    -0.216 N 
ATOM      8  C   UNL     1       2.047  -1.606   0.465  0.00  0.00    +0.294 A 
ATOM      9  O   UNL     1       1.153  -2.348   0.101  0.00  0.00    -0.264 OA
ATOM     10  C   UNL     1       4.504  -0.272   2.795  0.00  0.00    +0.171 C 
ATOM     11  C   UNL     1       4.489   1.196   0.067  0.00  0.00    +0.067 C 
BRANCH   7  12
ATOM     12  C   UNL     1       2.380  -2.489   2.724  0.00  0.00    +0.067 A 
ATOM     13  C   UNL     1       1.841  -3.743   2.467  0.00  0.00    +0.028 A 
ATOM     14  C   UNL     1       1.566  -4.601   3.514  0.00  0.00    +0.002 A 
ATOM     15  C   UNL     1       1.827  -4.214   4.815  0.00  0.00    +0.000 A 
ATOM     16  C   UNL     1       2.363  -2.966   5.074  0.00  0.00    +0.002 A 
ATOM     17  C   UNL     1       2.646  -2.104   4.032  0.00  0.00    +0.028 A 
ENDBRANCH   7  12
ENDBRANCH   1   4
BRANCH   1  18
ATOM     18  C   UNL     1       2.101  -1.202  -2.650  0.00  0.00    +0.115 C 
ATOM     19  C   UNL     1       3.396  -1.460  -3.421  0.00  0.00    +0.042 C 
BRANCH  18  20
ATOM     20  C   UNL     1       1.030  -0.739  -3.604  0.00  0.00    +0.237 C 
ATOM     21  O   UNL     1       1.240  -0.745  -4.799  0.00  0.00    -0.273 OA
ATOM     22  N   UNL     1      -0.159  -0.319  -3.131  0.00  0.00    -0.311 N 
ATOM     23  H   UNL     1      -0.272  -0.152  -2.182  0.00  0.00    +0.149 HD
BRANCH  22  24
ATOM     24  C   UNL     1      -1.282  -0.113  -4.050  0.00  0.00    +0.073 C 
ATOM     25  C   UNL     1      -1.197   1.291  -4.682  0.00  0.00    +0.022 C 
ATOM     26  C   UNL     1      -2.671   1.755  -4.778  0.00  0.00    +0.002 C 
ATOM     27  C   UNL     1      -3.288   1.206  -3.467  0.00  0.00    +0.002 C 
ATOM     28  C   UNL     1      -2.612  -0.167  -3.277  0.00  0.00    +0.022 C 
ENDBRANCH  22  24
ENDBRANCH  18  20
BRANCH  18  30
ATOM     29  C   UNL     1       0.174  -2.376  -1.576  0.00  0.00    +0.006 C 
ATOM     30  C   UNL     1       1.649  -2.493  -1.964  0.00  0.00    +0.032 C 
ENDBRANCH  18  30
ENDBRANCH   1  18
BRANCH   2  31
ATOM     31  C   UNL     1       1.038   1.621  -2.753  0.00  0.00    +0.128 C 
BRANCH  31  32
ATOM     32  C   UNL     1       1.318   3.027  -3.288  0.00  0.00    +0.169 C 
ATOM     33  C   UNL     1       0.221   3.464  -4.239  0.00  0.00    +0.241 C 
ATOM     34  O   UNL     1      -0.955   3.607  -3.983  0.00  0.00    -0.273 OA
ATOM     35  N   UNL     1       0.826   3.662  -5.426  0.00  0.00    -0.239 N 
ATOM     36  C   UNL     1       2.139   3.413  -5.359  0.00  0.00    +0.307 C 
ATOM     37  O   UNL     1       2.897   3.522  -6.303  0.00  0.00    -0.252 OA
ATOM     38  N   UNL     1       2.529   3.030  -4.127  0.00  0.00    -0.287 N 
ATOM     39  H   UNL     1       0.366   3.949  -6.231  0.00  0.00    +0.159 HD
ATOM     40  H   UNL     1       3.429   2.802  -3.846  0.00  0.00    +0.151 HD
ENDBRANCH  31  32
ENDBRANCH   2  31
TORSDOF 8
