REMARK  Name = ZINC02846478
REMARK  7 active torsions:
REMARK  status: ('A' for Active; 'I' for Inactive)
REMARK    1  A    between atoms: C_1  and  C_2
REMARK    2  A    between atoms: C_5  and  C_8
REMARK    3  A    between atoms: C_10  and  C_13
REMARK    4  A    between atoms: C_13  and  N_14
REMARK    5  A    between atoms: N_14  and  C_15
REMARK    6  A    between atoms: C_18  and  O_21
REMARK    7  A    between atoms: O_21  and  C_22
REMARK                            x       y       z     vdW  Elec       q    Type
REMARK                         _______ _______ _______ _____ _____    ______ ____
ROOT
ATOM      1  N   UNL     1      -1.279   1.992   0.060  0.00  0.00    -0.335 N 
ATOM      2  H   UNL     1      -2.103   1.483   0.108  0.00  0.00    +0.147 HD
ENDROOT
BRANCH   1   3
ATOM      3  C   UNL     1      -0.047   1.328   0.040  0.00  0.00    +0.028 A 
ATOM      4  C   UNL     1       1.133   2.055  -0.035  0.00  0.00    +0.026 A 
ATOM      5  C   UNL     1       2.348   1.399  -0.059  0.00  0.00    +0.048 A 
ATOM      6  C   UNL     1       2.389   0.013  -0.011  0.00  0.00    +0.129 A 
ATOM      7  C   UNL     1       1.210  -0.714   0.064  0.00  0.00    +0.048 A 
ATOM      8  C   UNL     1      -0.005  -0.059   0.089  0.00  0.00    +0.026 A 
BRANCH   6   9
ATOM      9  O   UNL     1       3.586  -0.632  -0.036  0.00  0.00    -0.456 OA
BRANCH   9  10
ATOM     10  C   UNL     1       3.884  -1.380  -1.130  0.00  0.00    +0.128 A 
ATOM     11  C   UNL     1       3.037  -1.373  -2.229  0.00  0.00    +0.046 A 
ATOM     12  C   UNL     1       3.346  -2.131  -3.342  0.00  0.00    +0.004 A 
ATOM     13  C   UNL     1       4.492  -2.904  -3.357  0.00  0.00    +0.000 A 
ATOM     14  C   UNL     1       5.335  -2.917  -2.261  0.00  0.00    +0.004 A 
ATOM     15  C   UNL     1       5.034  -2.158  -1.148  0.00  0.00    +0.046 A 
ENDBRANCH   9  10
ENDBRANCH   6   9
ENDBRANCH   1   3
BRANCH   1  16
ATOM     16  C   UNL     1      -1.323   3.455   0.008  0.00  0.00    +0.200 C 
BRANCH  16  19
ATOM     17  C   UNL     1      -4.680   4.561   0.661  0.00  0.00    +0.202 A 
ATOM     18  N   UNL     1      -3.462   4.187   1.113  0.00  0.00    -0.190 NA
ATOM     19  C   UNL     1      -2.757   3.916   0.042  0.00  0.00    +0.245 A 
ATOM     20  O   UNL     1      -3.552   4.119  -1.013  0.00  0.00    -0.336 OA
ATOM     21  N   UNL     1      -4.647   4.487  -0.644  0.00  0.00    -0.056 NA
BRANCH  17  26
ATOM     22  C   UNL     1      -9.180   6.157   3.881  0.00  0.00    +0.044 C 
ATOM     23  C   UNL     1      -8.003   5.740   3.039  0.00  0.00    -0.050 A 
ATOM     24  C   UNL     1      -8.117   5.711   1.661  0.00  0.00    +0.004 A 
ATOM     25  C   UNL     1      -7.042   5.329   0.884  0.00  0.00    +0.012 A 
ATOM     26  C   UNL     1      -5.840   4.973   1.490  0.00  0.00    +0.022 A 
ATOM     27  C   UNL     1      -5.731   4.999   2.879  0.00  0.00    +0.012 A 
ATOM     28  C   UNL     1      -6.811   5.388   3.646  0.00  0.00    +0.004 A 
ENDBRANCH  17  26
ENDBRANCH  16  19
ENDBRANCH   1  16
TORSDOF 6
