REMARK  Name = ZINC20164126
REMARK  4 active torsions:
REMARK  status: ('A' for Active; 'I' for Inactive)
REMARK    1  A    between atoms: C_1  and  C_2
REMARK    2  A    between atoms: C_6  and  C_8
REMARK    3  A    between atoms: N_9  and  N_10
REMARK    4  A    between atoms: N_12  and  C_13
REMARK                            x       y       z     vdW  Elec       q    Type
REMARK                         _______ _______ _______ _____ _____    ______ ____
ROOT
ATOM      1  C   UNL     1       0.022  -2.843   2.453  0.00  0.00    +0.140 C 
ATOM      2  N   UNL     1      -0.028  -4.140   2.444  0.00  0.00    -0.180 NA
ENDROOT
BRANCH   1   8
ATOM      3  C   UNL     1      -0.265   1.442  -0.083  0.00  0.00    +0.044 C 
ATOM      4  C   UNL     1      -0.613  -0.017   0.068  0.00  0.00    -0.050 A 
ATOM      5  C   UNL     1      -1.398  -0.641  -0.886  0.00  0.00    +0.003 A 
ATOM      6  C   UNL     1      -1.722  -1.980  -0.756  0.00  0.00    +0.001 A 
ATOM      7  C   UNL     1      -1.264  -2.702   0.327  0.00  0.00    +0.009 A 
ATOM      8  C   UNL     1      -0.471  -2.078   1.293  0.00  0.00    -0.005 A 
ATOM      9  C   UNL     1      -0.143  -0.727   1.152  0.00  0.00    +0.012 A 
ENDBRANCH   1   8
BRANCH   2  10
ATOM     10  N   UNL     1      -0.025  -4.833   1.226  0.00  0.00    -0.258 N 
ATOM     11  C   UNL     1      -0.212  -6.188   1.210  0.00  0.00    +0.159 C 
ATOM     12  N   UNL     1      -0.209  -6.864   0.021  0.00  0.00    -0.327 N 
ATOM     13  C   UNL     1      -0.409  -8.315   0.003  0.00  0.00    +0.127 C 
ATOM     14  S   UNL     1      -0.444  -7.011   2.632  0.00  0.00    -0.015 SA
ATOM     15  H   UNL     1      -0.073  -6.383  -0.810  0.00  0.00    +0.148 HD
ATOM     16  H   UNL     1       0.111  -4.352   0.395  0.00  0.00    +0.191 HD
ENDBRANCH   2  10
TORSDOF 2
