REMARK  Name = ZINC19296224
REMARK  12 active torsions:
REMARK  status: ('A' for Active; 'I' for Inactive)
REMARK    1  A    between atoms: C_1  and  C_2
REMARK    2  A    between atoms: C_2  and  C_3
REMARK    3  A    between atoms: C_6  and  C_9
REMARK    4  A    between atoms: C_9  and  C_11
REMARK    5  A    between atoms: C_9  and  N_14
REMARK    6  A    between atoms: C_11  and  C_12
REMARK    7  A    between atoms: C_11  and  C_13
REMARK    8  A    between atoms: C_15  and  C_17
REMARK    9  A    between atoms: C_17  and  N_18
REMARK   10  A    between atoms: C_23  and  C_30
REMARK   11  A    between atoms: C_26  and  C_28
REMARK   12  A    between atoms: C_26  and  C_29
REMARK                            x       y       z     vdW  Elec       q    Type
REMARK                         _______ _______ _______ _____ _____    ______ ____
ROOT
ATOM      1  C   UNL     1      -4.194   6.448   5.240  0.00  0.00    +0.213 C 
ENDROOT
BRANCH   1   2
ATOM      2  N   UNL     1      -5.338   6.821   6.075  0.00  0.00    -0.215 N 
ATOM      3  C   UNL     1      -6.621   6.816   5.652  0.00  0.00    +0.247 C 
ATOM      4  O   UNL     1      -7.022   6.391   4.590  0.00  0.00    -0.273 OA
ATOM      5  C   UNL     1      -7.425   7.417   6.780  0.00  0.00    +0.113 C 
ATOM      6  C   UNL     1      -8.558   6.488   7.191  0.00  0.00    +0.038 C 
ATOM      7  C   UNL     1      -9.665   6.514   6.136  0.00  0.00    -0.011 C 
ATOM      8  C   UNL     1     -10.227   7.931   6.052  0.00  0.00    +0.009 C 
ATOM      9  C   UNL     1      -9.150   8.919   5.614  0.00  0.00    -0.032 C 
ATOM     10  C   UNL     1      -7.893   8.822   6.460  0.00  0.00    +0.041 C 
ATOM     11  C   UNL     1      -9.726  10.343   5.772  0.00  0.00    +0.011 C 
ATOM     12  C   UNL     1      -8.824   8.717   4.132  0.00  0.00    +0.011 C 
ATOM     13  C   UNL     1     -10.780   5.549   6.550  0.00  0.00    +0.007 C 
ATOM     14  N   UNL     1      -6.445   7.490   7.888  0.00  0.00    -0.285 N 
ATOM     15  C   UNL     1      -5.248   7.183   7.360  0.00  0.00    +0.310 C 
ATOM     16  O   UNL     1      -4.202   7.231   7.977  0.00  0.00    -0.252 OA
ATOM     17  H   UNL     1      -6.780   7.757   8.902  0.00  0.00    +0.151 HD
ENDBRANCH   1   2
BRANCH   1  19
ATOM     18  N   UNL     1      -2.948   4.392   4.659  0.00  0.00    -0.307 N 
ATOM     19  C   UNL     1      -3.956   4.964   5.347  0.00  0.00    +0.231 C 
ATOM     20  O   UNL     1      -4.673   4.284   6.051  0.00  0.00    -0.274 OA
ATOM     21  H   UNL     1      -2.298   5.008   4.021  0.00  0.00    +0.149 HD
BRANCH  18  22
ATOM     22  C   UNL     1      -2.717   2.949   4.763  0.00  0.00    +0.106 C 
BRANCH  22  26
ATOM     23  C   UNL     1      -0.718   1.572   1.248  0.00  0.00    -0.048 A 
ATOM     24  C   UNL     1      -0.360   2.779   1.819  0.00  0.00    +0.004 A 
ATOM     25  C   UNL     1      -1.010   3.227   2.953  0.00  0.00    +0.006 A 
ATOM     26  C   UNL     1      -2.012   2.463   3.523  0.00  0.00    -0.027 A 
ATOM     27  C   UNL     1      -2.366   1.254   2.955  0.00  0.00    +0.006 A 
ATOM     28  C   UNL     1      -1.719   0.808   1.818  0.00  0.00    +0.004 A 
BRANCH  23  30
ATOM     29  C   UNL     1      -0.753   1.593  -1.232  0.00  0.00    +0.009 C 
ATOM     30  C   UNL     1      -0.013   1.086   0.008  0.00  0.00    +0.032 C 
ENDBRANCH  23  30
ENDBRANCH  22  26
BRANCH  22  31
ATOM     31  C   UNL     1      -1.851   2.658   5.990  0.00  0.00    +0.008 C 
ATOM     32  C   UNL     1      -1.609   1.151   6.098  0.00  0.00    +0.009 C 
ATOM     33  C   UNL     1      -0.509   3.380   5.850  0.00  0.00    +0.009 C 
ENDBRANCH  22  31
ENDBRANCH  18  22
ENDBRANCH   1  19
TORSDOF 6
