REMARK  Name = ZINC15387968
REMARK  8 active torsions:
REMARK  status: ('A' for Active; 'I' for Inactive)
REMARK    1  A    between atoms: C_3  and  S_13
REMARK    2  A    between atoms: C_4  and  N_10
REMARK    3  A    between atoms: C_6  and  C_7
REMARK    4  A    between atoms: S_13  and  C_14
REMARK    5  A    between atoms: C_14  and  C_15
REMARK    6  A    between atoms: N_17  and  C_18
REMARK    7  A    between atoms: C_18  and  C_19
REMARK    8  A    between atoms: N_21  and  C_22
REMARK                            x       y       z     vdW  Elec       q    Type
REMARK                         _______ _______ _______ _____ _____    ______ ____
ROOT
ATOM      1  C   UNL     1       1.855   3.723  -0.005  0.00  0.00    +0.224 C 
ATOM      2  O   UNL     1       0.858   4.413  -0.001  0.00  0.00    -0.275 OA
ATOM      3  N   UNL     1       3.073   4.299  -0.007  0.00  0.00    -0.306 N 
ATOM      4  H   UNL     1       3.871   3.747  -0.011  0.00  0.00    +0.149 HD
ENDROOT
BRANCH   1   5
ATOM      5  C   UNL     1       1.732   2.221  -0.008  0.00  0.00    +0.170 C 
BRANCH   5   6
ATOM      6  S   UNL     1      -0.022   1.758  -0.004  0.00  0.00    -0.114 S 
BRANCH   6   9
ATOM      7  C   UNL     1       1.236  -2.058  -0.015  0.00  0.00    +0.014 A 
ATOM      8  C   UNL     1       1.218  -0.682  -0.013  0.00  0.00    +0.018 A 
ATOM      9  C   UNL     1       0.001  -0.004  -0.008  0.00  0.00    +0.039 A 
ATOM     10  C   UNL     1      -1.196  -0.715  -0.000  0.00  0.00    +0.140 A 
ATOM     11  C   UNL     1      -1.184  -2.080  -0.008  0.00  0.00    +0.047 A 
ATOM     12  C   UNL     1       0.032  -2.770  -0.013  0.00  0.00    +0.039 A 
BRANCH  12  13
ATOM     13  C   UNL     1       0.046  -4.245  -0.016  0.00  0.00    +0.242 C 
ATOM     14  O   UNL     1      -1.002  -4.862  -0.014  0.00  0.00    -0.270 OA
ATOM     15  N   UNL     1       1.219  -4.908  -0.021  0.00  0.00    -0.325 N 
ATOM     16  H   UNL     1       2.055  -4.415  -0.023  0.00  0.00    +0.145 HD
ATOM     17  H   UNL     1       1.228  -5.878  -0.024  0.00  0.00    +0.145 HD
ENDBRANCH  12  13
BRANCH  10  18
ATOM     18  N   UNL     1      -2.486   0.011   0.011  0.00  0.00    +0.058 N 
ATOM     19  O   UNL     1      -3.534  -0.609   0.018  0.00  0.00    -0.126 OA
ATOM     20  O   UNL     1      -2.499   1.229   0.014  0.00  0.00    -0.126 OA
ENDBRANCH  10  18
ENDBRANCH   6   9
ENDBRANCH   5   6
ENDBRANCH   1   5
BRANCH   3  21
ATOM     21  C   UNL     1       3.193   5.759  -0.004  0.00  0.00    +0.200 C 
BRANCH  21  22
ATOM     22  C   UNL     1       4.651   6.143  -0.008  0.00  0.00    +0.234 C 
ATOM     23  O   UNL     1       5.505   5.282  -0.012  0.00  0.00    -0.274 OA
ATOM     24  N   UNL     1       5.005   7.444  -0.006  0.00  0.00    -0.284 N 
ATOM     25  H   UNL     1       4.324   8.132  -0.070  0.00  0.00    +0.155 HD
BRANCH  24  26
ATOM     26  C   UNL     1       6.355   7.801   0.089  0.00  0.00    +0.036 A 
ATOM     27  C   UNL     1       6.724   8.946   0.783  0.00  0.00    +0.026 A 
ATOM     28  C   UNL     1       8.057   9.295   0.881  0.00  0.00    +0.043 A 
ATOM     29  C   UNL     1       9.025   8.511   0.278  0.00  0.00    +0.159 A 
ATOM     30  C   UNL     1       8.660   7.371  -0.421  0.00  0.00    +0.160 A 
ATOM     31  C   UNL     1       7.326   7.015  -0.516  0.00  0.00    +0.064 A 
ATOM     32  F   UNL     1       9.606   6.607  -1.009  0.00  0.00    -0.202 F 
ATOM     33  F   UNL     1      10.328   8.858   0.371  0.00  0.00    -0.202 F 
ENDBRANCH  24  26
ENDBRANCH  21  22
ENDBRANCH   3  21
TORSDOF 8
