REMARK  Name = ZINC40687423
REMARK  3 active torsions:
REMARK  status: ('A' for Active; 'I' for Inactive)
REMARK    1  A    between atoms: C_11  and  N_25
REMARK    2  A    between atoms: C_12  and  N_16
REMARK    3  A    between atoms: N_16  and  C_17
REMARK                            x       y       z     vdW  Elec       q    Type
REMARK                         _______ _______ _______ _____ _____    ______ ____
ROOT
ATOM      1  C   UNL     1       0.809  -1.506   3.117  0.00  0.00    +0.000 A 
ATOM      2  C   UNL     1       2.098  -1.135   3.454  0.00  0.00    +0.002 A 
ATOM      3  C   UNL     1       3.031  -0.893   2.469  0.00  0.00    +0.024 A 
ATOM      4  C   UNL     1       2.683  -1.020   1.123  0.00  0.00    +0.038 A 
ATOM      5  C   UNL     1       1.389  -1.392   0.795  0.00  0.00    -0.025 A 
ATOM      6  C   UNL     1       0.457  -1.634   1.786  0.00  0.00    +0.005 A 
ATOM      7  C   UNL     1       1.274  -1.457  -0.711  0.00  0.00    +0.056 C 
ATOM      8  C   UNL     1       2.672  -1.073  -1.222  0.00  0.00    +0.117 C 
ATOM      9  N   UNL     1       3.466  -0.823  -0.017  0.00  0.00    -0.283 N 
ATOM     10  C   UNL     1       4.804  -0.445  -0.008  0.00  0.00    +0.151 A 
ATOM     11  C   UNL     1       5.161   0.899  -0.132  0.00  0.00    +0.104 A 
ATOM     12  C   UNL     1       6.519   1.225  -0.117  0.00  0.00    +0.126 A 
ATOM     13  N   UNL     1       7.414   0.248   0.014  0.00  0.00    -0.333 N 
ATOM     14  C   UNL     1       7.035  -1.008   0.127  0.00  0.00    +0.200 A 
ATOM     15  N   UNL     1       5.764  -1.357   0.123  0.00  0.00    -0.220 NA
ATOM     16  H   UNL     1       8.360   0.465   0.025  0.00  0.00    +0.168 HD
ENDROOT
BRANCH  11  17
ATOM     17  N   UNL     1       4.182   1.896  -0.268  0.00  0.00    -0.353 N 
ATOM     18  H   UNL     1       3.243   1.665  -0.202  0.00  0.00    +0.143 HD
ATOM     19  H   UNL     1       4.446   2.816  -0.427  0.00  0.00    +0.143 HD
ENDBRANCH  11  17
BRANCH  12  20
ATOM     20  N   UNL     1       6.929   2.547  -0.236  0.00  0.00    -0.297 N 
ATOM     21  H   UNL     1       6.272   3.260  -0.246  0.00  0.00    +0.154 HD
BRANCH  20  22
ATOM     22  C   UNL     1       8.291   2.850  -0.343  0.00  0.00    +0.068 A 
ATOM     23  C   UNL     1       8.931   3.548   0.673  0.00  0.00    +0.027 A 
ATOM     24  C   UNL     1      10.275   3.846   0.565  0.00  0.00    +0.017 A 
ATOM     25  C   UNL     1      10.986   3.450  -0.554  0.00  0.00    +0.021 A 
ATOM     26  C   UNL     1      10.353   2.755  -1.569  0.00  0.00    +0.055 A 
ATOM     27  C   UNL     1       9.009   2.449  -1.465  0.00  0.00    +0.145 A 
ATOM     28  F   UNL     1       8.392   1.765  -2.454  0.00  0.00    -0.204 F 
ATOM     29 BR   UNL     1      12.827   3.860  -0.697  0.00  0.00    -0.050 Br
ENDBRANCH  20  22
ENDBRANCH  12  20
TORSDOF 3
