REMARK  Name = ZINC38075964
REMARK  4 active torsions:
REMARK  status: ('A' for Active; 'I' for Inactive)
REMARK    1  A    between atoms: C_3  and  C_17
REMARK    2  A    between atoms: C_8  and  C_10
REMARK    3  A    between atoms: C_10  and  C_11
REMARK    4  A    between atoms: C_17  and  N_18
REMARK                            x       y       z     vdW  Elec       q    Type
REMARK                         _______ _______ _______ _____ _____    ______ ____
ROOT
ATOM      1  C   UNL     1      -0.019   1.528   0.010  0.00  0.00    +0.019 C 
ATOM      2  C   UNL     1       1.419   2.053  -0.001  0.00  0.00    +0.008 C 
ATOM      3  C   UNL     1       2.124   1.587  -1.276  0.00  0.00    +0.024 C 
ATOM      4  C   UNL     1       2.170   0.056  -1.299  0.00  0.00    +0.112 C 
ATOM      5  N   UNL     1       0.803  -0.460  -1.143  0.00  0.00    -0.301 N 
ATOM      6  C   UNL     1       0.002  -0.004   0.002  0.00  0.00    +0.108 C 
ATOM      7  C   UNL     1       0.293  -1.334  -2.033  0.00  0.00    +0.216 C 
ATOM      8  O   UNL     1       0.964  -1.702  -2.973  0.00  0.00    -0.276 OA
ENDROOT
BRANCH   7   9
ATOM      9  C   UNL     1      -1.111  -1.854  -1.859  0.00  0.00    +0.099 C 
BRANCH   9  10
ATOM     10  C   UNL     1      -1.440  -2.823  -2.996  0.00  0.00    -0.006 C 
ATOM     11  C   UNL     1      -1.462  -2.064  -4.326  0.00  0.00    -0.015 C 
ATOM     12  C   UNL     1      -1.869  -3.022  -5.447  0.00  0.00    -0.082 C 
ATOM     13  N   UNL     1      -3.205  -3.564  -5.171  0.00  0.00    +0.379 N 
ATOM     14  C   UNL     1      -3.175  -4.354  -3.934  0.00  0.00    -0.082 C 
ATOM     15  C   UNL     1      -2.818  -3.447  -2.754  0.00  0.00    -0.015 C 
ATOM     16  H   UNL     1      -3.861  -2.805  -5.068  0.00  0.00    -0.086 HD
ATOM     17  H   UNL     1      -3.493  -4.153  -5.938  0.00  0.00    -0.086 HD
ENDBRANCH   9  10
ENDBRANCH   7   9
BRANCH   3  18
ATOM     18  C   UNL     1       3.550   2.141  -1.302  0.00  0.00    +0.110 C 
BRANCH  18  19
ATOM     19  N   UNL     1       3.505   3.602  -1.397  0.00  0.00    -0.299 N 
ATOM     20  C   UNL     1       4.651   4.311  -1.435  0.00  0.00    +0.297 C 
ATOM     21  O   UNL     1       5.722   3.738  -1.390  0.00  0.00    -0.253 OA
ATOM     22  N   UNL     1       4.609   5.655  -1.522  0.00  0.00    -0.313 N 
ATOM     23  H   UNL     1       2.650   4.059  -1.432  0.00  0.00    +0.150 HD
ATOM     24  H   UNL     1       3.754   6.113  -1.558  0.00  0.00    +0.146 HD
ATOM     25  H   UNL     1       5.434   6.165  -1.549  0.00  0.00    +0.146 HD
ENDBRANCH  18  19
ENDBRANCH   3  18
TORSDOF 4
