REMARK  Name = ZINC05025211
REMARK  5 active torsions:
REMARK  status: ('A' for Active; 'I' for Inactive)
REMARK    1  A    between atoms: C_3  and  N_25
REMARK    2  A    between atoms: C_4  and  N_22
REMARK    3  A    between atoms: C_6  and  C_7
REMARK    4  A    between atoms: N_9  and  C_10
REMARK    5  A    between atoms: C_11  and  C_20
REMARK                            x       y       z     vdW  Elec       q    Type
REMARK                         _______ _______ _______ _____ _____    ______ ____
ROOT
ATOM      1  C   UNL     1      -1.522   5.749   6.585  0.00  0.00    +0.015 A 
ATOM      2  C   UNL     1      -1.670   6.443   7.764  0.00  0.00    +0.026 A 
ATOM      3  C   UNL     1      -0.789   6.222   8.819  0.00  0.00    +0.060 A 
ATOM      4  C   UNL     1       0.240   5.294   8.688  0.00  0.00    +0.148 A 
ATOM      5  C   UNL     1       0.390   4.592   7.514  0.00  0.00    +0.047 A 
ATOM      6  C   UNL     1      -0.493   4.812   6.452  0.00  0.00    +0.039 A 
ENDROOT
BRANCH   3   7
ATOM      7  N   UNL     1      -0.938   6.930  10.007  0.00  0.00    -0.328 N 
ATOM      8  C   UNL     1      -0.979   8.393   9.753  0.00  0.00    +0.105 C 
ATOM      9  C   UNL     1      -1.656   8.955  11.029  0.00  0.00    +0.020 C 
ATOM     10  C   UNL     1      -2.716   7.880  11.360  0.00  0.00    +0.020 C 
ATOM     11  C   UNL     1      -2.221   6.598  10.664  0.00  0.00    +0.105 C 
ENDBRANCH   3   7
BRANCH   6  12
ATOM     12  C   UNL     1      -0.335   4.062   5.192  0.00  0.00    +0.249 C 
ATOM     13  O   UNL     1       0.564   3.251   5.076  0.00  0.00    -0.270 OA
ATOM     14  N   UNL     1      -1.187   4.275   4.170  0.00  0.00    -0.275 N 
ATOM     15  H   UNL     1      -1.904   4.921   4.263  0.00  0.00    +0.156 HD
BRANCH  14  16
ATOM     16  C   UNL     1      -1.039   3.573   2.991  0.00  0.00    +0.082 C 
ATOM     17  C   UNL     1      -1.831   3.653   1.845  0.00  0.00    +0.061 C 
ATOM     18  C   UNL     1      -1.343   2.880   0.718  0.00  0.00    +0.045 C 
ATOM     19  C   UNL     1      -2.010   2.419  -0.544  0.00  0.00    +0.010 C 
ATOM     20  C   UNL     1      -0.880   1.536  -1.175  0.00  0.00    +0.002 C 
ATOM     21  C   UNL     1       0.029   1.088   0.010  0.00  0.00    +0.015 C 
ATOM     22  C   UNL     1      -0.707   1.535   1.247  0.00  0.00    +0.061 C 
ATOM     23  S   UNL     1       0.209   2.335   2.599  0.00  0.00    -0.105 S 
BRANCH  17  24
ATOM     24  C   UNL     1      -3.022   4.444   1.784  0.00  0.00    +0.097 C 
ATOM     25  N   UNL     1      -3.968   5.072   1.736  0.00  0.00    -0.191 NA
ENDBRANCH  17  24
ENDBRANCH  14  16
ENDBRANCH   6  12
BRANCH   4  26
ATOM     26  N   UNL     1       1.175   5.062   9.812  0.00  0.00    +0.058 N 
ATOM     27  O   UNL     1       2.014   4.183   9.735  0.00  0.00    -0.126 OA
ATOM     28  O   UNL     1       1.105   5.751  10.814  0.00  0.00    -0.126 OA
ENDBRANCH   4  26
TORSDOF 5
