REMARK  Name = ZINC13521666
REMARK  9 active torsions:
REMARK  status: ('A' for Active; 'I' for Inactive)
REMARK    1  A    between atoms: C_1  and  C_2
REMARK    2  A    between atoms: C_4  and  O_31
REMARK    3  A    between atoms: C_8  and  C_21
REMARK    4  A    between atoms: C_14  and  C_19
REMARK    5  A    between atoms: C_14  and  C_20
REMARK    6  A    between atoms: C_24  and  O_29
REMARK    7  A    between atoms: C_25  and  O_27
REMARK    8  A    between atoms: O_27  and  C_28
REMARK    9  A    between atoms: O_29  and  C_30
REMARK                            x       y       z     vdW  Elec       q    Type
REMARK                         _______ _______ _______ _____ _____    ______ ____
ROOT
ATOM      1  C   UNL     1      -0.186   1.558  -0.071  0.00  0.00    +0.044 C 
ATOM      2  C   UNL     1      -0.151   0.051  -0.089  0.00  0.00    -0.040 A 
ATOM      3  C   UNL     1      -0.177  -0.571  -1.329  0.00  0.00    +0.049 A 
ATOM      4  C   UNL     1      -0.187  -1.951  -1.425  0.00  0.00    +0.121 A 
ATOM      5  C   UNL     1      -0.182  -2.712  -0.269  0.00  0.00    +0.091 A 
ATOM      6  C   UNL     1      -0.142  -2.089   0.969  0.00  0.00    +0.131 A 
ATOM      7  C   UNL     1      -0.083  -0.704   1.071  0.00  0.00    +0.005 A 
ATOM      8  C   UNL     1       0.054  -0.034   2.411  0.00  0.00    +0.058 C 
ATOM      9  C   UNL     1       0.051  -1.043   3.562  0.00  0.00    +0.081 C 
ATOM     10  C   UNL     1      -0.810  -2.256   3.224  0.00  0.00    +0.180 C 
ATOM     11  O   UNL     1      -0.186  -2.875   2.080  0.00  0.00    -0.468 OA
ATOM     12  C   UNL     1      -2.237  -1.877   2.856  0.00  0.00    +0.094 C 
ATOM     13  C   UNL     1      -3.082  -1.500   4.069  0.00  0.00    +0.033 C 
ATOM     14  N   UNL     1      -2.842  -2.418   5.181  0.00  0.00    -0.321 N 
ATOM     15  C   UNL     1      -1.775  -3.220   5.250  0.00  0.00    +0.133 C 
ATOM     16  S   UNL     1      -1.645  -4.303   6.570  0.00  0.00    -0.019 S 
ATOM     17  N   UNL     1      -0.797  -3.207   4.332  0.00  0.00    -0.289 N 
ATOM     18  C   UNL     1      -2.825  -0.059   4.504  0.00  0.00    +0.031 C 
ATOM     19  C   UNL     1      -4.568  -1.618   3.675  0.00  0.00    +0.031 C 
ATOM     20  H   UNL     1      -3.490  -2.440   5.909  0.00  0.00    +0.148 HD
ATOM     21  H   UNL     1      -0.069  -3.842   4.410  0.00  0.00    +0.151 HD
ENDROOT
BRANCH   8  22
ATOM     22  C   UNL     1       1.376   0.686   2.483  0.00  0.00    -0.036 A 
ATOM     23  C   UNL     1       2.555  -0.020   2.337  0.00  0.00    +0.008 A 
ATOM     24  C   UNL     1       3.770   0.636   2.402  0.00  0.00    +0.050 A 
ATOM     25  C   UNL     1       3.808   2.005   2.614  0.00  0.00    +0.162 A 
ATOM     26  C   UNL     1       2.621   2.716   2.761  0.00  0.00    +0.162 A 
ATOM     27  C   UNL     1       1.406   2.053   2.690  0.00  0.00    +0.053 A 
BRANCH  26  28
ATOM     28  O   UNL     1       2.652   4.059   2.970  0.00  0.00    -0.491 OA
ATOM     29  C   UNL     1       1.395   4.724   3.112  0.00  0.00    +0.277 C 
ENDBRANCH  26  28
BRANCH  25  30
ATOM     30  O   UNL     1       5.002   2.652   2.679  0.00  0.00    -0.491 OA
ATOM     31  C   UNL     1       6.180   1.858   2.520  0.00  0.00    +0.277 C 
ENDBRANCH  25  30
ENDBRANCH   8  22
BRANCH   4  32
ATOM     32  O   UNL     1      -0.203  -2.556  -2.642  0.00  0.00    -0.507 OA
ATOM     33  H   UNL     1       0.675  -2.737  -3.003  0.00  0.00    +0.292 HD
ENDBRANCH   4  32
TORSDOF 4
