REMARK  Name = ZINC40948580
REMARK  10 active torsions:
REMARK  status: ('A' for Active; 'I' for Inactive)
REMARK    1  A    between atoms: C_1  and  C_2
REMARK    2  A    between atoms: C_2  and  C_3
REMARK    3  A    between atoms: C_2  and  C_4
REMARK    4  A    between atoms: C_7  and  O_11
REMARK    5  A    between atoms: O_11  and  C_12
REMARK    6  A    between atoms: C_12  and  C_13
REMARK    7  A    between atoms: C_13  and  C_14
REMARK    8  A    between atoms: C_14  and  C_15
REMARK    9  A    between atoms: N_17  and  C_18
REMARK   10  A    between atoms: C_19  and  C_26
REMARK                            x       y       z     vdW  Elec       q    Type
REMARK                         _______ _______ _______ _____ _____    ______ ____
ROOT
ATOM      1  C   UNL     1      -9.738  -2.415   2.021  0.00  0.00    +0.218 C 
ATOM      2  O   UNL     1      -9.987  -3.100   1.052  0.00  0.00    -0.275 OA
ATOM      3  N   UNL     1     -10.685  -2.199   2.955  0.00  0.00    -0.279 N 
ATOM      4  H   UNL     1     -10.486  -1.651   3.731  0.00  0.00    +0.155 HD
ENDROOT
BRANCH   3   5
ATOM      5  C   UNL     1     -11.944  -2.760   2.808  0.00  0.00    +0.084 A 
ATOM      6  C   UNL     1     -13.031  -2.643   3.655  0.00  0.00    +0.068 A 
ATOM      7  C   UNL     1     -14.258  -3.339   3.270  0.00  0.00    -0.023 A 
ATOM      8  C   UNL     1     -14.163  -4.019   2.113  0.00  0.00    -0.004 A 
ATOM      9  S   UNL     1     -12.502  -3.731   1.560  0.00  0.00    -0.077 S 
ATOM     10  C   UNL     1     -15.450  -4.718   1.766  0.00  0.00    +0.043 C 
ATOM     11  C   UNL     1     -16.252  -4.737   3.086  0.00  0.00    +0.010 C 
ATOM     12  C   UNL     1     -15.669  -3.516   3.827  0.00  0.00    +0.037 C 
BRANCH   6  13
ATOM     13  C   UNL     1     -12.957  -1.854   4.888  0.00  0.00    +0.244 C 
ATOM     14  O   UNL     1     -13.245  -0.672   4.873  0.00  0.00    -0.270 OA
ATOM     15  N   UNL     1     -12.569  -2.438   6.040  0.00  0.00    -0.325 N 
ATOM     16  H   UNL     1     -12.339  -3.381   6.052  0.00  0.00    +0.145 HD
ATOM     17  H   UNL     1     -12.519  -1.917   6.856  0.00  0.00    +0.145 HD
ENDBRANCH   6  13
ENDBRANCH   3   5
BRANCH   1  18
ATOM     18  C   UNL     1      -8.369  -1.805   2.181  0.00  0.00    +0.099 C 
BRANCH  18  19
ATOM     19  C   UNL     1      -7.492  -2.202   0.992  0.00  0.00    +0.050 C 
BRANCH  19  20
ATOM     20  C   UNL     1      -6.102  -1.583   1.154  0.00  0.00    +0.229 C 
BRANCH  20  21
ATOM     21  O   UNL     1      -5.283  -1.954   0.044  0.00  0.00    -0.491 OA
BRANCH  21  25
ATOM     22  C   UNL     1      -1.412  -0.526   0.013  0.00  0.00    -0.044 A 
ATOM     23  C   UNL     1      -2.258  -0.203   1.058  0.00  0.00    +0.007 A 
ATOM     24  C   UNL     1      -3.555  -0.680   1.070  0.00  0.00    +0.047 A 
ATOM     25  C   UNL     1      -4.008  -1.483   0.034  0.00  0.00    +0.134 A 
ATOM     26  C   UNL     1      -3.156  -1.805  -1.014  0.00  0.00    +0.060 A 
ATOM     27  C   UNL     1      -1.862  -1.321  -1.025  0.00  0.00    +0.022 A 
ATOM     28 BR   UNL     1      -3.769  -2.900  -2.429  0.00  0.00    -0.047 Br
BRANCH  22  30
ATOM     29  C   UNL     1      -0.019   1.526   0.010  0.00  0.00    +0.012 C 
ATOM     30  C   UNL     1       0.002  -0.004   0.002  0.00  0.00    +0.013 C 
ATOM     31  C   UNL     1       0.742  -0.511   1.242  0.00  0.00    +0.012 C 
ENDBRANCH  22  30
ENDBRANCH  21  25
ENDBRANCH  20  21
ENDBRANCH  19  20
ENDBRANCH  18  19
ENDBRANCH   1  18
TORSDOF 8
