REMARK  Name = ZINC08756683
REMARK  4 active torsions:
REMARK  status: ('A' for Active; 'I' for Inactive)
REMARK    1  A    between atoms: C_4  and  S_7
REMARK    2  A    between atoms: S_7  and  C_10
REMARK    3  A    between atoms: C_26  and  C_29
REMARK    4  A    between atoms: C_26  and  N_66
REMARK                            x       y       z     vdW  Elec       q    Type
REMARK                         _______ _______ _______ _____ _____    ______ ____
ROOT
ATOM      1  C   UNL     1      -0.269   2.736   4.769  0.00  0.00    +0.249 A 
ATOM      2  C   UNL     1      -0.057   3.063   3.442  0.00  0.00    +0.204 A 
ATOM      3  N   UNL     1       0.289   2.322   2.374  0.00  0.00    -0.209 NA
ATOM      4  C   UNL     1       0.438   2.851   1.179  0.00  0.00    +0.133 A 
ATOM      5  C   UNL     1       0.227   4.295   1.006  0.00  0.00    +0.040 A 
ATOM      6  C   UNL     1       0.363   4.912  -0.237  0.00  0.00    +0.013 A 
ATOM      7  C   UNL     1       0.147   6.268  -0.350  0.00  0.00    +0.001 A 
ATOM      8  C   UNL     1      -0.209   7.018   0.762  0.00  0.00    +0.002 A 
ATOM      9  C   UNL     1      -0.353   6.421   1.997  0.00  0.00    +0.028 A 
ATOM     10  C   UNL     1      -0.141   5.056   2.131  0.00  0.00    +0.080 A 
ATOM     11  N   UNL     1      -0.274   4.412   3.348  0.00  0.00    -0.192 N 
ATOM     12  N   UNL     1      -0.612   4.852   4.634  0.00  0.00    -0.057 NA
ATOM     13  N   UNL     1      -0.596   3.841   5.429  0.00  0.00    -0.108 NA
ATOM     14  N   UNL     1       0.794   2.062   0.104  0.00  0.00    -0.315 N 
ATOM     15  C   UNL     1       2.248   2.081  -0.104  0.00  0.00    +0.105 C 
ATOM     16  C   UNL     1       2.591   1.317  -1.386  0.00  0.00    +0.016 C 
ATOM     17  C   UNL     1       2.093  -0.125  -1.263  0.00  0.00    +0.015 C 
ATOM     18  C   UNL     1       0.585  -0.116  -0.998  0.00  0.00    +0.016 C 
ATOM     19  C   UNL     1       0.300   0.689   0.272  0.00  0.00    +0.105 C 
ENDROOT
BRANCH  17  25
ATOM     20  C   UNL     1       1.780  -2.193  -2.483  0.00  0.00    -0.077 C 
ATOM     21  C   UNL     1       1.959  -2.859  -3.849  0.00  0.00    -0.019 C 
ATOM     22  C   UNL     1       3.451  -2.941  -4.180  0.00  0.00    -0.004 C 
ATOM     23  C   UNL     1       4.049  -1.531  -4.157  0.00  0.00    -0.019 C 
ATOM     24  C   UNL     1       3.809  -0.903  -2.782  0.00  0.00    -0.077 C 
ATOM     25  N   UNL     1       2.354  -0.831  -2.534  0.00  0.00    +0.389 N 
ATOM     26  H   UNL     1       1.910  -0.312  -3.301  0.00  0.00    -0.080 HD
ENDBRANCH  17  25
BRANCH  17  27
ATOM     27  C   UNL     1       2.800  -0.808  -0.121  0.00  0.00    +0.200 C 
ATOM     28  O   UNL     1       3.771  -0.289   0.389  0.00  0.00    -0.278 OA
ATOM     29  N   UNL     1       2.355  -1.996   0.334  0.00  0.00    -0.330 N 
ATOM     30  H   UNL     1       1.536  -2.375  -0.021  0.00  0.00    +0.145 HD
ATOM     31  H   UNL     1       2.853  -2.472   1.016  0.00  0.00    +0.145 HD
ENDBRANCH  17  27
BRANCH   1  32
ATOM     32  S   UNL     1      -0.127   1.124   5.468  0.00  0.00    +0.047 S 
ATOM     33  O   UNL     1      -0.933   1.116   6.638  0.00  0.00    -0.163 OA
ATOM     34  O   UNL     1      -0.320   0.202   4.403  0.00  0.00    -0.163 OA
BRANCH  32  38
ATOM     35  C   UNL     1       4.157   0.632   6.844  0.00  0.00    +0.000 A 
ATOM     36  C   UNL     1       3.208   1.146   7.708  0.00  0.00    +0.002 A 
ATOM     37  C   UNL     1       1.900   1.297   7.287  0.00  0.00    +0.027 A 
ATOM     38  C   UNL     1       1.540   0.933   6.003  0.00  0.00    +0.095 A 
ATOM     39  C   UNL     1       2.488   0.413   5.141  0.00  0.00    +0.027 A 
ATOM     40  C   UNL     1       3.797   0.268   5.560  0.00  0.00    +0.002 A 
ENDBRANCH  32  38
ENDBRANCH   1  32
TORSDOF 4
