REMARK  Name = ZINC20841882
REMARK  8 active torsions:
REMARK  status: ('A' for Active; 'I' for Inactive)
REMARK    1  A    between atoms: C_1  and  C_2
REMARK    2  A    between atoms: C_2  and  S_3
REMARK    3  A    between atoms: S_3  and  C_4
REMARK    4  A    between atoms: C_7  and  C_10
REMARK    5  A    between atoms: N_8  and  N_9
REMARK    6  A    between atoms: C_10  and  C_11
REMARK    7  A    between atoms: C_10  and  C_12
REMARK    8  A    between atoms: C_10  and  C_13
REMARK                            x       y       z     vdW  Elec       q    Type
REMARK                         _______ _______ _______ _____ _____    ______ ____
ROOT
ATOM      1  C   UNL     1       0.574   3.599   0.016  0.00  0.00    +0.208 A 
ATOM      2  N   UNL     1      -0.735   3.499   0.028  0.00  0.00    -0.121 NA
ATOM      3  N   UNL     1      -1.078   2.261   0.019  0.00  0.00    -0.131 NA
ATOM      4  C   UNL     1      -0.018   1.503   0.010  0.00  0.00    +0.156 A 
ATOM      5  N   UNL     1       1.072   2.328   0.004  0.00  0.00    -0.227 N 
ENDROOT
BRANCH   4   6
ATOM      6  C   UNL     1       0.002  -0.004   0.002  0.00  0.00    +0.024 C 
ATOM      7  C   UNL     1       0.742  -0.511   1.242  0.00  0.00    +0.019 C 
ATOM      8  C   UNL     1      -1.433  -0.534   0.013  0.00  0.00    +0.019 C 
ATOM      9  C   UNL     1       0.718  -0.497  -1.257  0.00  0.00    +0.019 C 
ENDBRANCH   4   6
BRANCH   5  10
ATOM     10  N   UNL     1       2.387   1.958  -0.010  0.00  0.00    -0.295 N 
ATOM     11  H   UNL     1       2.658   0.891  -0.018  0.00  0.00    +0.163 HD
ATOM     12  H   UNL     1       3.175   2.725  -0.013  0.00  0.00    +0.163 HD
ENDBRANCH   5  10
BRANCH   1  13
ATOM     13  S   UNL     1       1.510   5.092   0.015  0.00  0.00    -0.085 S 
BRANCH  13  15
ATOM     14  C   UNL     1       0.757   7.718   0.036  0.00  0.00    +0.016 C 
ATOM     15  C   UNL     1       0.168   6.305   0.034  0.00  0.00    +0.074 C 
ENDBRANCH  13  15
ENDBRANCH   1  13
TORSDOF 4
