REMARK  Name = ZINC13219975
REMARK  8 active torsions:
REMARK  status: ('A' for Active; 'I' for Inactive)
REMARK    1  A    between atoms: C_1  and  N_2
REMARK    2  A    between atoms: C_8  and  C_31
REMARK    3  A    between atoms: C_12  and  S_13
REMARK    4  A    between atoms: S_13  and  C_14
REMARK    5  A    between atoms: C_14  and  C_15
REMARK    6  A    between atoms: N_17  and  C_18
REMARK    7  A    between atoms: C_18  and  C_20
REMARK    8  A    between atoms: C_18  and  C_26
REMARK                            x       y       z     vdW  Elec       q    Type
REMARK                         _______ _______ _______ _____ _____    ______ ____
ROOT
ATOM      1  C   UNL     1       0.002  -0.004   0.002  0.00  0.00    +0.173 C 
ENDROOT
BRANCH   1   2
ATOM      2  C   UNL     1      -1.412  -0.526   0.013  0.00  0.00    +0.224 C 
ATOM      3  O   UNL     1      -2.344   0.250   0.026  0.00  0.00    -0.275 OA
ATOM      4  N   UNL     1      -1.640  -1.854   0.008  0.00  0.00    -0.303 N 
ATOM      5  H   UNL     1      -0.894  -2.474  -0.003  0.00  0.00    +0.150 HD
BRANCH   4   6
ATOM      6  C   UNL     1      -3.014  -2.361   0.018  0.00  0.00    +0.140 C 
BRANCH   6   7
ATOM      7  C   UNL     1      -3.046  -3.740  -0.589  0.00  0.00    -0.022 A 
ATOM      8  C   UNL     1      -2.032  -4.639  -0.316  0.00  0.00    +0.006 A 
ATOM      9  C   UNL     1      -2.063  -5.905  -0.869  0.00  0.00    +0.000 A 
ATOM     10  C   UNL     1      -3.103  -6.269  -1.705  0.00  0.00    +0.000 A 
ATOM     11  C   UNL     1      -4.114  -5.368  -1.982  0.00  0.00    +0.000 A 
ATOM     12  C   UNL     1      -4.085  -4.103  -1.425  0.00  0.00    +0.006 A 
ENDBRANCH   6   7
BRANCH   6  13
ATOM     13  C   UNL     1      -3.515  -2.426   1.438  0.00  0.00    +0.014 A 
ATOM     14  C   UNL     1      -4.739  -2.109   1.927  0.00  0.00    +0.013 A 
ATOM     15  C   UNL     1      -4.977  -2.252   3.281  0.00  0.00    +0.008 A 
ATOM     16  C   UNL     1      -3.977  -2.696   4.081  0.00  0.00    +0.045 A 
ATOM     17  S   UNL     1      -2.648  -2.934   2.914  0.00  0.00    -0.099 S 
ENDBRANCH   6  13
ENDBRANCH   4   6
ENDBRANCH   1   2
BRANCH   1  18
ATOM     18  S   UNL     1      -0.022   1.806   0.012  0.00  0.00    -0.078 S 
BRANCH  18  30
ATOM     19  C   UNL     1       1.132   4.515   0.004  0.00  0.00    +0.154 C 
ATOM     20  N   UNL     1       2.123   3.436  -0.005  0.00  0.00    -0.290 N 
ATOM     21  C   UNL     1       3.442   3.737  -0.011  0.00  0.00    +0.262 A 
ATOM     22  O   UNL     1       3.826   4.892  -0.008  0.00  0.00    -0.267 OA
ATOM     23  C   UNL     1       4.397   2.617  -0.026  0.00  0.00    +0.065 A 
ATOM     24  C   UNL     1       5.775   2.829  -0.039  0.00  0.00    +0.016 A 
ATOM     25  C   UNL     1       6.627   1.762  -0.053  0.00  0.00    +0.016 A 
ATOM     26  C   UNL     1       6.130   0.452  -0.055  0.00  0.00    +0.065 A 
ATOM     27  C   UNL     1       4.761   0.218  -0.043  0.00  0.00    +0.043 A 
ATOM     28  C   UNL     1       3.879   1.302  -0.028  0.00  0.00    +0.080 A 
ATOM     29  N   UNL     1       2.537   1.121  -0.016  0.00  0.00    -0.223 NA
ATOM     30  C   UNL     1       1.708   2.135  -0.003  0.00  0.00    +0.172 A 
BRANCH  26  31
ATOM     31  C   UNL     1       7.071  -0.690  -0.071  0.00  0.00    +0.387 C 
ATOM     32  O   UNL     1       6.645  -1.827  -0.073  0.00  0.00    -0.241 OA
ATOM     33  O   UNL     1       8.399  -0.468  -0.083  0.00  0.00    -0.241 OA
ENDBRANCH  26  31
ENDBRANCH  18  30
ENDBRANCH   1  18
TORSDOF 7
