REMARK  Name = ZINC04670304
REMARK  4 active torsions:
REMARK  status: ('A' for Active; 'I' for Inactive)
REMARK    1  A    between atoms: C_1  and  C_2
REMARK    2  A    between atoms: C_8  and  N_10
REMARK    3  A    between atoms: C_11  and  C_13
REMARK    4  A    between atoms: N_23  and  C_24
REMARK                            x       y       z     vdW  Elec       q    Type
REMARK                         _______ _______ _______ _____ _____    ______ ____
ROOT
ATOM      1  C   UNL     1       1.316   3.292   0.059  0.00  0.00    +0.213 C 
ATOM      2  C   UNL     1       0.015   3.961  -0.300  0.00  0.00    +0.049 A 
ATOM      3  C   UNL     1      -0.188   5.246  -0.632  0.00  0.00    +0.025 A 
ATOM      4  C   UNL     1      -1.567   5.402  -0.885  0.00  0.00    +0.019 A 
ATOM      5  C   UNL     1      -2.152   4.201  -0.697  0.00  0.00    +0.086 A 
ATOM      6  N   UNL     1      -1.190   3.311  -0.338  0.00  0.00    -0.340 N 
ATOM      7  C   UNL     1      -1.353   1.889  -0.036  0.00  0.00    +0.217 C 
ATOM      8  C   UNL     1      -0.014   1.210  -0.039  0.00  0.00    +0.241 C 
ATOM      9  O   UNL     1       0.002  -0.002  -0.086  0.00  0.00    -0.273 OA
ATOM     10  N   UNL     1       1.156   1.843   0.001  0.00  0.00    -0.252 N 
ENDROOT
BRANCH  10  11
ATOM     11  C   UNL     1       2.318   1.062  -0.015  0.00  0.00    +0.038 A 
ATOM     12  C   UNL     1       3.165   1.097  -1.114  0.00  0.00    +0.025 A 
ATOM     13  C   UNL     1       4.313   0.330  -1.125  0.00  0.00    +0.022 A 
ATOM     14  C   UNL     1       4.614  -0.482  -0.045  0.00  0.00    +0.041 A 
ATOM     15  C   UNL     1       3.769  -0.523   1.050  0.00  0.00    +0.022 A 
ATOM     16  C   UNL     1       2.622   0.247   1.067  0.00  0.00    +0.025 A 
ATOM     17 CL   UNL     1       6.054  -1.451  -0.065  0.00  0.00    -0.084 Cl
ENDBRANCH  10  11
BRANCH   1  19
ATOM     18  N   UNL     1       1.923   4.996   1.746  0.00  0.00    -0.310 N 
ATOM     19  C   UNL     1       1.718   3.697   1.454  0.00  0.00    +0.240 C 
ATOM     20  O   UNL     1       1.857   2.853   2.314  0.00  0.00    -0.273 OA
ATOM     21  H   UNL     1       1.812   5.671   1.058  0.00  0.00    +0.149 HD
BRANCH  18  28
ATOM     22  C   UNL     1       0.373   6.960   3.205  0.00  0.00    +0.009 C 
ATOM     23  C   UNL     1       1.891   6.838   3.354  0.00  0.00    +0.006 C 
ATOM     24  C   UNL     1       2.299   7.249   4.770  0.00  0.00    +0.005 C 
ATOM     25  C   UNL     1       3.817   7.128   4.919  0.00  0.00    +0.000 C 
ATOM     26  C   UNL     1       4.239   5.679   4.667  0.00  0.00    +0.002 C 
ATOM     27  C   UNL     1       3.831   5.269   3.250  0.00  0.00    +0.022 C 
ATOM     28  C   UNL     1       2.313   5.390   3.102  0.00  0.00    +0.076 C 
ENDBRANCH  18  28
ENDBRANCH   1  19
TORSDOF 3
