REMARK  Name = ZINC50650462
REMARK  3 active torsions:
REMARK  status: ('A' for Active; 'I' for Inactive)
REMARK    1  A    between atoms: C_3  and  S_8
REMARK    2  A    between atoms: S_8  and  N_11
REMARK    3  A    between atoms: N_11  and  C_12
REMARK                            x       y       z     vdW  Elec       q    Type
REMARK                         _______ _______ _______ _____ _____    ______ ____
ROOT
ATOM      1  S   UNL     1       3.924   2.172  -0.030  0.00  0.00    +0.095 S 
ATOM      2  O   UNL     1       4.707   1.583  -1.059  0.00  0.00    -0.148 OA
ATOM      3  O   UNL     1       3.626   3.561   0.001  0.00  0.00    -0.148 OA
ENDROOT
BRANCH   1   6
ATOM      4  C   UNL     1      -0.003   1.325  -0.018  0.00  0.00    +0.019 A 
ATOM      5  C   UNL     1       1.191   2.033  -0.020  0.00  0.00    +0.034 A 
ATOM      6  C   UNL     1       2.379   1.325  -0.026  0.00  0.00    +0.148 A 
ATOM      7  C   UNL     1       2.337  -0.066  -0.029  0.00  0.00    +0.121 A 
ATOM      8  N   UNL     1       1.178  -0.705  -0.026  0.00  0.00    -0.348 N 
ATOM      9  C   UNL     1       0.029  -0.055  -0.021  0.00  0.00    +0.084 A 
ATOM     10  N   UNL     1       3.523  -0.791  -0.035  0.00  0.00    -0.343 N 
ATOM     11  H   UNL     1       4.375  -0.327  -0.037  0.00  0.00    +0.144 HD
ATOM     12  H   UNL     1       3.499  -1.760  -0.036  0.00  0.00    +0.144 HD
ATOM     13  H   UNL     1       1.172  -1.675  -0.028  0.00  0.00    +0.167 HD
ENDBRANCH   1   6
BRANCH   1  14
ATOM     14  N   UNL     1       4.680   1.819   1.400  0.00  0.00    -0.095 NA
BRANCH  14  15
ATOM     15  C   UNL     1       5.988   2.259   1.627  0.00  0.00    +0.111 A 
ATOM     16  C   UNL     1       6.257   3.618   1.731  0.00  0.00    +0.068 A 
ATOM     17  C   UNL     1       7.551   4.050   1.956  0.00  0.00    +0.042 A 
ATOM     18  C   UNL     1       8.578   3.130   2.077  0.00  0.00    +0.044 A 
ATOM     19  C   UNL     1       8.313   1.776   1.975  0.00  0.00    +0.042 A 
ATOM     20  C   UNL     1       7.020   1.337   1.756  0.00  0.00    +0.068 A 
ATOM     21 CL   UNL     1       6.688  -0.362   1.635  0.00  0.00    -0.081 Cl
ATOM     22 CL   UNL     1      10.201   3.676   2.358  0.00  0.00    -0.083 Cl
ATOM     23 CL   UNL     1       4.970   4.773   1.577  0.00  0.00    -0.081 Cl
ENDBRANCH  14  15
ENDBRANCH   1  14
TORSDOF 3
