REMARK  Name = ZINC08644615
REMARK  7 active torsions:
REMARK  status: ('A' for Active; 'I' for Inactive)
REMARK    1  A    between atoms: C_1  and  C_2
REMARK    2  A    between atoms: C_2  and  C_3
REMARK    3  A    between atoms: C_3  and  C_26
REMARK    4  A    between atoms: N_6  and  C_10
REMARK    5  A    between atoms: C_10  and  C_11
REMARK    6  A    between atoms: N_16  and  C_17
REMARK    7  A    between atoms: C_23  and  C_25
REMARK                            x       y       z     vdW  Elec       q    Type
REMARK                         _______ _______ _______ _____ _____    ______ ____
ROOT
ATOM      1  C   UNL     1      -5.326  -5.951  -3.098  0.00  0.00    +0.138 C 
ATOM      2  C   UNL     1      -5.221  -4.829  -2.085  0.00  0.00    +0.251 C 
ATOM      3  O   UNL     1      -5.035  -4.935  -0.892  0.00  0.00    -0.272 OA
ATOM      4  N   UNL     1      -5.378  -3.689  -2.786  0.00  0.00    -0.215 N 
ATOM      5  C   UNL     1      -5.570  -3.933  -4.087  0.00  0.00    +0.310 C 
ATOM      6  O   UNL     1      -5.740  -3.063  -4.920  0.00  0.00    -0.252 OA
ATOM      7  N   UNL     1      -5.551  -5.247  -4.372  0.00  0.00    -0.281 N 
ATOM      8  H   UNL     1      -5.666  -5.652  -5.246  0.00  0.00    +0.152 HD
ENDROOT
BRANCH   1   9
ATOM      9  C   UNL     1      -4.044  -6.742  -3.149  0.00  0.00    -0.015 A 
ATOM     10  C   UNL     1      -3.877  -7.840  -2.326  0.00  0.00    +0.006 A 
ATOM     11  C   UNL     1      -2.702  -8.568  -2.376  0.00  0.00    +0.000 A 
ATOM     12  C   UNL     1      -1.692  -8.192  -3.241  0.00  0.00    +0.000 A 
ATOM     13  C   UNL     1      -1.858  -7.091  -4.060  0.00  0.00    +0.000 A 
ATOM     14  C   UNL     1      -3.033  -6.366  -4.014  0.00  0.00    +0.006 A 
ENDBRANCH   1   9
BRANCH   1  16
ATOM     15  C   UNL     1      -7.814  -6.073  -2.902  0.00  0.00    +0.007 C 
ATOM     16  C   UNL     1      -6.510  -6.863  -2.771  0.00  0.00    +0.037 C 
ENDBRANCH   1  16
BRANCH   4  17
ATOM     17  C   UNL     1      -5.347  -2.349  -2.195  0.00  0.00    +0.214 C 
BRANCH  17  18
ATOM     18  C   UNL     1      -3.933  -1.827  -2.206  0.00  0.00    +0.238 C 
ATOM     19  O   UNL     1      -3.039  -2.507  -2.662  0.00  0.00    -0.274 OA
ATOM     20  N   UNL     1      -3.662  -0.604  -1.709  0.00  0.00    -0.239 N 
ATOM     21  C   UNL     1      -2.398  -0.138  -1.718  0.00  0.00    +0.306 C 
ATOM     22  O   UNL     1      -1.502  -0.820  -2.175  0.00  0.00    -0.252 OA
ATOM     23  N   UNL     1      -2.127   1.086  -1.221  0.00  0.00    -0.296 N 
ATOM     24  H   UNL     1      -4.377  -0.059  -1.344  0.00  0.00    +0.159 HD
ATOM     25  H   UNL     1      -2.842   1.630  -0.856  0.00  0.00    +0.151 HD
BRANCH  23  26
ATOM     26  C   UNL     1      -0.753   1.593  -1.232  0.00  0.00    +0.077 C 
ATOM     27  C   UNL     1      -0.013   1.086   0.008  0.00  0.00    +0.022 C 
ATOM     28  C   UNL     1      -0.729   1.579   1.267  0.00  0.00    +0.002 C 
ATOM     29  C   UNL     1      -0.750   3.109   1.275  0.00  0.00    +0.000 C 
ATOM     30  C   UNL     1      -1.490   3.616   0.036  0.00  0.00    +0.005 C 
ATOM     31  C   UNL     1      -0.773   3.123  -1.223  0.00  0.00    +0.006 C 
ATOM     32  C   UNL     1      -1.513   3.629  -2.463  0.00  0.00    +0.009 C 
ENDBRANCH  23  26
ENDBRANCH  17  18
ENDBRANCH   4  17
TORSDOF 5
