REMARK  Name = ZINC37929117
REMARK  11 active torsions:
REMARK  status: ('A' for Active; 'I' for Inactive)
REMARK    1  A    between atoms: C_1  and  C_2
REMARK    2  A    between atoms: C_2  and  C_3
REMARK    3  A    between atoms: C_2  and  C_4
REMARK    4  A    between atoms: C_2  and  C_17
REMARK    5  A    between atoms: C_4  and  N_5
REMARK    6  A    between atoms: N_5  and  S_6
REMARK    7  A    between atoms: S_6  and  C_9
REMARK    8  A    between atoms: C_14  and  N_15
REMARK    9  A    between atoms: C_17  and  N_18
REMARK   10  A    between atoms: N_18  and  C_19
REMARK   11  A    between atoms: N_18  and  C_20
REMARK                            x       y       z     vdW  Elec       q    Type
REMARK                         _______ _______ _______ _____ _____    ______ ____
ROOT
ATOM      1  S   UNL     1      -3.704   1.231   1.222  0.00  0.00    +0.060 S 
ATOM      2  O   UNL     1      -3.994   2.189   2.230  0.00  0.00    -0.153 OA
ATOM      3  O   UNL     1      -4.084   1.413  -0.135  0.00  0.00    -0.153 OA
ENDROOT
BRANCH   1   4
ATOM      4  C   UNL     1      -4.426  -0.288   1.748  0.00  0.00    +0.128 A 
ATOM      5  C   UNL     1      -5.220  -1.013   0.880  0.00  0.00    +0.068 A 
ATOM      6  C   UNL     1      -5.788  -2.206   1.293  0.00  0.00    +0.125 A 
ATOM      7  C   UNL     1      -5.562  -2.676   2.576  0.00  0.00    +0.040 A 
ATOM      8  C   UNL     1      -4.769  -1.954   3.447  0.00  0.00    +0.027 A 
ATOM      9  C   UNL     1      -4.194  -0.760   3.033  0.00  0.00    +0.051 A 
ATOM     10  F   UNL     1      -6.564  -2.913   0.442  0.00  0.00    -0.205 F 
BRANCH   9  11
ATOM     11  N   UNL     1      -3.386  -0.031   3.911  0.00  0.00    -0.356 N 
ATOM     12  H   UNL     1      -3.040   0.836   3.646  0.00  0.00    +0.142 HD
ATOM     13  H   UNL     1      -3.171  -0.392   4.785  0.00  0.00    +0.142 HD
ENDBRANCH   9  11
ENDBRANCH   1   4
BRANCH   1  14
ATOM     14  N   UNL     1      -2.061   1.019   1.229  0.00  0.00    -0.189 NA
ATOM     15  H   UNL     1      -1.507   1.544   1.828  0.00  0.00    +0.148 HD
BRANCH  14  16
ATOM     16  C   UNL     1      -1.445   0.040   0.330  0.00  0.00    +0.110 C 
BRANCH  16  18
ATOM     17  C   UNL     1       0.292   1.719  -0.308  0.00  0.00    +0.010 C 
ATOM     18  C   UNL     1       0.059   0.309   0.237  0.00  0.00    -0.036 C 
ATOM     19  C   UNL     1       0.685   0.189   1.629  0.00  0.00    +0.010 C 
BRANCH  18  20
ATOM     20  C   UNL     1       0.702  -0.714  -0.701  0.00  0.00    -0.072 C 
BRANCH  20  21
ATOM     21  N   UNL     1       2.143  -0.444  -0.805  0.00  0.00    +0.376 N 
ATOM     22  C   UNL     1       2.849  -1.125   0.289  0.00  0.00    -0.097 C 
ATOM     23  C   UNL     1       2.642  -0.942  -2.094  0.00  0.00    -0.097 C 
ATOM     24  H   UNL     1       2.304   0.550  -0.743  0.00  0.00    -0.083 HD
ENDBRANCH  20  21
ENDBRANCH  18  20
ENDBRANCH  16  18
ENDBRANCH  14  16
ENDBRANCH   1  14
TORSDOF 7
