REMARK  Name = ZINC49025569
REMARK  10 active torsions:
REMARK  status: ('A' for Active; 'I' for Inactive)
REMARK    1  A    between atoms: C_1  and  C_2
REMARK    2  A    between atoms: C_2  and  N_3
REMARK    3  A    between atoms: N_3  and  C_4
REMARK    4  A    between atoms: N_3  and  S_9
REMARK    5  A    between atoms: C_4  and  C_5
REMARK    6  A    between atoms: N_7  and  C_8
REMARK    7  A    between atoms: S_9  and  C_12
REMARK    8  A    between atoms: C_15  and  C_18
REMARK    9  A    between atoms: C_19  and  C_20
REMARK   10  A    between atoms: C_20  and  N_21
REMARK                            x       y       z     vdW  Elec       q    Type
REMARK                         _______ _______ _______ _____ _____    ______ ____
ROOT
ATOM      1  C   UNL     1      -0.337   0.586  -3.526  0.00  0.00    +0.106 A 
ATOM      2  C   UNL     1      -1.407   1.440  -3.327  0.00  0.00    +0.030 A 
ATOM      3  C   UNL     1      -1.530   2.585  -4.086  0.00  0.00    +0.019 A 
ATOM      4  C   UNL     1      -0.572   2.881  -5.056  0.00  0.00    +0.025 A 
ATOM      5  C   UNL     1       0.505   2.016  -5.252  0.00  0.00    +0.019 A 
ATOM      6  C   UNL     1       0.619   0.876  -4.482  0.00  0.00    +0.030 A 
ENDROOT
BRANCH   1   7
ATOM      7  S   UNL     1      -0.188  -0.875  -2.551  0.00  0.00    +0.061 S 
ATOM      8  O   UNL     1       0.610  -1.782  -3.300  0.00  0.00    -0.153 OA
ATOM      9  O   UNL     1      -1.496  -1.201  -2.104  0.00  0.00    -0.153 OA
BRANCH   7  10
ATOM     10  N   UNL     1       0.688  -0.476  -1.203  0.00  0.00    -0.168 NA
BRANCH  10  12
ATOM     11  C   UNL     1      -0.019   1.526   0.010  0.00  0.00    +0.022 C 
ATOM     12  C   UNL     1       0.002  -0.004   0.002  0.00  0.00    +0.106 C 
ENDBRANCH  10  12
BRANCH  10  13
ATOM     13  C   UNL     1       2.148  -0.597  -1.216  0.00  0.00    +0.205 C 
BRANCH  13  14
ATOM     14  C   UNL     1       2.547  -1.931  -0.641  0.00  0.00    +0.229 C 
ATOM     15  O   UNL     1       1.696  -2.705  -0.258  0.00  0.00    -0.274 OA
ATOM     16  N   UNL     1       3.850  -2.264  -0.552  0.00  0.00    -0.317 N 
ATOM     17  C   UNL     1       4.238  -3.561   0.008  0.00  0.00    +0.128 C 
ATOM     18  H   UNL     1       4.531  -1.644  -0.858  0.00  0.00    +0.148 HD
ENDBRANCH  13  14
ENDBRANCH  10  13
ENDBRANCH   7  10
ENDBRANCH   1   7
BRANCH   4  19
ATOM     19  C   UNL     1      -0.694   4.068  -5.848  0.00  0.00    -0.068 C 
ATOM     20  C   UNL     1      -0.793   5.042  -6.497  0.00  0.00    -0.117 C 
BRANCH  20  21
ATOM     21  C   UNL     1      -0.918   6.262  -7.311  0.00  0.00    +0.005 C 
BRANCH  21  22
ATOM     22  N   UNL     1       0.208   6.341  -8.251  0.00  0.00    +0.385 N 
ATOM     23  H   UNL     1       1.075   6.368  -7.735  0.00  0.00    -0.089 HD
ATOM     24  H   UNL     1       0.200   5.532  -8.854  0.00  0.00    -0.089 HD
ATOM     25  H   UNL     1       0.122   7.177  -8.809  0.00  0.00    -0.089 HD
ENDBRANCH  21  22
ENDBRANCH  20  21
ENDBRANCH   4  19
TORSDOF 8
