REMARK  Name = ZINC61890154
REMARK  5 active torsions:
REMARK  status: ('A' for Active; 'I' for Inactive)
REMARK    1  A    between atoms: C_4  and  C_20
REMARK    2  A    between atoms: C_6  and  S_7
REMARK    3  A    between atoms: S_7  and  N_10
REMARK    4  A    between atoms: N_10  and  C_11
REMARK    5  A    between atoms: C_16  and  C_18
REMARK                            x       y       z     vdW  Elec       q    Type
REMARK                         _______ _______ _______ _____ _____    ______ ____
ROOT
ATOM      1  S   UNL     1      -1.513  -0.903   0.012  0.00  0.00    +0.059 S 
ATOM      2  O   UNL     1      -1.222  -2.184   0.553  0.00  0.00    -0.153 OA
ATOM      3  O   UNL     1      -2.493  -0.043   0.576  0.00  0.00    -0.153 OA
ENDROOT
BRANCH   1   9
ATOM      4  C   UNL     1      -0.017   1.380   0.010  0.00  0.00    +0.029 A 
ATOM      5  C   UNL     1       1.168   2.095   0.002  0.00  0.00    +0.018 A 
ATOM      6  C   UNL     1       2.378   1.431  -0.013  0.00  0.00    +0.032 A 
ATOM      7  C   UNL     1       2.404   0.033  -0.021  0.00  0.00    +0.079 A 
ATOM      8  C   UNL     1       1.203  -0.681  -0.013  0.00  0.00    +0.044 A 
ATOM      9  C   UNL     1       0.002  -0.004   0.002  0.00  0.00    +0.106 A 
ATOM     10 BR   UNL     1       3.996   2.410  -0.025  0.00  0.00    -0.049 Br
BRANCH   7  11
ATOM     11  C   UNL     1       3.693  -0.684  -0.038  0.00  0.00    +0.388 C 
ATOM     12  O   UNL     1       3.712  -1.907  -0.045  0.00  0.00    -0.241 OA
ATOM     13  O   UNL     1       4.742  -0.056  -0.046  0.00  0.00    -0.241 OA
ENDBRANCH   7  11
ENDBRANCH   1   9
BRANCH   1  14
ATOM     14  N   UNL     1      -1.949  -1.145  -1.568  0.00  0.00    -0.186 NA
ATOM     15  H   UNL     1      -2.756  -0.734  -1.916  0.00  0.00    +0.148 HD
BRANCH  14  16
ATOM     16  C   UNL     1      -1.117  -1.978  -2.438  0.00  0.00    +0.093 C 
ATOM     17  C   UNL     1      -0.172  -1.090  -3.274  0.00  0.00    +0.022 C 
ATOM     18  C   UNL     1      -0.110  -1.794  -4.653  0.00  0.00    +0.003 C 
ATOM     19  C   UNL     1      -1.563  -2.293  -4.848  0.00  0.00    +0.020 C 
ATOM     20  C   UNL     1      -2.001  -2.744  -3.438  0.00  0.00    +0.110 C 
BRANCH  20  21
ATOM     21  C   UNL     1      -3.417  -2.409  -3.218  0.00  0.00    +0.067 C 
ATOM     22  N   UNL     1      -4.510  -2.150  -3.048  0.00  0.00    -0.196 NA
ENDBRANCH  20  21
ENDBRANCH  14  16
ENDBRANCH   1  14
TORSDOF 5
