REMARK  Name = ZINC40372220
REMARK  7 active torsions:
REMARK  status: ('A' for Active; 'I' for Inactive)
REMARK    1  A    between atoms: C_1  and  C_2
REMARK    2  A    between atoms: C_2  and  C_3
REMARK    3  A    between atoms: C_2  and  C_4
REMARK    4  A    between atoms: C_7  and  C_10
REMARK    5  A    between atoms: N_12  and  C_13
REMARK    6  A    between atoms: C_13  and  C_18
REMARK    7  A    between atoms: N_19  and  O_20
REMARK                            x       y       z     vdW  Elec       q    Type
REMARK                         _______ _______ _______ _____ _____    ______ ____
ROOT
ATOM      1  C   UNL     1      -5.292  -1.903  -0.414  0.00  0.00    +0.245 C 
ATOM      2  O   UNL     1      -5.910  -1.474   0.541  0.00  0.00    -0.270 OA
ATOM      3  N   UNL     1      -5.857  -2.816  -1.228  0.00  0.00    -0.299 N 
ATOM      4  H   UNL     1      -5.394  -3.103  -2.031  0.00  0.00    +0.150 HD
ENDROOT
BRANCH   1   8
ATOM      5  C   UNL     1      -1.349  -0.523  -1.183  0.00  0.00    -0.045 A 
ATOM      6  C   UNL     1      -2.050  -0.034  -0.096  0.00  0.00    +0.004 A 
ATOM      7  C   UNL     1      -3.331  -0.477   0.160  0.00  0.00    +0.013 A 
ATOM      8  C   UNL     1      -3.920  -1.423  -0.682  0.00  0.00    +0.037 A 
ATOM      9  C   UNL     1      -3.207  -1.913  -1.777  0.00  0.00    +0.013 A 
ATOM     10  C   UNL     1      -1.929  -1.456  -2.025  0.00  0.00    +0.004 A 
BRANCH   5  12
ATOM     11  C   UNL     1       0.028   1.480  -1.674  0.00  0.00    +0.012 C 
ATOM     12  C   UNL     1       0.050  -0.034  -1.456  0.00  0.00    +0.013 C 
ATOM     13  C   UNL     1       0.948  -0.365  -0.263  0.00  0.00    +0.012 C 
ENDBRANCH   5  12
ENDBRANCH   1   8
BRANCH   3  14
ATOM     14  C   UNL     1      -7.172  -3.374  -0.902  0.00  0.00    +0.093 C 
ATOM     15  C   UNL     1      -7.521  -4.512  -1.883  0.00  0.00    +0.033 C 
ATOM     16  C   UNL     1      -7.089  -5.801  -1.139  0.00  0.00    +0.003 C 
ATOM     17  C   UNL     1      -7.478  -5.494   0.329  0.00  0.00    +0.003 C 
ATOM     18  C   UNL     1      -7.145  -3.998   0.504  0.00  0.00    +0.033 C 
BRANCH  14  19
ATOM     19  C   UNL     1      -8.222  -2.295  -0.967  0.00  0.00    +0.155 C 
ATOM     20  N   UNL     1      -9.005  -2.094   0.040  0.00  0.00    -0.075 NA
ATOM     21  N   UNL     1      -8.346  -1.523  -2.101  0.00  0.00    -0.342 N 
ATOM     22  H   UNL     1      -7.712  -1.624  -2.829  0.00  0.00    +0.144 HD
ATOM     23  H   UNL     1      -9.067  -0.878  -2.173  0.00  0.00    +0.144 HD
BRANCH  20  24
ATOM     24  O   UNL     1      -9.991  -1.079  -0.021  0.00  0.00    -0.408 OA
ATOM     25  H   UNL     1     -10.528  -1.004   0.779  0.00  0.00    +0.328 HD
ENDBRANCH  20  24
ENDBRANCH  14  19
ENDBRANCH   3  14
TORSDOF 5
