REMARK  Name = ZINC21080080
REMARK  8 active torsions:
REMARK  status: ('A' for Active; 'I' for Inactive)
REMARK    1  A    between atoms: C_3  and  N_8
REMARK    2  A    between atoms: C_9  and  C_11
REMARK    3  A    between atoms: C_11  and  C_12
REMARK    4  A    between atoms: C_12  and  S_13
REMARK    5  A    between atoms: S_13  and  C_14
REMARK    6  A    between atoms: N_19  and  N_20
REMARK    7  A    between atoms: C_21  and  C_22
REMARK    8  A    between atoms: C_27  and  O_28
REMARK                            x       y       z     vdW  Elec       q    Type
REMARK                         _______ _______ _______ _____ _____    ______ ____
ROOT
ATOM      1  C   UNL     1       1.306  -0.409  -0.005  0.00  0.00    +0.210 A 
ATOM      2  N   UNL     1       0.002  -0.005   0.014  0.00  0.00    -0.186 NA
ATOM      3  C   UNL     1      -0.017   1.362   0.014  0.00  0.00    +0.232 A 
ATOM      4  N   UNL     1       1.224   1.784  -0.004  0.00  0.00    -0.245 N 
ATOM      5  N   UNL     1       2.063   0.662  -0.017  0.00  0.00    -0.144 NA
ATOM      6  N   UNL     1      -1.150   2.162   0.026  0.00  0.00    -0.205 N 
ATOM      7  H   UNL     1      -2.149   1.701   0.036  0.00  0.00    +0.177 HD
ATOM      8  H   UNL     1       1.438   2.864  -0.007  0.00  0.00    +0.192 HD
ENDROOT
BRANCH   6   9
ATOM      9  N   UNL     1      -1.023   3.558   0.025  0.00  0.00    -0.187 NA
ATOM     10  C   UNL     1      -2.084   4.306   0.036  0.00  0.00    +0.142 C 
BRANCH  10  11
ATOM     11  C   UNL     1      -1.950   5.774   0.035  0.00  0.00    +0.037 A 
ATOM     12  C   UNL     1      -3.089   6.583   0.047  0.00  0.00    +0.028 A 
ATOM     13  C   UNL     1      -2.956   7.957   0.046  0.00  0.00    +0.019 A 
ATOM     14  C   UNL     1      -1.698   8.536   0.033  0.00  0.00    +0.019 A 
ATOM     15  C   UNL     1      -0.565   7.746   0.021  0.00  0.00    +0.047 A 
ATOM     16  C   UNL     1      -0.680   6.365   0.028  0.00  0.00    +0.126 A 
ATOM     17 BR   UNL     1      -4.498   9.052   0.062  0.00  0.00    -0.050 Br
BRANCH  16  18
ATOM     18  O   UNL     1       0.434   5.588   0.022  0.00  0.00    -0.506 OA
ATOM     19  H   UNL     1       1.431   6.055   0.016  0.00  0.00    +0.292 HD
ENDBRANCH  16  18
ENDBRANCH  10  11
ENDBRANCH   6   9
BRANCH   1  20
ATOM     20  S   UNL     1       1.874  -2.077  -0.014  0.00  0.00    -0.084 S 
BRANCH  20  21
ATOM     21  C   UNL     1       3.681  -1.926  -0.041  0.00  0.00    +0.086 C 
BRANCH  21  22
ATOM     22  C   UNL     1       4.309  -3.321  -0.051  0.00  0.00    +0.107 C 
BRANCH  22  24
ATOM     23  N   UNL     1       6.580  -4.303  -0.085  0.00  0.00    -0.285 N 
ATOM     24  C   UNL     1       5.811  -3.196  -0.073  0.00  0.00    +0.218 C 
ATOM     25  O   UNL     1       6.328  -2.098  -0.080  0.00  0.00    -0.275 OA
ATOM     26  H   UNL     1       6.115  -5.296  -0.002  0.00  0.00    +0.155 HD
BRANCH  23  29
ATOM     27  C   UNL     1      10.060  -5.027  -1.025  0.00  0.00    +0.003 A 
ATOM     28  C   UNL     1       8.689  -5.145  -0.906  0.00  0.00    +0.023 A 
ATOM     29  C   UNL     1       7.969  -4.188  -0.203  0.00  0.00    +0.035 A 
ATOM     30  C   UNL     1       8.632  -3.120   0.389  0.00  0.00    +0.043 A 
ATOM     31  C   UNL     1      10.005  -3.011   0.270  0.00  0.00    +0.043 A 
ATOM     32  C   UNL     1      10.718  -3.964  -0.436  0.00  0.00    +0.020 A 
ATOM     33 CL   UNL     1      10.835  -1.677   1.009  0.00  0.00    -0.083 Cl
ENDBRANCH  23  29
ENDBRANCH  22  24
ENDBRANCH  21  22
ENDBRANCH  20  21
ENDBRANCH   1  20
TORSDOF 8
