REMARK  Name = ZINC10840842
REMARK  7 active torsions:
REMARK  status: ('A' for Active; 'I' for Inactive)
REMARK    1  A    between atoms: C_1  and  C_2
REMARK    2  A    between atoms: C_2  and  C_3
REMARK    3  A    between atoms: C_2  and  C_4
REMARK    4  A    between atoms: C_4  and  C_6
REMARK    5  A    between atoms: C_4  and  N_13
REMARK    6  A    between atoms: C_14  and  C_16
REMARK    7  A    between atoms: C_16  and  N_17
REMARK                            x       y       z     vdW  Elec       q    Type
REMARK                         _______ _______ _______ _____ _____    ______ ____
ROOT
ATOM      1  N   UNL     1      -3.999   2.999  -2.114  0.00  0.00    -0.215 N 
ATOM      2  C   UNL     1      -5.222   3.230  -1.595  0.00  0.00    +0.252 C 
ATOM      3  O   UNL     1      -6.051   2.406  -1.274  0.00  0.00    -0.272 OA
ATOM      4  C   UNL     1      -5.342   4.734  -1.498  0.00  0.00    +0.144 C 
ATOM      5  C   UNL     1      -5.528   5.160  -0.045  0.00  0.00    +0.081 C 
ATOM      6  C   UNL     1      -6.971   4.840   0.369  0.00  0.00    +0.232 C 
ATOM      7  O   UNL     1      -7.856   5.630  -0.426  0.00  0.00    -0.492 OA
ATOM      8  C   UNL     1      -7.673   5.639  -1.772  0.00  0.00    +0.126 A 
ATOM      9  C   UNL     1      -6.482   5.224  -2.346  0.00  0.00    +0.027 A 
ATOM     10  C   UNL     1      -6.334   5.258  -3.722  0.00  0.00    +0.010 A 
ATOM     11  C   UNL     1      -7.368   5.699  -4.525  0.00  0.00    +0.001 A 
ATOM     12  C   UNL     1      -8.559   6.109  -3.955  0.00  0.00    +0.004 A 
ATOM     13  C   UNL     1      -8.712   6.080  -2.584  0.00  0.00    +0.046 A 
ATOM     14  N   UNL     1      -4.062   5.229  -2.020  0.00  0.00    -0.281 N 
ATOM     15  C   UNL     1      -3.340   4.141  -2.350  0.00  0.00    +0.310 C 
ATOM     16  O   UNL     1      -2.217   4.190  -2.813  0.00  0.00    -0.252 OA
ATOM     17  H   UNL     1      -3.789   6.155  -2.107  0.00  0.00    +0.152 HD
ENDROOT
BRANCH   1  18
ATOM     18  C   UNL     1      -3.456   1.665  -2.381  0.00  0.00    +0.213 C 
BRANCH  18  20
ATOM     19  N   UNL     1      -2.142  -0.048  -1.174  0.00  0.00    -0.307 N 
ATOM     20  C   UNL     1      -2.727   1.166  -1.160  0.00  0.00    +0.231 C 
ATOM     21  O   UNL     1      -2.667   1.857  -0.165  0.00  0.00    -0.274 OA
ATOM     22  H   UNL     1      -2.190  -0.601  -1.970  0.00  0.00    +0.149 HD
BRANCH  19  23
ATOM     23  C   UNL     1      -1.433  -0.534   0.013  0.00  0.00    +0.106 C 
BRANCH  23  24
ATOM     24  C   UNL     1      -1.413  -2.041   0.005  0.00  0.00    -0.027 A 
ATOM     25  C   UNL     1      -1.201  -2.722  -1.179  0.00  0.00    +0.008 A 
ATOM     26  C   UNL     1      -1.182  -4.104  -1.188  0.00  0.00    +0.038 A 
ATOM     27  C   UNL     1      -1.375  -4.806  -0.011  0.00  0.00    +0.123 A 
ATOM     28  C   UNL     1      -1.586  -4.122   1.175  0.00  0.00    +0.038 A 
ATOM     29  C   UNL     1      -1.600  -2.740   1.182  0.00  0.00    +0.008 A 
ATOM     30  F   UNL     1      -1.356  -6.157  -0.018  0.00  0.00    -0.205 F 
ENDBRANCH  23  24
BRANCH  23  32
ATOM     31  C   UNL     1      -0.019   1.526   0.010  0.00  0.00    +0.009 C 
ATOM     32  C   UNL     1       0.002  -0.004   0.002  0.00  0.00    +0.008 C 
ATOM     33  C   UNL     1       0.742  -0.511   1.242  0.00  0.00    +0.009 C 
ENDBRANCH  23  32
ENDBRANCH  19  23
ENDBRANCH  18  20
ENDBRANCH   1  18
TORSDOF 5
