REMARK  Name = ZINC04436237
REMARK  11 active torsions:
REMARK  status: ('A' for Active; 'I' for Inactive)
REMARK    1  A    between atoms: C_1  and  C_2
REMARK    2  A    between atoms: C_2  and  C_3
REMARK    3  A    between atoms: C_2  and  C_4
REMARK    4  A    between atoms: C_4  and  C_5
REMARK    5  A    between atoms: C_5  and  C_33
REMARK    6  A    between atoms: C_10  and  C_12
REMARK    7  A    between atoms: C_14  and  O_19
REMARK    8  A    between atoms: C_17  and  O_18
REMARK    9  A    between atoms: O_19  and  C_20
REMARK   10  A    between atoms: N_23  and  C_26
REMARK   11  A    between atoms: C_26  and  C_27
REMARK                            x       y       z     vdW  Elec       q    Type
REMARK                         _______ _______ _______ _____ _____    ______ ____
ROOT
ATOM      1  C   UNL     1      -2.888   5.389  -4.337  0.00  0.00    +0.048 C 
ATOM      2  C   UNL     1      -4.189   5.711  -3.574  0.00  0.00    +0.086 C 
ATOM      3  C   UNL     1      -4.870   4.334  -3.347  0.00  0.00    +0.077 C 
ATOM      4  C   UNL     1      -3.915   3.309  -3.995  0.00  0.00    -0.023 C 
ATOM      5  C   UNL     1      -4.831   4.168  -1.845  0.00  0.00    +0.225 C 
ATOM      6  O   UNL     1      -5.265   3.215  -1.234  0.00  0.00    -0.275 OA
ATOM      7  N   UNL     1      -4.244   5.237  -1.295  0.00  0.00    -0.237 N 
ATOM      8  C   UNL     1      -3.850   6.167  -2.172  0.00  0.00    +0.225 C 
ATOM      9  O   UNL     1      -3.303   7.212  -1.889  0.00  0.00    -0.275 OA
ATOM     10  N   UNL     1      -2.620   3.991  -3.998  0.00  0.00    +0.396 N 
ATOM     11  H   UNL     1      -2.184   3.928  -3.071  0.00  0.00    -0.083 HD
ATOM     12  H   UNL     1      -1.999   3.569  -4.698  0.00  0.00    -0.083 HD
ENDROOT
BRANCH   4  13
ATOM     13  C   UNL     1      -3.869   2.044  -3.178  0.00  0.00    -0.016 A 
ATOM     14  C   UNL     1      -2.850   1.846  -2.268  0.00  0.00    +0.051 A 
ATOM     15  C   UNL     1      -2.811   0.684  -1.512  0.00  0.00    +0.121 A 
ATOM     16  C   UNL     1      -3.790  -0.285  -1.678  0.00  0.00    +0.049 A 
ATOM     17  C   UNL     1      -4.806  -0.089  -2.593  0.00  0.00    +0.049 A 
ATOM     18  C   UNL     1      -4.848   1.076  -3.345  0.00  0.00    +0.119 A 
BRANCH  18  19
ATOM     19  O   UNL     1      -5.849   1.268  -4.245  0.00  0.00    -0.507 OA
ATOM     20  H   UNL     1      -5.649   0.938  -5.132  0.00  0.00    +0.292 HD
ENDBRANCH  18  19
BRANCH  15  21
ATOM     21  O   UNL     1      -1.811   0.491  -0.611  0.00  0.00    -0.495 OA
ATOM     22  C   UNL     1      -1.830  -0.731   0.129  0.00  0.00    +0.277 C 
ENDBRANCH  15  21
ENDBRANCH   4  13
BRANCH   1  23
ATOM     23  C   UNL     1      -3.100   5.535  -5.822  0.00  0.00    +0.346 C 
ATOM     24  O   UNL     1      -3.950   6.285  -6.240  0.00  0.00    -0.248 OA
ATOM     25  O   UNL     1      -2.346   4.830  -6.680  0.00  0.00    -0.248 OA
ENDBRANCH   1  23
BRANCH   1  26
ATOM     26  C   UNL     1      -1.755   6.304  -3.869  0.00  0.00    +0.002 C 
BRANCH  26  28
ATOM     27  C   UNL     1       0.579   7.057  -4.348  0.00  0.00    +0.007 C 
ATOM     28  C   UNL     1      -0.504   6.037  -4.708  0.00  0.00    -0.018 C 
ATOM     29  C   UNL     1       0.010   4.625  -4.423  0.00  0.00    +0.007 C 
ENDBRANCH  26  28
ENDBRANCH   1  26
BRANCH   7  30
ATOM     30  C   UNL     1      -4.054   5.381   0.151  0.00  0.00    +0.151 C 
BRANCH  30  31
ATOM     31  C   UNL     1      -2.725   4.790   0.544  0.00  0.00    -0.030 A 
ATOM     32  C   UNL     1      -2.639   3.455   0.894  0.00  0.00    +0.005 A 
ATOM     33  C   UNL     1      -1.421   2.914   1.260  0.00  0.00    +0.000 A 
ATOM     34  C   UNL     1      -0.287   3.705   1.266  0.00  0.00    +0.000 A 
ATOM     35  C   UNL     1      -0.372   5.039   0.911  0.00  0.00    +0.000 A 
ATOM     36  C   UNL     1      -1.591   5.581   0.550  0.00  0.00    +0.005 A 
ENDBRANCH  30  31
ENDBRANCH   7  30
TORSDOF 8
