REMARK  Name = ZINC13494708
REMARK  4 active torsions:
REMARK  status: ('A' for Active; 'I' for Inactive)
REMARK    1  A    between atoms: C_15  and  C_17
REMARK    2  A    between atoms: C_17  and  S_18
REMARK    3  A    between atoms: S_18  and  C_19
REMARK    4  A    between atoms: C_22  and  C_25
REMARK                            x       y       z     vdW  Elec       q    Type
REMARK                         _______ _______ _______ _____ _____    ______ ____
ROOT
ATOM      1  C   UNL     1       2.802  -4.795   1.981  0.00  0.00    +0.002 A 
ATOM      2  C   UNL     1       2.733  -4.389   3.300  0.00  0.00    +0.001 A 
ATOM      3  C   UNL     1       2.056  -3.228   3.635  0.00  0.00    +0.017 A 
ATOM      4  C   UNL     1       1.451  -2.478   2.643  0.00  0.00    +0.035 A 
ATOM      5  C   UNL     1       1.518  -2.884   1.308  0.00  0.00    +0.055 A 
ATOM      6  C   UNL     1       2.198  -4.049   0.985  0.00  0.00    +0.025 A 
ATOM      7  N   UNL     1       0.908  -2.121   0.305  0.00  0.00    -0.237 N 
ATOM      8  C   UNL     1       0.902  -0.721   0.342  0.00  0.00    +0.055 A 
ATOM      9  C   UNL     1       1.042   0.010  -0.828  0.00  0.00    +0.025 A 
ATOM     10  C   UNL     1       1.036   1.392  -0.784  0.00  0.00    +0.002 A 
ATOM     11  C   UNL     1       0.893   2.054   0.421  0.00  0.00    +0.001 A 
ATOM     12  C   UNL     1       0.753   1.335   1.595  0.00  0.00    +0.017 A 
ATOM     13  C   UNL     1       0.757  -0.048   1.556  0.00  0.00    +0.035 A 
ATOM     14  S   UNL     1       0.581  -0.994   3.038  0.00  0.00    -0.086 S 
ATOM     15  C   UNL     1       0.309  -2.752  -0.725  0.00  0.00    +0.234 C 
ATOM     16  O   UNL     1      -0.290  -2.111  -1.563  0.00  0.00    -0.274 OA
ENDROOT
BRANCH  15  17
ATOM     17  C   UNL     1       0.385  -4.253  -0.836  0.00  0.00    +0.174 C 
BRANCH  17  18
ATOM     18  S   UNL     1      -0.906  -4.842  -1.966  0.00  0.00    -0.077 S 
BRANCH  18  19
ATOM     19  C   UNL     1      -0.689  -6.590  -1.988  0.00  0.00    +0.185 A 
ATOM     20  H   UNL     1      -2.177  -7.269  -3.278  0.00  0.00    +0.191 HD
ATOM     21  N   UNL     1       0.220  -7.264  -1.318  0.00  0.00    -0.200 NA
ATOM     22  C   UNL     1       0.090  -8.574  -1.575  0.00  0.00    +0.200 A 
ATOM     23  N   UNL     1      -0.906  -8.746  -2.414  0.00  0.00    -0.150 NA
ATOM     24  N   UNL     1      -1.430  -7.474  -2.693  0.00  0.00    -0.253 N 
BRANCH  22  25
ATOM     25  C   UNL     1       0.935  -9.652  -1.005  0.00  0.00    +0.110 A 
ATOM     26  C   UNL     1       0.696 -10.978  -1.361  0.00  0.00    +0.031 A 
ATOM     27  C   UNL     1       1.491 -11.973  -0.821  0.00  0.00    +0.004 A 
ATOM     28  C   UNL     1       2.502 -11.609   0.059  0.00  0.00    +0.020 A 
ATOM     29  C   UNL     1       2.683 -10.274   0.368  0.00  0.00    +0.111 A 
ATOM     30  N   UNL     1       1.914  -9.346  -0.164  0.00  0.00    -0.252 NA
ENDBRANCH  22  25
ENDBRANCH  18  19
ENDBRANCH  17  18
ENDBRANCH  15  17
TORSDOF 4
