REMARK  Name = ZINC44174085
REMARK  8 active torsions:
REMARK  status: ('A' for Active; 'I' for Inactive)
REMARK    1  A    between atoms: C_1  and  C_2
REMARK    2  A    between atoms: C_2  and  C_4
REMARK    3  A    between atoms: C_2  and  O_37
REMARK    4  A    between atoms: C_4  and  C_34
REMARK    5  A    between atoms: C_9  and  C_12
REMARK    6  A    between atoms: C_13  and  C_14
REMARK    7  A    between atoms: N_22  and  C_25
REMARK    8  A    between atoms: C_29  and  N_31
REMARK                            x       y       z     vdW  Elec       q    Type
REMARK                         _______ _______ _______ _____ _____    ______ ____
ROOT
ATOM      1  C   UNL     1       0.593  -0.786   1.177  0.00  0.00    +0.074 C 
ATOM      2  C   UNL     1       0.295  -2.268   1.025  0.00  0.00    +0.089 C 
ATOM      3  C   UNL     1       1.522  -2.661   0.118  0.00  0.00    +0.077 C 
ATOM      4  C   UNL     1       2.646  -2.038   0.837  0.00  0.00    -0.034 C 
ATOM      5  N   UNL     1       2.083  -0.674   1.175  0.00  0.00    +0.397 N 
ATOM      6  C   UNL     1       1.111  -3.946  -0.390  0.00  0.00    +0.229 C 
ATOM      7  O   UNL     1       1.816  -4.900  -0.641  0.00  0.00    -0.275 OA
ATOM      8  N   UNL     1      -0.252  -3.856  -0.526  0.00  0.00    -0.210 N 
ATOM      9  C   UNL     1      -0.785  -2.758   0.112  0.00  0.00    +0.229 C 
ATOM     10  O   UNL     1      -1.890  -2.282  -0.034  0.00  0.00    -0.275 OA
ATOM     11  H   UNL     1       2.374   0.002   0.485  0.00  0.00    -0.083 HD
ATOM     12  H   UNL     1       2.406  -0.393   2.088  0.00  0.00    -0.083 HD
ENDROOT
BRANCH   8  13
ATOM     13  C   UNL     1      -1.025  -4.789  -1.233  0.00  0.00    +0.046 A 
ATOM     14  C   UNL     1      -2.400  -4.622  -1.329  0.00  0.00    +0.024 A 
ATOM     15  C   UNL     1      -3.159  -5.542  -2.025  0.00  0.00    +0.004 A 
ATOM     16  C   UNL     1      -2.551  -6.628  -2.626  0.00  0.00    +0.033 A 
ATOM     17  C   UNL     1      -1.182  -6.798  -2.532  0.00  0.00    +0.128 A 
ATOM     18  C   UNL     1      -0.417  -5.878  -1.842  0.00  0.00    +0.056 A 
BRANCH  17  19
ATOM     19  N   UNL     1      -0.535  -7.963  -3.176  0.00  0.00    +0.056 N 
ATOM     20  O   UNL     1      -1.203  -8.766  -3.784  0.00  0.00    -0.126 OA
ATOM     21  O   UNL     1       0.662  -8.111  -3.094  0.00  0.00    -0.126 OA
ENDBRANCH  17  19
ENDBRANCH   8  13
BRANCH   1  22
ATOM     22  C   UNL     1       0.034  -0.270   2.478  0.00  0.00    +0.349 C 
ATOM     23  O   UNL     1      -1.165  -0.322   2.690  0.00  0.00    -0.248 OA
ATOM     24  O   UNL     1       0.782   0.199   3.320  0.00  0.00    -0.248 OA
ENDBRANCH   1  22
BRANCH   1  26
ATOM     25  C   UNL     1       0.267   1.490   0.198  0.00  0.00    +0.037 C 
ATOM     26  C   UNL     1       0.002  -0.004   0.002  0.00  0.00    +0.112 C 
BRANCH  26  27
ATOM     27  O   UNL     1       0.611  -0.440  -1.215  0.00  0.00    -0.393 OA
ATOM     28  H   UNL     1       1.550  -0.217  -1.287  0.00  0.00    +0.210 HD
ENDBRANCH  26  27
ENDBRANCH   1  26
BRANCH   4  29
ATOM     29  C   UNL     1       2.989  -2.822   2.078  0.00  0.00    -0.041 C 
ATOM     30  C   UNL     1       4.227  -3.259   2.265  0.00  0.00    +0.002 C 
BRANCH  30  31
ATOM     31  C   UNL     1       4.563  -4.028   3.481  0.00  0.00    -0.025 A 
ATOM     32  C   UNL     1       3.579  -4.301   4.432  0.00  0.00    +0.008 A 
ATOM     33  C   UNL     1       3.900  -5.020   5.565  0.00  0.00    +0.001 A 
ATOM     34  C   UNL     1       5.194  -5.469   5.761  0.00  0.00    +0.000 A 
ATOM     35  C   UNL     1       6.174  -5.200   4.822  0.00  0.00    +0.001 A 
ATOM     36  C   UNL     1       5.865  -4.489   3.681  0.00  0.00    +0.008 A 
ENDBRANCH  30  31
ENDBRANCH   4  29
TORSDOF 7
