REMARK  Name = ZINC12138963
REMARK  12 active torsions:
REMARK  status: ('A' for Active; 'I' for Inactive)
REMARK    1  A    between atoms: C_1  and  C_2
REMARK    2  A    between atoms: C_7  and  N_8
REMARK    3  A    between atoms: C_13  and  C_14
REMARK    4  A    between atoms: C_13  and  N_68
REMARK    5  A    between atoms: C_14  and  C_16
REMARK    6  A    between atoms: C_14  and  O_31
REMARK    7  A    between atoms: C_16  and  O_17
REMARK    8  A    between atoms: O_17  and  C_18
REMARK    9  A    between atoms: C_21  and  C_30
REMARK   10  A    between atoms: C_25  and  C_27
REMARK   11  A    between atoms: C_27  and  C_28
REMARK   12  A    between atoms: C_27  and  C_29
REMARK                            x       y       z     vdW  Elec       q    Type
REMARK                         _______ _______ _______ _____ _____    ______ ____
ROOT
ATOM      1  C   UNL     1      -4.516   4.093   0.479  0.00  0.00    -0.045 C 
ENDROOT
BRANCH   1   7
ATOM      2  N   UNL     1      -5.253   8.164   1.336  0.00  0.00    -0.333 N 
ATOM      3  C   UNL     1      -5.487   7.696  -0.037  0.00  0.00    +0.086 C 
ATOM      4  C   UNL     1      -5.645   6.174  -0.034  0.00  0.00    -0.060 C 
ATOM      5  C   UNL     1      -4.201   6.027   1.903  0.00  0.00    -0.060 C 
ATOM      6  C   UNL     1      -4.043   7.549   1.900  0.00  0.00    +0.086 C 
ATOM      7  N   UNL     1      -4.413   5.568   0.514  0.00  0.00    +0.383 N 
ATOM      8  H   UNL     1      -3.614   5.860  -0.060  0.00  0.00    -0.082 HD
BRANCH   2  15
ATOM      9  C   UNL     1      -7.258   9.570   2.784  0.00  0.00    +0.045 C 
ATOM     10  C   UNL     1      -6.133  10.285   2.079  0.00  0.00    -0.029 A 
ATOM     11  C   UNL     1      -6.051  11.663   2.129  0.00  0.00    +0.006 A 
ATOM     12  C   UNL     1      -5.024  12.320   1.478  0.00  0.00    +0.020 A 
ATOM     13  C   UNL     1      -4.070  11.599   0.780  0.00  0.00    +0.043 A 
ATOM     14  C   UNL     1      -4.144  10.220   0.731  0.00  0.00    +0.043 A 
ATOM     15  C   UNL     1      -5.176   9.558   1.384  0.00  0.00    +0.034 A 
ATOM     16 CL   UNL     1      -2.781  12.428  -0.035  0.00  0.00    -0.083 Cl
ENDBRANCH   2  15
ENDBRANCH   1   7
BRANCH   1  17
ATOM     17  C   UNL     1      -3.155   3.494   0.837  0.00  0.00    +0.124 C 
BRANCH  17  18
ATOM     18  O   UNL     1      -2.174   3.949  -0.097  0.00  0.00    -0.391 OA
ATOM     19  H   UNL     1      -2.361   3.705  -1.014  0.00  0.00    +0.210 HD
ENDBRANCH  17  18
BRANCH  17  20
ATOM     20  C   UNL     1      -3.240   1.968   0.785  0.00  0.00    +0.189 C 
BRANCH  20  21
ATOM     21  O   UNL     1      -2.004   1.406   1.232  0.00  0.00    -0.374 OA
BRANCH  21  22
ATOM     22  C   UNL     1      -1.978  -0.023   1.222  0.00  0.00    +0.122 C 
ATOM     23  C   UNL     1      -1.471  -0.514  -0.136  0.00  0.00    +0.035 C 
ATOM     24  C   UNL     1      -0.059   0.024  -0.378  0.00  0.00    -0.012 C 
ATOM     25  C   UNL     1       0.874  -0.476   0.726  0.00  0.00    +0.004 C 
ATOM     26  C   UNL     1       0.367   0.015   2.084  0.00  0.00    +0.006 C 
ATOM     27  C   UNL     1      -1.044  -0.523   2.326  0.00  0.00    +0.020 C 
ATOM     28  C   UNL     1      -0.087   1.554  -0.368  0.00  0.00    +0.007 C 
BRANCH  27  29
ATOM     29  C   UNL     1      -1.551  -0.032   3.683  0.00  0.00    -0.012 C 
ATOM     30  C   UNL     1      -2.963  -0.570   3.926  0.00  0.00    +0.007 C 
ATOM     31  C   UNL     1      -0.618  -0.532   4.788  0.00  0.00    +0.007 C 
ENDBRANCH  27  29
ENDBRANCH  21  22
ENDBRANCH  20  21
ENDBRANCH  17  20
ENDBRANCH   1  17
TORSDOF 8
