REMARK  Name = ZINC09083594
REMARK  12 active torsions:
REMARK  status: ('A' for Active; 'I' for Inactive)
REMARK    1  A    between atoms: C_1  and  C_2
REMARK    2  A    between atoms: C_2  and  C_4
REMARK    3  A    between atoms: C_2  and  O_31
REMARK    4  A    between atoms: C_4  and  C_6
REMARK    5  A    between atoms: C_4  and  N_19
REMARK    6  A    between atoms: C_6  and  O_8
REMARK    7  A    between atoms: O_8  and  C_9
REMARK    8  A    between atoms: C_9  and  C_11
REMARK    9  A    between atoms: C_9  and  C_12
REMARK   10  A    between atoms: N_17  and  C_18
REMARK   11  A    between atoms: N_19  and  S_20
REMARK   12  A    between atoms: S_20  and  C_23
REMARK                            x       y       z     vdW  Elec       q    Type
REMARK                         _______ _______ _______ _____ _____    ______ ____
ROOT
ATOM      1  C   UNL     1      -0.013  -0.103  -0.173  0.00  0.00    +0.213 C 
ENDROOT
BRANCH   1   3
ATOM      2  C   UNL     1      -0.645   1.881   1.207  0.00  0.00    +0.040 C 
ATOM      3  C   UNL     1      -0.087   1.425  -0.142  0.00  0.00    +0.141 C 
BRANCH   3   4
ATOM      4  O   UNL     1      -0.945   1.881  -1.191  0.00  0.00    -0.390 OA
ATOM      5  H   UNL     1      -1.039   2.842  -1.232  0.00  0.00    +0.210 HD
ENDBRANCH   3   4
ENDBRANCH   1   3
BRANCH   1   6
ATOM      6  C   UNL     1       0.521  -0.553  -1.508  0.00  0.00    +0.329 C 
ATOM      7  O   UNL     1      -0.148  -1.267  -2.217  0.00  0.00    -0.249 OA
BRANCH   6   8
ATOM      8  O   UNL     1       1.741  -0.161  -1.910  0.00  0.00    -0.451 OA
BRANCH   8   9
ATOM      9  C   UNL     1       2.190  -0.633  -3.208  0.00  0.00    +0.259 C 
ATOM     10  C   UNL     1       1.768   0.365  -4.288  0.00  0.00    +0.062 C 
BRANCH   9  11
ATOM     11  C   UNL     1       3.692  -0.762  -3.202  0.00  0.00    +0.261 C 
ATOM     12  O   UNL     1       4.321  -0.484  -2.204  0.00  0.00    -0.271 OA
ATOM     13  N   UNL     1       4.336  -1.187  -4.308  0.00  0.00    -0.237 N 
ATOM     14  C   UNL     1       5.678  -1.302  -4.303  0.00  0.00    +0.306 C 
ATOM     15  O   UNL     1       6.309  -1.023  -3.302  0.00  0.00    -0.252 OA
ATOM     16  N   UNL     1       6.322  -1.727  -5.408  0.00  0.00    -0.302 N 
ATOM     17  C   UNL     1       7.782  -1.853  -5.403  0.00  0.00    +0.129 C 
ATOM     18  H   UNL     1       3.833  -1.410  -5.106  0.00  0.00    +0.159 HD
ATOM     19  H   UNL     1       5.819  -1.950  -6.207  0.00  0.00    +0.150 HD
ENDBRANCH   9  11
ENDBRANCH   8   9
ENDBRANCH   6   8
ENDBRANCH   1   6
BRANCH   1  20
ATOM     20  N   UNL     1      -1.352  -0.661   0.031  0.00  0.00    -0.174 NA
ATOM     21  H   UNL     1      -2.127  -0.209  -0.337  0.00  0.00    +0.149 HD
BRANCH  20  22
ATOM     22  S   UNL     1      -1.542  -2.065   0.888  0.00  0.00    +0.059 S 
ATOM     23  O   UNL     1      -2.937  -2.332   0.928  0.00  0.00    -0.153 OA
ATOM     24  O   UNL     1      -0.604  -2.993   0.361  0.00  0.00    -0.153 OA
BRANCH  22  25
ATOM     25  C   UNL     1      -1.045  -1.734   2.546  0.00  0.00    +0.107 A 
ATOM     26  C   UNL     1       0.283  -1.862   2.909  0.00  0.00    +0.030 A 
ATOM     27  C   UNL     1       0.674  -1.597   4.207  0.00  0.00    +0.023 A 
ATOM     28  C   UNL     1      -0.265  -1.214   5.148  0.00  0.00    +0.059 A 
ATOM     29  C   UNL     1      -1.596  -1.092   4.787  0.00  0.00    +0.061 A 
ATOM     30  C   UNL     1      -1.985  -1.352   3.485  0.00  0.00    +0.050 A 
ATOM     31 CL   UNL     1      -2.775  -0.611   5.967  0.00  0.00    -0.082 Cl
ATOM     32 CL   UNL     1       0.226  -0.887   6.781  0.00  0.00    -0.082 Cl
ENDBRANCH  22  25
ENDBRANCH  20  22
ENDBRANCH   1  20
TORSDOF 9
