REMARK  Name = ZINC05033747
REMARK  6 active torsions:
REMARK  status: ('A' for Active; 'I' for Inactive)
REMARK    1  A    between atoms: C_1  and  C_2
REMARK    2  A    between atoms: C_6  and  N_8
REMARK    3  A    between atoms: N_8  and  C_9
REMARK    4  A    between atoms: C_9  and  C_10
REMARK    5  A    between atoms: C_15  and  C_21
REMARK    6  A    between atoms: C_22  and  C_24
REMARK                            x       y       z     vdW  Elec       q    Type
REMARK                         _______ _______ _______ _____ _____    ______ ____
ROOT
ATOM      1  C   UNL     1       1.681   6.355  -1.233  0.00  0.00    +0.035 A 
ATOM      2  C   UNL     1       1.437   7.597  -1.740  0.00  0.00    +0.020 A 
ATOM      3  C   UNL     1       1.871   7.880  -3.050  0.00  0.00    -0.001 A 
ATOM      4  C   UNL     1       1.664   9.141  -3.630  0.00  0.00    +0.010 A 
ATOM      5  C   UNL     1       2.107   9.381  -4.896  0.00  0.00    +0.004 A 
ATOM      6  C   UNL     1       2.760   8.390  -5.624  0.00  0.00    -0.048 A 
ATOM      7  C   UNL     1       2.973   7.154  -5.094  0.00  0.00    +0.029 A 
ATOM      8  C   UNL     1       2.530   6.868  -3.791  0.00  0.00    +0.049 A 
ATOM      9  N   UNL     1       2.741   5.668  -3.239  0.00  0.00    -0.322 N 
ATOM     10  C   UNL     1       2.347   5.402  -2.013  0.00  0.00    +0.254 A 
ATOM     11  O   UNL     1       2.587   4.173  -1.493  0.00  0.00    -0.268 OA
ATOM     12  C   UNL     1       3.239   8.690  -7.021  0.00  0.00    +0.044 C 
ATOM     13  H   UNL     1       3.207   4.960  -3.769  0.00  0.00    +0.169 HD
ENDROOT
BRANCH   1  14
ATOM     14  C   UNL     1       1.234   6.008   0.164  0.00  0.00    +0.154 C 
BRANCH  14  15
ATOM     15  N   UNL     1      -0.021   5.256   0.103  0.00  0.00    -0.267 N 
ATOM     16  C   UNL     1      -1.197   5.912   0.028  0.00  0.00    +0.217 C 
ATOM     17  O   UNL     1      -1.211   7.121  -0.073  0.00  0.00    -0.276 OA
ATOM     18  C   UNL     1      -2.492   5.144   0.068  0.00  0.00    +0.109 C 
BRANCH  15  24
ATOM     19  C   UNL     1       0.886   1.072   2.519  0.00  0.00    +0.044 C 
ATOM     20  C   UNL     1       0.434   1.803   1.281  0.00  0.00    -0.049 A 
ATOM     21  C   UNL     1       0.039   1.091   0.163  0.00  0.00    +0.003 A 
ATOM     22  C   UNL     1      -0.381   1.759  -0.972  0.00  0.00    +0.002 A 
ATOM     23  C   UNL     1      -0.402   3.140  -0.996  0.00  0.00    +0.023 A 
ATOM     24  C   UNL     1      -0.001   3.857   0.123  0.00  0.00    +0.037 A 
ATOM     25  C   UNL     1       0.421   3.184   1.262  0.00  0.00    +0.027 A 
ENDBRANCH  15  24
ENDBRANCH  14  15
ENDBRANCH   1  14
TORSDOF 3
