REMARK  Name = ZINC63216225
REMARK  3 active torsions:
REMARK  status: ('A' for Active; 'I' for Inactive)
REMARK    1  A    between atoms: C_1  and  C_2
REMARK    2  A    between atoms: C_7  and  C_10
REMARK    3  A    between atoms: C_12  and  C_15
REMARK                            x       y       z     vdW  Elec       q    Type
REMARK                         _______ _______ _______ _____ _____    ______ ____
ROOT
ATOM      1  C   UNL     1       1.469  -2.526   2.515  0.00  0.00    +0.175 A 
ATOM      2  N   UNL     1       2.538  -3.325   2.490  0.00  0.00    -0.190 NA
ATOM      3  C   UNL     1       2.989  -3.511   3.711  0.00  0.00    +0.280 A 
ATOM      4  O   UNL     1       2.202  -2.821   4.554  0.00  0.00    -0.331 OA
ATOM      5  N   UNL     1       1.221  -2.184   3.748  0.00  0.00    -0.061 NA
ENDROOT
BRANCH   3   6
ATOM      6  C   UNL     1       4.156  -4.333   4.089  0.00  0.00    +0.167 A 
ATOM      7  C   UNL     1       4.062  -5.246   5.153  0.00  0.00    +0.147 A 
ATOM      8  N   UNL     1       5.116  -5.980   5.484  0.00  0.00    -0.237 NA
ATOM      9  C   UNL     1       6.248  -5.851   4.814  0.00  0.00    +0.132 A 
ATOM     10  C   UNL     1       6.341  -4.951   3.764  0.00  0.00    +0.131 A 
ATOM     11  N   UNL     1       5.300  -4.218   3.421  0.00  0.00    -0.245 NA
ATOM     12  N   UNL     1       2.874  -5.378   5.854  0.00  0.00    -0.341 N 
ATOM     13  H   UNL     1       2.080  -4.908   5.554  0.00  0.00    +0.144 HD
ATOM     14  H   UNL     1       2.837  -5.939   6.644  0.00  0.00    +0.144 HD
ENDBRANCH   3   6
BRANCH   1  20
ATOM     15  C   UNL     1      -0.043   1.413  -0.125  0.00  0.00    +0.007 C 
ATOM     16  C   UNL     1      -0.083  -0.112  -0.019  0.00  0.00    -0.013 C 
ATOM     17  C   UNL     1      -1.534  -0.575   0.126  0.00  0.00    +0.003 C 
ATOM     18  C   UNL     1      -1.575  -2.101   0.232  0.00  0.00    +0.001 C 
ATOM     19  C   UNL     1      -0.773  -2.548   1.455  0.00  0.00    +0.011 C 
ATOM     20  C   UNL     1       0.678  -2.086   1.311  0.00  0.00    +0.061 C 
ATOM     21  C   UNL     1       0.719  -0.560   1.204  0.00  0.00    +0.014 C 
ENDBRANCH   1  20
TORSDOF 2
