REMARK  Name = ZINC02794117
REMARK  10 active torsions:
REMARK  status: ('A' for Active; 'I' for Inactive)
REMARK    1  A    between atoms: C_1  and  C_2
REMARK    2  A    between atoms: C_2  and  O_3
REMARK    3  A    between atoms: O_3  and  C_4
REMARK    4  A    between atoms: C_9  and  N_10
REMARK    5  A    between atoms: N_10  and  C_11
REMARK    6  A    between atoms: C_11  and  N_13
REMARK    7  A    between atoms: N_13  and  N_14
REMARK    8  A    between atoms: C_15  and  C_17
REMARK    9  A    between atoms: C_23  and  C_32
REMARK   10  A    between atoms: C_26  and  C_28
REMARK                            x       y       z     vdW  Elec       q    Type
REMARK                         _______ _______ _______ _____ _____    ______ ____
ROOT
ATOM      1  N   UNL     1       1.098   3.830   0.054  0.00  0.00    -0.231 N 
ATOM      2  C   UNL     1       2.245   4.537   0.063  0.00  0.00    +0.265 C 
ATOM      3  O   UNL     1       3.303   3.982  -0.172  0.00  0.00    -0.268 OA
ATOM      4  H   UNL     1       0.142   4.331   0.267  0.00  0.00    +0.173 HD
ENDROOT
BRANCH   2   5
ATOM      5  C   UNL     1       2.220   5.974   0.357  0.00  0.00    +0.097 A 
ATOM      6  C   UNL     1       1.074   6.757   0.642  0.00  0.00    +0.149 A 
ATOM      7  N   UNL     1       1.460   7.985   0.851  0.00  0.00    -0.177 NA
ATOM      8  N   UNL     1       2.845   8.060   0.705  0.00  0.00    -0.238 N 
ATOM      9  C   UNL     1       3.313   6.829   0.402  0.00  0.00    +0.130 A 
ATOM     10  N   UNL     1       4.637   6.513   0.182  0.00  0.00    -0.326 N 
ATOM     11  C   UNL     1       5.519   7.555   0.729  0.00  0.00    +0.071 C 
ATOM     12  C   UNL     1       5.061   8.929   0.228  0.00  0.00    +0.058 C 
ATOM     13  C   UNL     1       3.693   9.251   0.847  0.00  0.00    +0.214 C 
ATOM     14  C   UNL     1       6.956   7.299   0.270  0.00  0.00    +0.028 C 
ATOM     15  H   UNL     1       5.069   5.633  -0.318  0.00  0.00    +0.148 HD
BRANCH  13  16
ATOM     16  C   UNL     1       3.056  10.431   0.110  0.00  0.00    +0.412 C 
ATOM     17  F   UNL     1       1.794  10.694   0.654  0.00  0.00    -0.168 F 
ATOM     18  F   UNL     1       3.869  11.561   0.250  0.00  0.00    -0.168 F 
ATOM     19  F   UNL     1       2.923  10.117  -1.246  0.00  0.00    -0.168 F 
ENDBRANCH  13  16
ENDBRANCH   2   5
BRANCH   1  20
ATOM     20  N   UNL     1       1.122   2.458  -0.226  0.00  0.00    -0.245 N 
ATOM     21  H   UNL     1       2.078   1.957  -0.438  0.00  0.00    +0.172 HD
BRANCH  20  22
ATOM     22  C   UNL     1      -0.025   1.751  -0.234  0.00  0.00    +0.151 C 
ATOM     23  S   UNL     1       0.005   0.074  -0.576  0.00  0.00    -0.017 S 
BRANCH  22  24
ATOM     24  N   UNL     1      -1.197   2.366   0.021  0.00  0.00    -0.293 N 
ATOM     25  H   UNL     1      -1.210   3.427   0.310  0.00  0.00    +0.154 HD
BRANCH  24  31
ATOM     26  C   UNL     1      -3.476   2.199  -0.778  0.00  0.00    +0.142 A 
ATOM     27  C   UNL     1      -4.662   1.490  -0.878  0.00  0.00    +0.047 A 
ATOM     28  C   UNL     1      -4.775   0.244  -0.289  0.00  0.00    +0.004 A 
ATOM     29  C   UNL     1      -3.707  -0.298   0.402  0.00  0.00    +0.002 A 
ATOM     30  C   UNL     1      -2.518   0.401   0.501  0.00  0.00    +0.027 A 
ATOM     31  C   UNL     1      -2.399   1.653  -0.083  0.00  0.00    +0.075 A 
BRANCH  26  32
ATOM     32  O   UNL     1      -3.364   3.423  -1.358  0.00  0.00    -0.490 OA
BRANCH  32  34
ATOM     33  C   UNL     1      -4.194   5.299  -2.636  0.00  0.00    +0.048 C 
ATOM     34  C   UNL     1      -4.509   3.919  -2.055  0.00  0.00    +0.226 C 
ENDBRANCH  32  34
ENDBRANCH  26  32
ENDBRANCH  24  31
ENDBRANCH  22  24
ENDBRANCH  20  22
ENDBRANCH   1  20
TORSDOF 8
