REMARK  Name = ZINC67396098
REMARK  8 active torsions:
REMARK  status: ('A' for Active; 'I' for Inactive)
REMARK    1  A    between atoms: C_1  and  C_2
REMARK    2  A    between atoms: C_5  and  C_30
REMARK    3  A    between atoms: C_14  and  C_16
REMARK    4  A    between atoms: N_18  and  C_19
REMARK    5  A    between atoms: C_19  and  C_21
REMARK    6  A    between atoms: C_19  and  C_22
REMARK    7  A    between atoms: C_22  and  C_23
REMARK    8  A    between atoms: C_26  and  O_29
REMARK                            x       y       z     vdW  Elec       q    Type
REMARK                         _______ _______ _______ _____ _____    ______ ____
ROOT
ATOM      1  C   UNL     1      -0.501   0.928   0.141  0.00  0.00    +0.028 C 
ATOM      2  C   UNL     1       0.617  -0.003  -0.333  0.00  0.00    +0.080 C 
ATOM      3  C   UNL     1       0.022  -1.347  -0.774  0.00  0.00    +0.040 C 
ATOM      4  C   UNL     1       1.147  -2.233  -1.308  0.00  0.00    +0.108 C 
ATOM      5  C   UNL     1       2.280  -2.301  -0.318  0.00  0.00    -0.014 A 
ATOM      6  C   UNL     1       3.175  -3.355  -0.396  0.00  0.00    +0.006 A 
ATOM      7  C   UNL     1       4.226  -3.444   0.496  0.00  0.00    +0.000 A 
ATOM      8  C   UNL     1       4.391  -2.480   1.474  0.00  0.00    +0.002 A 
ATOM      9  C   UNL     1       3.503  -1.427   1.559  0.00  0.00    +0.024 A 
ATOM     10  C   UNL     1       2.443  -1.336   0.663  0.00  0.00    +0.041 A 
ATOM     11  N   UNL     1       1.550  -0.264   0.771  0.00  0.00    -0.261 N 
ATOM     12  C   UNL     1       1.544   0.515   1.871  0.00  0.00    +0.306 C 
ATOM     13  O   UNL     1       0.849   1.510   1.907  0.00  0.00    -0.265 OA
ENDROOT
BRANCH   4  14
ATOM     14  C   UNL     1       0.615  -3.622  -1.548  0.00  0.00    +0.218 C 
ATOM     15  O   UNL     1      -0.315  -4.037  -0.890  0.00  0.00    -0.275 OA
ATOM     16  N   UNL     1       1.174  -4.404  -2.493  0.00  0.00    -0.329 N 
ATOM     17  H   UNL     1       1.968  -4.104  -2.964  0.00  0.00    +0.145 HD
ATOM     18  H   UNL     1       0.783  -5.267  -2.703  0.00  0.00    +0.145 HD
ENDBRANCH   4  14
BRANCH  12  19
ATOM     19  C   UNL     1       2.393   0.155   3.046  0.00  0.00    +0.300 C 
ATOM     20  O   UNL     1       2.370  -0.976   3.487  0.00  0.00    -0.265 OA
ATOM     21  N   UNL     1       3.184   1.085   3.616  0.00  0.00    -0.305 N 
ATOM     22  H   UNL     1       3.203   1.988   3.264  0.00  0.00    +0.149 HD
BRANCH  21  23
ATOM     23  C   UNL     1       4.017   0.731   4.769  0.00  0.00    +0.075 C 
ATOM     24  C   UNL     1       5.333   0.123   4.279  0.00  0.00    +0.028 C 
BRANCH  23  25
ATOM     25  C   UNL     1       4.310   1.988   5.590  0.00  0.00    +0.057 C 
BRANCH  25  26
ATOM     26  C   UNL     1       3.026   2.518   6.174  0.00  0.00    -0.045 A 
ATOM     27  C   UNL     1       2.270   3.432   5.464  0.00  0.00    +0.007 A 
ATOM     28  C   UNL     1       1.093   3.920   5.997  0.00  0.00    +0.045 A 
ATOM     29  C   UNL     1       0.668   3.490   7.246  0.00  0.00    +0.117 A 
ATOM     30  C   UNL     1       1.428   2.572   7.957  0.00  0.00    +0.045 A 
ATOM     31  C   UNL     1       2.602   2.084   7.417  0.00  0.00    +0.007 A 
BRANCH  29  32
ATOM     32  O   UNL     1      -0.489   3.969   7.773  0.00  0.00    -0.507 OA
ATOM     33  H   UNL     1      -1.270   3.445   7.546  0.00  0.00    +0.292 HD
ENDBRANCH  29  32
ENDBRANCH  25  26
ENDBRANCH  23  25
ENDBRANCH  21  23
ENDBRANCH  12  19
TORSDOF 6
