REMARK  Name = ZINC03194470
REMARK  6 active torsions:
REMARK  status: ('A' for Active; 'I' for Inactive)
REMARK    1  A    between atoms: C_1  and  C_2
REMARK    2  A    between atoms: C_2  and  C_23
REMARK    3  A    between atoms: C_13  and  C_16
REMARK    4  A    between atoms: C_21  and  O_22
REMARK    5  A    between atoms: N_25  and  O_26
REMARK    6  A    between atoms: O_26  and  C_27
REMARK                            x       y       z     vdW  Elec       q    Type
REMARK                         _______ _______ _______ _____ _____    ______ ____
ROOT
ATOM      1  C   UNL     1       2.306  -0.369   4.026  0.00  0.00    +0.051 C 
ATOM      2  C   UNL     1       2.107   0.942   3.310  0.00  0.00    +0.039 C 
ATOM      3  C   UNL     1       2.206   0.998   1.960  0.00  0.00    +0.099 C 
ATOM      4  C   UNL     1       2.510  -0.216   1.149  0.00  0.00    +0.262 C 
ATOM      5  O   UNL     1       3.588  -0.769   1.242  0.00  0.00    -0.268 OA
ATOM      6  N   UNL     1       1.565  -0.687   0.308  0.00  0.00    -0.280 N 
ATOM      7  C   UNL     1       0.287  -0.131   0.294  0.00  0.00    +0.039 A 
ATOM      8  C   UNL     1      -0.821  -0.965   0.420  0.00  0.00    +0.023 A 
ATOM      9  C   UNL     1      -2.092  -0.432   0.433  0.00  0.00    +0.002 A 
ATOM     10  C   UNL     1      -2.276   0.934   0.321  0.00  0.00    +0.000 A 
ATOM     11  C   UNL     1      -1.181   1.769   0.189  0.00  0.00    +0.007 A 
ATOM     12  C   UNL     1       0.093   1.241   0.169  0.00  0.00    -0.002 A 
ATOM     13  C   UNL     1       1.287   2.154   0.001  0.00  0.00    +0.136 C 
ATOM     14  N   UNL     1       2.029   2.184   1.270  0.00  0.00    -0.328 N 
ATOM     15  H   UNL     1       1.800  -1.518  -0.374  0.00  0.00    +0.155 HD
ATOM     16  H   UNL     1       2.430   3.135   1.651  0.00  0.00    +0.147 HD
ENDROOT
BRANCH  13  17
ATOM     17  C   UNL     1       2.177   1.630  -1.096  0.00  0.00    +0.019 A 
ATOM     18  C   UNL     1       1.674   0.746  -2.031  0.00  0.00    +0.009 A 
ATOM     19  C   UNL     1       2.489   0.269  -3.041  0.00  0.00    +0.001 A 
ATOM     20  C   UNL     1       3.811   0.665  -3.111  0.00  0.00    +0.004 A 
ATOM     21  C   UNL     1       4.320   1.545  -2.175  0.00  0.00    +0.046 A 
ATOM     22  C   UNL     1       3.503   2.030  -1.164  0.00  0.00    +0.122 A 
BRANCH  22  23
ATOM     23  O   UNL     1       4.002   2.894  -0.242  0.00  0.00    -0.506 OA
ATOM     24  H   UNL     1       5.054   3.211  -0.297  0.00  0.00    +0.292 HD
ENDBRANCH  22  23
ENDBRANCH  13  17
BRANCH   2  25
ATOM     25  C   UNL     1       1.807   2.155   4.074  0.00  0.00    +0.264 C 
ATOM     26  O   UNL     1       1.646   3.213   3.495  0.00  0.00    -0.268 OA
ATOM     27  N   UNL     1       1.709   2.099   5.417  0.00  0.00    -0.191 N 
ATOM     28  H   UNL     1       1.854   1.142   5.939  0.00  0.00    +0.183 HD
BRANCH  27  29
ATOM     29  O   UNL     1       1.418   3.272   6.155  0.00  0.00    -0.283 OA
ATOM     30  C   UNL     1       1.344   3.066   7.567  0.00  0.00    +0.226 C 
ENDBRANCH  27  29
ENDBRANCH   2  25
TORSDOF 4
