REMARK  Name = ZINC58020709
REMARK  8 active torsions:
REMARK  status: ('A' for Active; 'I' for Inactive)
REMARK    1  A    between atoms: C_1  and  C_2
REMARK    2  A    between atoms: C_2  and  C_3
REMARK    3  A    between atoms: C_2  and  C_4
REMARK    4  A    between atoms: C_2  and  N_5
REMARK    5  A    between atoms: N_5  and  S_6
REMARK    6  A    between atoms: S_6  and  C_9
REMARK    7  A    between atoms: C_17  and  C_20
REMARK    8  A    between atoms: C_20  and  N_21
REMARK                            x       y       z     vdW  Elec       q    Type
REMARK                         _______ _______ _______ _____ _____    ______ ____
ROOT
ATOM      1  C   UNL     1       2.939  -0.205  -0.013  0.00  0.00    +0.108 A 
ATOM      2  C   UNL     1       2.883   0.506   1.173  0.00  0.00    +0.036 A 
ATOM      3  C   UNL     1       3.672   0.133   2.239  0.00  0.00    +0.002 A 
ATOM      4  C   UNL     1       4.525  -0.958   2.144  0.00  0.00    +0.159 A 
ATOM      5  C   UNL     1       4.580  -1.668   0.945  0.00  0.00    +0.167 A 
ATOM      6  C   UNL     1       3.785  -1.293  -0.121  0.00  0.00    +0.070 A 
ATOM      7  F   UNL     1       5.409  -2.728   0.828  0.00  0.00    -0.202 F 
ATOM      8  O   UNL     1       5.192  -1.165   3.313  0.00  0.00    -0.487 OA
ATOM      9  C   UNL     1       5.151   0.037   4.101  0.00  0.00    +0.161 C 
ATOM     10  C   UNL     1       3.838   0.708   3.632  0.00  0.00    +0.081 C 
ENDROOT
BRANCH   1  11
ATOM     11  S   UNL     1       1.930   0.269  -1.377  0.00  0.00    +0.059 S 
ATOM     12  O   UNL     1       2.439  -0.413  -2.515  0.00  0.00    -0.153 OA
ATOM     13  O   UNL     1       1.816   1.684  -1.325  0.00  0.00    -0.153 OA
BRANCH  11  14
ATOM     14  N   UNL     1       0.415  -0.339  -1.100  0.00  0.00    -0.185 NA
ATOM     15  H   UNL     1      -0.323   0.263  -0.914  0.00  0.00    +0.149 HD
BRANCH  14  17
ATOM     16  C   UNL     1       1.205  -2.483  -0.229  0.00  0.00    +0.029 C 
ATOM     17  C   UNL     1       0.188  -1.786  -1.134  0.00  0.00    +0.032 C 
ATOM     18  C   UNL     1       0.350  -2.293  -2.569  0.00  0.00    +0.029 C 
ATOM     19  C   UNL     1      -1.228  -2.092  -0.642  0.00  0.00    +0.029 C 
ENDBRANCH  14  17
ENDBRANCH  11  14
ENDBRANCH   1  11
BRANCH   9  20
ATOM     20  C   UNL     1       5.092  -0.295   5.593  0.00  0.00    -0.041 C 
BRANCH  20  21
ATOM     21  N   UNL     1       6.351  -0.931   6.003  0.00  0.00    +0.380 N 
ATOM     22  H   UNL     1       7.119  -0.301   5.829  0.00  0.00    -0.090 HD
ATOM     23  H   UNL     1       6.312  -1.150   6.988  0.00  0.00    -0.090 HD
ATOM     24  H   UNL     1       6.486  -1.780   5.475  0.00  0.00    -0.090 HD
ENDBRANCH  20  21
ENDBRANCH   9  20
TORSDOF 5
