REMARK  Name = ZINC45048981
REMARK  1 active torsions:
REMARK  status: ('A' for Active; 'I' for Inactive)
REMARK    1  A    between atoms: C_12  and  C_13
REMARK                            x       y       z     vdW  Elec       q    Type
REMARK                         _______ _______ _______ _____ _____    ______ ____
ROOT
ATOM      1  C   UNL     1      -0.016   1.300   0.009  0.00  0.00    +0.224 A 
ATOM      2  N   UNL     1       1.250   1.776  -0.000  0.00  0.00    -0.228 NA
ATOM      3  C   UNL     1       2.093   0.691  -0.014  0.00  0.00    +0.154 A 
ATOM      4  C   UNL     1       1.275  -0.441  -0.013  0.00  0.00    +0.185 A 
ATOM      5  N   UNL     1       0.002  -0.004   0.002  0.00  0.00    -0.214 NA
ATOM      6  N   UNL     1       1.840  -1.672  -0.025  0.00  0.00    -0.216 NA
ATOM      7  C   UNL     1       3.130  -1.832  -0.038  0.00  0.00    +0.209 A 
ATOM      8  N   UNL     1       3.986  -0.773  -0.041  0.00  0.00    -0.267 N 
ATOM      9  C   UNL     1       3.492   0.514  -0.029  0.00  0.00    +0.192 A 
ATOM     10  N   UNL     1       4.532   1.323  -0.035  0.00  0.00    -0.127 NA
ATOM     11  N   UNL     1       5.618   0.632  -0.050  0.00  0.00    -0.133 NA
ATOM     12  C   UNL     1       5.342  -0.646  -0.052  0.00  0.00    +0.140 A 
ENDROOT
BRANCH  12  13
ATOM     13  C   UNL     1       6.342  -1.773  -0.068  0.00  0.00    +0.040 C 
ATOM     14  C   UNL     1       7.212  -1.668  -1.324  0.00  0.00    +0.007 C 
ATOM     15  C   UNL     1       8.274  -2.770  -1.292  0.00  0.00    -0.018 C 
ATOM     16  C   UNL     1       9.095  -2.642  -0.006  0.00  0.00    -0.083 C 
ATOM     17  N   UNL     1       8.211  -2.778   1.158  0.00  0.00    +0.380 N 
ATOM     18  C   UNL     1       7.234  -1.683   1.173  0.00  0.00    -0.071 C 
ATOM     19  H   UNL     1       7.725  -3.660   1.109  0.00  0.00    -0.086 HD
ATOM     20  H   UNL     1       8.763  -2.746   2.002  0.00  0.00    -0.086 HD
ENDBRANCH  12  13
TORSDOF 1
