REMARK  Name = ZINC66739958
REMARK  2 active torsions:
REMARK  status: ('A' for Active; 'I' for Inactive)
REMARK    1  A    between atoms: C_1  and  C_2
REMARK    2  A    between atoms: C_14  and  C_22
REMARK                            x       y       z     vdW  Elec       q    Type
REMARK                         _______ _______ _______ _____ _____    ______ ____
ROOT
ATOM      1  C   UNL     1      -0.018   1.503   0.010  0.00  0.00    +0.046 C 
ATOM      2  C   UNL     1       0.002  -0.004   0.002  0.00  0.00    -0.026 A 
ATOM      3  C   UNL     1       0.006  -0.720  -1.185  0.00  0.00    +0.043 A 
ATOM      4  C   UNL     1       0.025  -2.101  -1.206  0.00  0.00    +0.124 A 
ATOM      5  C   UNL     1       0.041  -2.843  -0.028  0.00  0.00    +0.048 A 
ATOM      6  C   UNL     1       0.037  -2.137   1.155  0.00  0.00    +0.027 A 
ATOM      7  C   UNL     1       0.023  -0.737   1.189  0.00  0.00    +0.044 A 
ATOM      8  N   UNL     1       0.029  -0.288   2.499  0.00  0.00    -0.281 N 
ATOM      9  C   UNL     1       0.050  -1.306   3.383  0.00  0.00    +0.264 C 
ATOM     10  O   UNL     1       0.058  -1.209   4.592  0.00  0.00    -0.271 OA
ATOM     11  C   UNL     1       0.049  -2.594   2.582  0.00  0.00    +0.206 C 
ATOM     12  N   UNL     1      -1.173  -3.357   2.880  0.00  0.00    -0.309 N 
ATOM     13  C   UNL     1      -1.152  -4.727   2.587  0.00  0.00    +0.082 A 
ATOM     14  C   UNL     1      -2.090  -5.642   2.324  0.00  0.00    +0.055 A 
ATOM     15  N   UNL     1      -1.440  -6.824   2.110  0.00  0.00    -0.279 N 
ATOM     16  H   UNL     1      -1.873  -7.665   1.896  0.00  0.00    +0.189 HD
ATOM     17  N   UNL     1      -0.164  -6.661   2.233  0.00  0.00    -0.167 NA
ATOM     18  C   UNL     1       0.100  -5.422   2.524  0.00  0.00    +0.168 A 
ATOM     19  C   UNL     1       1.353  -4.688   2.783  0.00  0.00    +0.268 C 
ATOM     20  O   UNL     1       2.416  -5.266   2.905  0.00  0.00    -0.268 OA
ATOM     21  N   UNL     1       1.265  -3.340   2.878  0.00  0.00    -0.278 N 
ATOM     22  C   UNL     1      -3.579  -5.414   2.272  0.00  0.00    +0.067 C 
ATOM     23  F   UNL     1       0.028  -2.745  -2.394  0.00  0.00    -0.205 F 
ATOM     24  H   UNL     1       0.019   0.649   2.751  0.00  0.00    +0.155 HD
ATOM     25  H   UNL     1      -1.957  -2.931   3.261  0.00  0.00    +0.149 HD
ATOM     26  H   UNL     1       2.051  -2.846   3.159  0.00  0.00    +0.152 HD
ENDROOT
TORSDOF 0
