REMARK  Name = ZINC15866153
REMARK  8 active torsions:
REMARK  status: ('A' for Active; 'I' for Inactive)
REMARK    1  A    between atoms: C_1  and  C_2
REMARK    2  A    between atoms: C_2  and  C_3
REMARK    3  A    between atoms: C_2  and  C_4
REMARK    4  A    between atoms: C_4  and  C_6
REMARK    5  A    between atoms: C_4  and  N_21
REMARK    6  A    between atoms: C_8  and  C_11
REMARK    7  A    between atoms: N_19  and  C_20
REMARK    8  A    between atoms: C_22  and  C_24
REMARK                            x       y       z     vdW  Elec       q    Type
REMARK                         _______ _______ _______ _____ _____    ______ ____
ROOT
ATOM      1  C   UNL     1       1.264  -0.445  -0.012  0.00  0.00    +0.248 A 
ATOM      2  N   UNL     1       2.041   0.610  -0.014  0.00  0.00    -0.190 NA
ATOM      3  C   UNL     1       1.208   1.675  -0.001  0.00  0.00    +0.202 A 
ATOM      4  N   UNL     1      -0.014   1.209   0.009  0.00  0.00    -0.056 NA
ATOM      5  O   UNL     1       0.002  -0.004   0.002  0.00  0.00    -0.336 OA
ENDROOT
BRANCH   3   6
ATOM      6  C   UNL     1       1.605   3.104   0.003  0.00  0.00    +0.025 A 
ATOM      7  C   UNL     1       2.960   3.450  -0.003  0.00  0.00    +0.014 A 
ATOM      8  C   UNL     1       3.340   4.762  -0.005  0.00  0.00    +0.028 A 
ATOM      9  C   UNL     1       2.380   5.766   0.009  0.00  0.00    +0.068 A 
ATOM     10  C   UNL     1       1.013   5.435   0.020  0.00  0.00    +0.090 A 
ATOM     11  C   UNL     1       0.631   4.093   0.017  0.00  0.00    +0.041 A 
ATOM     12  N   UNL     1       0.322   6.604   0.033  0.00  0.00    -0.236 NA
ATOM     13  C   UNL     1       1.155   7.603   0.029  0.00  0.00    +0.200 A 
ATOM     14  N   UNL     1       2.436   7.145   0.015  0.00  0.00    -0.333 N 
ATOM     15  C   UNL     1       3.651   7.963   0.008  0.00  0.00    +0.150 C 
ENDBRANCH   3   6
BRANCH   1  16
ATOM     16  C   UNL     1       1.709  -1.885  -0.025  0.00  0.00    +0.165 C 
BRANCH  16  17
ATOM     17  N   UNL     1       0.911  -2.634  -0.998  0.00  0.00    -0.297 N 
ATOM     18  C   UNL     1       1.409  -3.754  -1.559  0.00  0.00    +0.280 C 
ATOM     19  O   UNL     1       2.521  -4.143  -1.256  0.00  0.00    -0.267 OA
ATOM     20  H   UNL     1       0.024  -2.324  -1.240  0.00  0.00    +0.150 HD
BRANCH  18  21
ATOM     21  C   UNL     1       0.609  -4.504  -2.533  0.00  0.00    +0.189 A 
ATOM     22  C   UNL     1       0.991  -5.649  -3.172  0.00  0.00    +0.054 A 
ATOM     23  C   UNL     1      -0.075  -6.019  -4.007  0.00  0.00    +0.042 A 
ATOM     24  C   UNL     1      -1.048  -5.096  -3.843  0.00  0.00    +0.196 A 
ATOM     25  O   UNL     1      -0.634  -4.188  -2.950  0.00  0.00    -0.458 OA
ENDBRANCH  18  21
ENDBRANCH  16  17
BRANCH  16  27
ATOM     26  C   UNL     1       0.025  -2.531   1.703  0.00  0.00    +0.009 C 
ATOM     27  C   UNL     1       1.517  -2.490   1.367  0.00  0.00    +0.012 C 
ATOM     28  C   UNL     1       2.083  -3.911   1.387  0.00  0.00    +0.009 C 
ENDBRANCH  16  27
ENDBRANCH   1  16
TORSDOF 5
