REMARK  Name = ZINC36556992
REMARK  16 active torsions:
REMARK  status: ('A' for Active; 'I' for Inactive)
REMARK    1  A    between atoms: C_1  and  C_2
REMARK    2  A    between atoms: C_5  and  C_7
REMARK    3  A    between atoms: C_7  and  N_8
REMARK    4  A    between atoms: N_8  and  C_9
REMARK    5  A    between atoms: C_9  and  C_11
REMARK    6  A    between atoms: C_9  and  C_20
REMARK    7  A    between atoms: C_12  and  O_19
REMARK    8  A    between atoms: C_14  and  O_18
REMARK    9  A    between atoms: C_16  and  O_17
REMARK   10  A    between atoms: N_22  and  C_23
REMARK   11  A    between atoms: C_23  and  C_24
REMARK   12  A    between atoms: C_23  and  C_25
REMARK   13  A    between atoms: C_23  and  C_26
REMARK   14  A    between atoms: C_27  and  C_29
REMARK   15  A    between atoms: C_29  and  C_30
REMARK   16  A    between atoms: C_30  and  C_31
REMARK                            x       y       z     vdW  Elec       q    Type
REMARK                         _______ _______ _______ _____ _____    ______ ____
ROOT
ATOM      1  C   UNL     1       3.143  -3.083  -2.252  0.00  0.00    +0.200 C 
ENDROOT
BRANCH   1   2
ATOM      2  C   UNL     1       2.388  -2.025  -3.015  0.00  0.00    +0.065 A 
ATOM      3  C   UNL     1       1.386  -1.300  -2.387  0.00  0.00    +0.129 A 
ATOM      4  C   UNL     1       0.690  -0.327  -3.089  0.00  0.00    +0.091 A 
ATOM      5  C   UNL     1       0.997  -0.079  -4.418  0.00  0.00    +0.124 A 
ATOM      6  C   UNL     1       1.999  -0.803  -5.045  0.00  0.00    +0.091 A 
ATOM      7  C   UNL     1       2.698  -1.773  -4.343  0.00  0.00    +0.129 A 
BRANCH   7   8
ATOM      8  O   UNL     1       3.683  -2.479  -4.956  0.00  0.00    -0.506 OA
ATOM      9  H   UNL     1       3.377  -3.289  -5.387  0.00  0.00    +0.292 HD
ENDBRANCH   7   8
BRANCH   5  10
ATOM     10  O   UNL     1       0.315   0.874  -5.106  0.00  0.00    -0.507 OA
ATOM     11  H   UNL     1       0.710   1.755  -5.055  0.00  0.00    +0.292 HD
ENDBRANCH   5  10
BRANCH   3  12
ATOM     12  O   UNL     1       1.085  -1.544  -1.084  0.00  0.00    -0.506 OA
ATOM     13  H   UNL     1       1.518  -0.943  -0.462  0.00  0.00    +0.292 HD
ENDBRANCH   3  12
ENDBRANCH   1   2
BRANCH   1  14
ATOM     14  C   UNL     1       4.092  -2.423  -1.284  0.00  0.00    +0.239 C 
ATOM     15  O   UNL     1       3.810  -2.361  -0.106  0.00  0.00    -0.273 OA
ATOM     16  N   UNL     1       5.253  -1.901  -1.728  0.00  0.00    -0.309 N 
ATOM     17  H   UNL     1       5.478  -1.951  -2.670  0.00  0.00    +0.149 HD
BRANCH  16  18
ATOM     18  C   UNL     1       6.175  -1.260  -0.787  0.00  0.00    +0.026 C 
ATOM     19  C   UNL     1       6.606  -2.273   0.275  0.00  0.00    +0.031 C 
ATOM     20  C   UNL     1       7.406  -0.757  -1.543  0.00  0.00    +0.031 C 
ATOM     21  C   UNL     1       5.474  -0.080  -0.111  0.00  0.00    +0.031 C 
ENDBRANCH  16  18
ENDBRANCH   1  14
BRANCH   1  22
ATOM     22  N   UNL     1       2.197  -3.922  -1.513  0.00  0.00    -0.278 N 
ATOM     23  C   UNL     1       1.039  -4.301  -2.090  0.00  0.00    +0.217 C 
ATOM     24  O   UNL     1       0.781  -3.947  -3.220  0.00  0.00    -0.276 OA
BRANCH  22  25
ATOM     25  C   UNL     1       2.509  -4.349  -0.147  0.00  0.00    +0.183 C 
BRANCH  25  30
ATOM     26  C   UNL     1       0.976  -0.669   2.943  0.00  0.00    +0.086 C 
ATOM     27  C   UNL     1       1.004  -1.964   2.173  0.00  0.00    +0.102 A 
ATOM     28  C   UNL     1       0.058  -2.919   2.205  0.00  0.00    +0.045 A 
ATOM     29  C   UNL     1       0.488  -3.951   1.339  0.00  0.00    +0.046 A 
ATOM     30  C   UNL     1       1.671  -3.564   0.829  0.00  0.00    +0.122 A 
ATOM     31  O   UNL     1       1.976  -2.357   1.333  0.00  0.00    -0.463 OA
ENDBRANCH  25  30
ENDBRANCH  22  25
BRANCH  23  32
ATOM     32  C   UNL     1       0.066  -5.164  -1.329  0.00  0.00    +0.096 C 
BRANCH  32  33
ATOM     33  C   UNL     1      -1.156  -5.447  -2.205  0.00  0.00    +0.013 C 
BRANCH  33  34
ATOM     34  C   UNL     1      -2.145  -6.324  -1.433  0.00  0.00    -0.011 C 
ATOM     35  C   UNL     1      -1.512  -7.691  -1.165  0.00  0.00    +0.003 C 
ATOM     36  C   UNL     1      -2.501  -8.568  -0.393  0.00  0.00    +0.000 C 
ATOM     37  C   UNL     1      -3.776  -8.748  -1.220  0.00  0.00    +0.000 C 
ATOM     38  C   UNL     1      -4.408  -7.381  -1.487  0.00  0.00    +0.000 C 
ATOM     39  C   UNL     1      -3.420  -6.504  -2.259  0.00  0.00    +0.003 C 
ENDBRANCH  33  34
ENDBRANCH  32  33
ENDBRANCH  23  32
ENDBRANCH   1  22
TORSDOF 12
