REMARK  Name = ZINC19357286
REMARK  14 active torsions:
REMARK  status: ('A' for Active; 'I' for Inactive)
REMARK    1  A    between atoms: C_1  and  C_2
REMARK    2  A    between atoms: C_2  and  C_3
REMARK    3  A    between atoms: C_3  and  C_33
REMARK    4  A    between atoms: N_6  and  N_10
REMARK    5  A    between atoms: C_11  and  C_13
REMARK    6  A    between atoms: C_13  and  O_14
REMARK    7  A    between atoms: O_14  and  C_15
REMARK    8  A    between atoms: C_15  and  C_17
REMARK    9  A    between atoms: C_17  and  C_19
REMARK   10  A    between atoms: C_17  and  N_22
REMARK   11  A    between atoms: C_19  and  C_20
REMARK   12  A    between atoms: C_19  and  C_21
REMARK   13  A    between atoms: N_22  and  S_23
REMARK   14  A    between atoms: S_23  and  C_26
REMARK                            x       y       z     vdW  Elec       q    Type
REMARK                         _______ _______ _______ _____ _____    ______ ____
ROOT
ATOM      1  C   UNL     1       2.255   0.531  -1.010  0.00  0.00    +0.327 C 
ATOM      2  O   UNL     1       1.806  -0.528  -1.379  0.00  0.00    -0.249 OA
ENDROOT
BRANCH   1   3
ATOM      3  O   UNL     1       3.530   0.850  -1.282  0.00  0.00    -0.454 OA
BRANCH   3   4
ATOM      4  C   UNL     1       4.310  -0.124  -2.024  0.00  0.00    +0.329 C 
BRANCH   4   6
ATOM      5  N   UNL     1       6.612  -0.336  -2.903  0.00  0.00    -0.221 N 
ATOM      6  C   UNL     1       5.706   0.404  -2.234  0.00  0.00    +0.267 C 
ATOM      7  O   UNL     1       6.013   1.494  -1.801  0.00  0.00    -0.271 OA
ATOM      8  H   UNL     1       6.333  -1.325  -3.296  0.00  0.00    +0.174 HD
BRANCH   5  12
ATOM      9  C   UNL     1       9.805   1.045  -4.012  0.00  0.00    +0.111 C 
ATOM     10  C   UNL     1       8.371   0.630  -4.273  0.00  0.00    +0.263 C 
ATOM     11  O   UNL     1       7.764   0.709  -5.320  0.00  0.00    -0.271 OA
ATOM     12  N   UNL     1       7.910   0.155  -3.099  0.00  0.00    -0.137 N 
ATOM     13  C   UNL     1       8.846   0.206  -2.144  0.00  0.00    +0.326 C 
ATOM     14  O   UNL     1       8.668  -0.170  -1.002  0.00  0.00    -0.251 OA
ATOM     15  N   UNL     1      10.007   0.720  -2.590  0.00  0.00    -0.284 N 
ATOM     16  C   UNL     1       9.988   2.545  -4.252  0.00  0.00    +0.041 C 
ATOM     17  H   UNL     1      10.979   0.914  -2.114  0.00  0.00    +0.151 HD
BRANCH   9  19
ATOM     18  C   UNL     1      12.206   0.506  -4.447  0.00  0.00    +0.006 C 
ATOM     19  C   UNL     1      10.766   0.240  -4.890  0.00  0.00    +0.032 C 
ENDBRANCH   9  19
ENDBRANCH   5  12
ENDBRANCH   4   6
ENDBRANCH   3   4
ENDBRANCH   1   3
BRANCH   1  20
ATOM     20  C   UNL     1       1.385   1.493  -0.243  0.00  0.00    +0.187 C 
BRANCH  20  21
ATOM     21  C   UNL     1       2.002   1.755   1.132  0.00  0.00    +0.012 C 
ATOM     22  C   UNL     1       2.202   0.425   1.863  0.00  0.00    +0.009 C 
ATOM     23  C   UNL     1       3.354   2.451   0.960  0.00  0.00    +0.009 C 
ENDBRANCH  20  21
BRANCH  20  24
ATOM     24  N   UNL     1       0.048   0.916  -0.077  0.00  0.00    -0.176 NA
ATOM     25  H   UNL     1      -0.083  -0.176  -0.072  0.00  0.00    +0.149 HD
BRANCH  24  26
ATOM     26  S   UNL     1      -1.288   1.891  -0.144  0.00  0.00    +0.059 S 
ATOM     27  O   UNL     1      -2.419   1.039  -0.018  0.00  0.00    -0.153 OA
ATOM     28  O   UNL     1      -1.047   2.973   0.746  0.00  0.00    -0.153 OA
BRANCH  26  29
ATOM     29  C   UNL     1      -1.352   2.577  -1.766  0.00  0.00    +0.107 A 
ATOM     30  C   UNL     1      -2.037   1.917  -2.769  0.00  0.00    +0.028 A 
ATOM     31  C   UNL     1      -2.088   2.454  -4.041  0.00  0.00    +0.003 A 
ATOM     32  C   UNL     1      -1.454   3.653  -4.311  0.00  0.00    +0.020 A 
ATOM     33  C   UNL     1      -0.769   4.314  -3.308  0.00  0.00    +0.043 A 
ATOM     34  C   UNL     1      -0.723   3.778  -2.033  0.00  0.00    +0.048 A 
ATOM     35 CL   UNL     1       0.026   5.820  -3.646  0.00  0.00    -0.083 Cl
ENDBRANCH  26  29
ENDBRANCH  24  26
ENDBRANCH  20  24
ENDBRANCH   1  20
TORSDOF 10
