REMARK  Name = ZINC66537860
REMARK  6 active torsions:
REMARK  status: ('A' for Active; 'I' for Inactive)
REMARK    1  A    between atoms: C_1  and  C_2
REMARK    2  A    between atoms: C_2  and  N_3
REMARK    3  A    between atoms: N_6  and  C_7
REMARK    4  A    between atoms: C_10  and  O_13
REMARK    5  A    between atoms: O_13  and  C_14
REMARK    6  A    between atoms: C_14  and  C_16
REMARK                            x       y       z     vdW  Elec       q    Type
REMARK                         _______ _______ _______ _____ _____    ______ ____
ROOT
ATOM      1  C   UNL     1       1.609  -3.670  -2.775  0.00  0.00    +0.075 C 
ATOM      2  C   UNL     1       2.852  -4.182  -2.045  0.00  0.00    +0.026 C 
ATOM      3  C   UNL     1       4.088  -3.445  -2.564  0.00  0.00    +0.046 C 
ATOM      4  C   UNL     1       4.239  -3.697  -4.066  0.00  0.00    +0.177 C 
ATOM      5  C   UNL     1       2.995  -3.186  -4.796  0.00  0.00    +0.046 C 
ATOM      6  C   UNL     1       1.759  -3.923  -4.276  0.00  0.00    +0.026 C 
ENDROOT
BRANCH   1  10
ATOM      7  N   UNL     1       0.688  -0.476  -1.203  0.00  0.00    -0.300 N 
ATOM      8  C   UNL     1       0.827  -1.799  -1.425  0.00  0.00    +0.300 C 
ATOM      9  O   UNL     1       0.383  -2.599  -0.625  0.00  0.00    -0.253 OA
ATOM     10  N   UNL     1       1.458  -2.233  -2.534  0.00  0.00    -0.297 N 
ATOM     11  H   UNL     1       1.042   0.162  -1.842  0.00  0.00    +0.150 HD
ATOM     12  H   UNL     1       1.812  -1.595  -3.172  0.00  0.00    +0.151 HD
BRANCH   7  14
ATOM     13  C   UNL     1      -0.019   1.526   0.010  0.00  0.00    +0.024 C 
ATOM     14  C   UNL     1       0.002  -0.004   0.002  0.00  0.00    +0.102 C 
ENDBRANCH   7  14
ENDBRANCH   1  10
BRANCH   4  15
ATOM     15  O   UNL     1       5.393  -3.009  -4.551  0.00  0.00    -0.459 OA
BRANCH  15  16
ATOM     16  C   UNL     1       6.033  -3.554  -5.597  0.00  0.00    +0.349 C 
ATOM     17  O   UNL     1       5.627  -4.582  -6.085  0.00  0.00    -0.247 OA
BRANCH  16  18
ATOM     18  C   UNL     1       7.259  -2.885  -6.164  0.00  0.00    +0.289 C 
ATOM     19  C   UNL     1       6.871  -1.530  -6.758  0.00  0.00    +0.092 C 
ATOM     20  C   UNL     1       8.023  -0.954  -7.537  0.00  0.00    -0.029 A 
ATOM     21  C   UNL     1       8.079   0.402  -7.791  0.00  0.00    +0.004 A 
ATOM     22  C   UNL     1       9.137   0.930  -8.509  0.00  0.00    +0.000 A 
ATOM     23  C   UNL     1      10.146   0.108  -8.979  0.00  0.00    +0.001 A 
ATOM     24  C   UNL     1      10.104  -1.249  -8.733  0.00  0.00    +0.015 A 
ATOM     25  C   UNL     1       9.041  -1.785  -8.009  0.00  0.00    +0.062 A 
ATOM     26  C   UNL     1       8.978  -3.237  -7.725  0.00  0.00    +0.340 C 
ATOM     27  O   UNL     1       9.917  -3.971  -7.960  0.00  0.00    -0.245 OA
ATOM     28  O   UNL     1       7.824  -3.712  -7.189  0.00  0.00    -0.446 OA
ENDBRANCH  16  18
ENDBRANCH  15  16
ENDBRANCH   4  15
TORSDOF 5
