REMARK  Name = ZINC37509624
REMARK  6 active torsions:
REMARK  status: ('A' for Active; 'I' for Inactive)
REMARK    1  A    between atoms: C_1  and  C_2
REMARK    2  A    between atoms: C_5  and  N_9
REMARK    3  A    between atoms: C_6  and  C_8
REMARK    4  A    between atoms: N_9  and  C_10
REMARK    5  A    between atoms: C_10  and  C_11
REMARK    6  A    between atoms: C_12  and  C_19
REMARK                            x       y       z     vdW  Elec       q    Type
REMARK                         _______ _______ _______ _____ _____    ______ ____
ROOT
ATOM      1  N   UNL     1       0.058  -4.167  -0.021  0.00  0.00    -0.338 N 
ATOM      2  H   UNL     1       0.069  -4.657   0.816  0.00  0.00    +0.146 HD
ENDROOT
BRANCH   1   7
ATOM      3  C   UNL     1      -0.018   1.503   0.010  0.00  0.00    +0.044 C 
ATOM      4  C   UNL     1       0.002  -0.004   0.002  0.00  0.00    -0.050 A 
ATOM      5  C   UNL     1       0.006  -0.687  -1.200  0.00  0.00    +0.005 A 
ATOM      6  C   UNL     1       0.024  -2.068  -1.212  0.00  0.00    +0.023 A 
ATOM      7  C   UNL     1       0.040  -2.771  -0.013  0.00  0.00    +0.030 A 
ATOM      8  C   UNL     1       0.036  -2.081   1.192  0.00  0.00    -0.029 A 
ATOM      9  C   UNL     1       0.023  -0.700   1.196  0.00  0.00    +0.008 A 
ATOM     10  C   UNL     1       0.052  -2.839   2.495  0.00  0.00    +0.045 C 
ENDBRANCH   1   7
BRANCH   1  11
ATOM     11  C   UNL     1       0.061  -4.893  -1.294  0.00  0.00    +0.157 C 
BRANCH  11  12
ATOM     12  C   UNL     1       0.082  -6.376  -1.026  0.00  0.00    +0.063 A 
ATOM     13  C   UNL     1       1.178  -7.140  -0.885  0.00  0.00    +0.062 A 
ATOM     14  N   UNL     1       0.787  -8.404  -0.659  0.00  0.00    -0.226 NA
ATOM     15  C   UNL     1      -0.514  -8.448  -0.655  0.00  0.00    +0.178 A 
ATOM     16  N   UNL     1      -1.030  -7.199  -0.875  0.00  0.00    -0.296 N 
ATOM     17  C   UNL     1      -2.404  -7.085  -0.893  0.00  0.00    +0.100 A 
ATOM     18  C   UNL     1      -3.179  -8.151  -0.699  0.00  0.00    +0.067 A 
ATOM     19  S   UNL     1      -1.972  -9.450  -0.479  0.00  0.00    -0.058 S 
ATOM     20  C   UNL     1       2.604  -6.660  -0.968  0.00  0.00    +0.067 C 
ENDBRANCH  11  12
ENDBRANCH   1  11
TORSDOF 3
