REMARK  Name = ZINC30956248
REMARK  10 active torsions:
REMARK  status: ('A' for Active; 'I' for Inactive)
REMARK    1  A    between atoms: C_1  and  C_2
REMARK    2  A    between atoms: C_2  and  C_3
REMARK    3  A    between atoms: C_2  and  C_4
REMARK    4  A    between atoms: C_4  and  C_6
REMARK    5  A    between atoms: C_4  and  N_26
REMARK    6  A    between atoms: N_8  and  N_9
REMARK    7  A    between atoms: C_10  and  C_11
REMARK    8  A    between atoms: C_14  and  N_20
REMARK    9  A    between atoms: C_15  and  N_17
REMARK   10  A    between atoms: C_27  and  C_29
REMARK                            x       y       z     vdW  Elec       q    Type
REMARK                         _______ _______ _______ _____ _____    ______ ____
ROOT
ATOM      1  C   UNL     1      -3.140   8.799   4.852  0.00  0.00    +0.253 C 
ATOM      2  O   UNL     1      -3.109   8.808   6.065  0.00  0.00    -0.272 OA
ATOM      3  N   UNL     1      -3.986   7.973   4.205  0.00  0.00    -0.205 N 
ATOM      4  H   UNL     1      -3.946   7.893   3.109  0.00  0.00    +0.177 HD
ENDROOT
BRANCH   3   5
ATOM      5  N   UNL     1      -4.918   7.218   4.930  0.00  0.00    -0.188 NA
ATOM      6  C   UNL     1      -5.681   6.366   4.315  0.00  0.00    +0.138 C 
BRANCH   6   7
ATOM      7  C   UNL     1      -5.295   5.853   2.989  0.00  0.00    -0.003 A 
ATOM      8  C   UNL     1      -3.949   5.832   2.610  0.00  0.00    +0.011 A 
ATOM      9  C   UNL     1      -3.591   5.348   1.372  0.00  0.00    +0.026 A 
ATOM     10  C   UNL     1      -4.568   4.888   0.494  0.00  0.00    +0.060 A 
ATOM     11  C   UNL     1      -5.907   4.907   0.867  0.00  0.00    +0.148 A 
ATOM     12  C   UNL     1      -6.272   5.386   2.106  0.00  0.00    +0.044 A 
BRANCH  10  13
ATOM     13  N   UNL     1      -4.202   4.402  -0.761  0.00  0.00    -0.324 N 
ATOM     14  C   UNL     1      -3.472   5.422  -1.528  0.00  0.00    +0.133 C 
ATOM     15  C   UNL     1      -3.142   4.869  -2.917  0.00  0.00    +0.178 C 
ATOM     16  O   UNL     1      -2.395   3.657  -2.778  0.00  0.00    -0.377 OA
ATOM     17  C   UNL     1      -3.078   2.642  -2.036  0.00  0.00    +0.178 C 
ATOM     18  C   UNL     1      -3.406   3.172  -0.638  0.00  0.00    +0.133 C 
ENDBRANCH  10  13
BRANCH  11  19
ATOM     19  N   UNL     1      -6.942   4.412  -0.068  0.00  0.00    +0.058 N 
ATOM     20  O   UNL     1      -8.122   4.518   0.217  0.00  0.00    -0.126 OA
ATOM     21  O   UNL     1      -6.615   3.899  -1.123  0.00  0.00    -0.126 OA
ENDBRANCH  11  19
ENDBRANCH   6   7
ENDBRANCH   3   5
BRANCH   1  22
ATOM     22  C   UNL     1      -2.232   9.712   4.068  0.00  0.00    +0.163 C 
BRANCH  22  23
ATOM     23  N   UNL     1      -2.194  11.029   4.708  0.00  0.00    -0.300 N 
ATOM     24  C   UNL     1      -1.893  12.123   3.980  0.00  0.00    +0.246 C 
ATOM     25  O   UNL     1      -1.653  12.016   2.793  0.00  0.00    -0.270 OA
ATOM     26  H   UNL     1      -2.410  11.126   5.782  0.00  0.00    +0.150 HD
BRANCH  24  27
ATOM     27  C   UNL     1      -1.854  13.451   4.625  0.00  0.00    +0.055 A 
ATOM     28  C   UNL     1      -2.128  13.577   5.989  0.00  0.00    +0.016 A 
ATOM     29  C   UNL     1      -2.091  14.819   6.585  0.00  0.00    +0.021 A 
ATOM     30  C   UNL     1      -1.781  15.943   5.835  0.00  0.00    +0.042 A 
ATOM     31  C   UNL     1      -1.508  15.826   4.483  0.00  0.00    +0.040 A 
ATOM     32  C   UNL     1      -1.536  14.587   3.875  0.00  0.00    +0.054 A 
ATOM     33 CL   UNL     1      -1.186  14.440   2.181  0.00  0.00    -0.083 Cl
ATOM     34 CL   UNL     1      -1.736  17.503   6.594  0.00  0.00    -0.083 Cl
ENDBRANCH  24  27
ENDBRANCH  22  23
BRANCH  22  36
ATOM     35  C   UNL     1      -0.351   8.839   5.462  0.00  0.00    +0.009 C 
ATOM     36  C   UNL     1      -0.822   9.120   4.033  0.00  0.00    +0.012 C 
ATOM     37  C   UNL     1      -0.835   7.815   3.235  0.00  0.00    +0.009 C 
ENDBRANCH  22  36
ENDBRANCH   1  22
TORSDOF 8
