REMARK  Name = ZINC67392788
REMARK  11 active torsions:
REMARK  status: ('A' for Active; 'I' for Inactive)
REMARK    1  A    between atoms: C_1  and  C_2
REMARK    2  A    between atoms: C_3  and  C_26
REMARK    3  A    between atoms: C_7  and  N_8
REMARK    4  A    between atoms: C_9  and  C_11
REMARK    5  A    between atoms: N_13  and  C_14
REMARK    6  A    between atoms: C_14  and  C_15
REMARK    7  A    between atoms: C_15  and  C_16
REMARK    8  A    between atoms: C_15  and  C_17
REMARK    9  A    between atoms: C_15  and  N_18
REMARK   10  A    between atoms: C_22  and  C_25
REMARK   11  A    between atoms: N_28  and  C_29
REMARK                            x       y       z     vdW  Elec       q    Type
REMARK                         _______ _______ _______ _____ _____    ______ ____
ROOT
ATOM      1  N   UNL     1       1.519   0.255   2.397  0.00  0.00    -0.277 N 
ATOM      2  C   UNL     1       1.557  -0.593   3.443  0.00  0.00    +0.303 C 
ATOM      3  O   UNL     1       1.602  -1.791   3.253  0.00  0.00    -0.265 OA
ATOM      4  H   UNL     1       1.411   1.207   2.548  0.00  0.00    +0.155 HD
ENDROOT
BRANCH   1  11
ATOM      5  C   UNL     1       0.461   1.822   0.273  0.00  0.00    +0.046 C 
ATOM      6  C   UNL     1       1.132   0.495   0.029  0.00  0.00    -0.017 A 
ATOM      7  C   UNL     1       1.256   0.002  -1.270  0.00  0.00    +0.041 A 
ATOM      8  C   UNL     1       1.880  -1.227  -1.488  0.00  0.00    +0.013 A 
ATOM      9  C   UNL     1       2.372  -1.951  -0.421  0.00  0.00    +0.003 A 
ATOM     10  C   UNL     1       2.249  -1.463   0.866  0.00  0.00    +0.023 A 
ATOM     11  C   UNL     1       1.635  -0.237   1.094  0.00  0.00    +0.037 A 
BRANCH   7  12
ATOM     12  C   UNL     1       0.727   0.779  -2.412  0.00  0.00    +0.244 C 
ATOM     13  O   UNL     1       0.292   1.900  -2.235  0.00  0.00    -0.270 OA
ATOM     14  N   UNL     1       0.728   0.244  -3.649  0.00  0.00    -0.314 N 
ATOM     15  C   UNL     1       0.204   1.014  -4.780  0.00  0.00    +0.128 C 
ATOM     16  H   UNL     1       1.076  -0.650  -3.790  0.00  0.00    +0.149 HD
ENDBRANCH   7  12
ENDBRANCH   1  11
BRANCH   2  17
ATOM     17  C   UNL     1       1.545  -0.059   4.838  0.00  0.00    +0.299 C 
ATOM     18  O   UNL     1       1.500   1.139   5.029  0.00  0.00    -0.265 OA
ATOM     19  N   UNL     1       1.583  -0.907   5.885  0.00  0.00    -0.309 N 
ATOM     20  H   UNL     1       1.619  -1.864   5.732  0.00  0.00    +0.149 HD
BRANCH  19  21
ATOM     21  C   UNL     1       1.571  -0.383   7.253  0.00  0.00    +0.092 C 
BRANCH  21  22
ATOM     22  C   UNL     1       1.742  -1.537   8.243  0.00  0.00    -0.055 C 
ATOM     23  C   UNL     1       3.094  -2.215   8.007  0.00  0.00    -0.008 C 
ATOM     24  C   UNL     1       1.687  -0.996   9.672  0.00  0.00    -0.008 C 
BRANCH  22  25
ATOM     25  N   UNL     1       0.663  -2.515   8.046  0.00  0.00    +0.384 N 
ATOM     26  C   UNL     1      -0.634  -1.845   8.196  0.00  0.00    -0.078 C 
ATOM     27  C   UNL     1      -1.762  -2.840   7.913  0.00  0.00    -0.018 C 
ATOM     28  C   UNL     1      -1.669  -4.004   8.904  0.00  0.00    -0.001 C 
ATOM     29  C   UNL     1      -0.284  -4.648   8.792  0.00  0.00    -0.031 C 
ATOM     30  C   UNL     1       0.788  -3.586   9.042  0.00  0.00    -0.075 C 
ATOM     31  C   UNL     1      -0.153  -5.763   9.832  0.00  0.00    +0.005 C 
ATOM     32  H   UNL     1       0.732  -2.908   7.120  0.00  0.00    -0.081 HD
ENDBRANCH  22  25
ENDBRANCH  21  22
ENDBRANCH  19  21
ENDBRANCH   2  17
TORSDOF 6
