REMARK  Name = ZINC07258093
REMARK  11 active torsions:
REMARK  status: ('A' for Active; 'I' for Inactive)
REMARK    1  A    between atoms: C_1  and  C_2
REMARK    2  A    between atoms: C_2  and  C_3
REMARK    3  A    between atoms: C_7  and  C_28
REMARK    4  A    between atoms: C_8  and  N_9
REMARK    5  A    between atoms: N_9  and  C_10
REMARK    6  A    between atoms: C_10  and  N_12
REMARK    7  A    between atoms: N_12  and  N_13
REMARK    8  A    between atoms: C_14  and  C_16
REMARK    9  A    between atoms: C_16  and  N_24
REMARK   10  A    between atoms: C_17  and  C_18
REMARK   11  A    between atoms: C_25  and  C_27
REMARK                            x       y       z     vdW  Elec       q    Type
REMARK                         _______ _______ _______ _____ _____    ______ ____
ROOT
ATOM      1  N   UNL     1       6.413   2.561   0.383  0.00  0.00    -0.230 N 
ATOM      2  C   UNL     1       7.592   3.104   0.022  0.00  0.00    +0.274 C 
ATOM      3  O   UNL     1       8.397   2.447  -0.610  0.00  0.00    -0.267 OA
ATOM      4  H   UNL     1       5.741   3.107   0.821  0.00  0.00    +0.173 HD
ENDROOT
BRANCH   1   5
ATOM      5  N   UNL     1       6.158   1.207   0.127  0.00  0.00    -0.245 N 
ATOM      6  H   UNL     1       6.856   0.644  -0.242  0.00  0.00    +0.172 HD
BRANCH   5   7
ATOM      7  C   UNL     1       4.942   0.689   0.392  0.00  0.00    +0.151 C 
ATOM      8  S   UNL     1       4.599  -0.939  -0.013  0.00  0.00    -0.017 S 
BRANCH   7   9
ATOM      9  N   UNL     1       3.997   1.451   0.977  0.00  0.00    -0.295 N 
ATOM     10  H   UNL     1       4.160   2.396   1.124  0.00  0.00    +0.154 HD
BRANCH   9  16
ATOM     11  C   UNL     1       1.605   1.238   0.727  0.00  0.00    -0.026 A 
ATOM     12  C   UNL     1       0.407   0.672   1.118  0.00  0.00    +0.005 A 
ATOM     13  C   UNL     1       0.380  -0.249   2.149  0.00  0.00    +0.001 A 
ATOM     14  C   UNL     1       1.551  -0.606   2.793  0.00  0.00    +0.005 A 
ATOM     15  C   UNL     1       2.752  -0.045   2.406  0.00  0.00    -0.029 A 
ATOM     16  C   UNL     1       2.783   0.880   1.370  0.00  0.00    +0.039 A 
ATOM     17  C   UNL     1       4.027  -0.434   3.108  0.00  0.00    +0.045 C 
BRANCH  11  19
ATOM     18  C   UNL     1       1.962   1.526  -1.710  0.00  0.00    +0.009 C 
ATOM     19  C   UNL     1       1.634   2.240  -0.397  0.00  0.00    +0.033 C 
ENDBRANCH  11  19
ENDBRANCH   9  16
ENDBRANCH   7   9
ENDBRANCH   5   7
ENDBRANCH   1   5
BRANCH   2  20
ATOM     20  C   UNL     1       7.906   4.492   0.392  0.00  0.00    +0.098 C 
ATOM     21  C   UNL     1       9.047   5.069  -0.050  0.00  0.00    +0.036 C 
BRANCH  21  22
ATOM     22  C   UNL     1       9.425   6.409   0.424  0.00  0.00    -0.023 A 
ATOM     23  C   UNL     1      10.261   7.219  -0.352  0.00  0.00    +0.008 A 
ATOM     24  C   UNL     1      10.605   8.477   0.095  0.00  0.00    +0.001 A 
ATOM     25  C   UNL     1      10.137   8.933   1.315  0.00  0.00    +0.000 A 
ATOM     26  C   UNL     1       9.316   8.135   2.092  0.00  0.00    +0.001 A 
ATOM     27  C   UNL     1       8.957   6.878   1.655  0.00  0.00    +0.008 A 
ENDBRANCH  21  22
BRANCH  20  28
ATOM     28  N   UNL     1       7.024   5.217   1.200  0.00  0.00    -0.282 N 
ATOM     29  C   UNL     1       6.673   4.741   2.410  0.00  0.00    +0.214 C 
ATOM     30  O   UNL     1       7.198   3.736   2.842  0.00  0.00    -0.276 OA
ATOM     31  C   UNL     1       5.628   5.456   3.228  0.00  0.00    +0.109 C 
ATOM     32  H   UNL     1       6.665   6.063   0.888  0.00  0.00    +0.155 HD
ENDBRANCH  20  28
ENDBRANCH   2  20
TORSDOF 8
