REMARK  Name = ZINC42173336
REMARK  9 active torsions:
REMARK  status: ('A' for Active; 'I' for Inactive)
REMARK    1  A    between atoms: C_1  and  C_2
REMARK    2  A    between atoms: C_2  and  C_3
REMARK    3  A    between atoms: C_2  and  C_4
REMARK    4  A    between atoms: C_2  and  C_5
REMARK    5  A    between atoms: C_5  and  C_6
REMARK    6  A    between atoms: C_11  and  O_18
REMARK    7  A    between atoms: C_12  and  O_16
REMARK    8  A    between atoms: O_16  and  C_17
REMARK    9  A    between atoms: O_18  and  C_19
REMARK                            x       y       z     vdW  Elec       q    Type
REMARK                         _______ _______ _______ _____ _____    ______ ____
ROOT
ATOM      1  C   UNL     1       2.132   0.024  -1.268  0.00  0.00    +0.109 A 
ATOM      2  N   UNL     1       3.247  -0.748  -1.385  0.00  0.00    -0.342 N 
ATOM      3  H   UNL     1       3.271  -1.713  -1.475  0.00  0.00    +0.167 HD
ATOM      4  C   UNL     1       4.338   0.100  -1.353  0.00  0.00    +0.070 A 
ATOM      5  C   UNL     1       5.711  -0.093  -1.427  0.00  0.00    +0.077 A 
ATOM      6  C   UNL     1       6.564   0.992  -1.363  0.00  0.00    +0.164 A 
ATOM      7  C   UNL     1       6.050   2.284  -1.223  0.00  0.00    +0.164 A 
ATOM      8  C   UNL     1       4.689   2.488  -1.148  0.00  0.00    +0.079 A 
ATOM      9  C   UNL     1       3.817   1.397  -1.212  0.00  0.00    +0.093 A 
ATOM     10  N   UNL     1       2.465   1.278  -1.171  0.00  0.00    -0.232 NA
ENDROOT
BRANCH   7  11
ATOM     11  O   UNL     1       6.899   3.345  -1.160  0.00  0.00    -0.491 OA
ATOM     12  C   UNL     1       6.309   4.639  -1.017  0.00  0.00    +0.277 C 
ENDBRANCH   7  11
BRANCH   6  13
ATOM     13  O   UNL     1       7.908   0.802  -1.436  0.00  0.00    -0.491 OA
ATOM     14  C   UNL     1       8.367  -0.544  -1.578  0.00  0.00    +0.277 C 
ENDBRANCH   6  13
BRANCH   1  15
ATOM     15  C   UNL     1       0.718  -0.497  -1.257  0.00  0.00    +0.080 C 
BRANCH  15  17
ATOM     16  C   UNL     1      -0.019   1.526   0.010  0.00  0.00    +0.011 C 
ATOM     17  C   UNL     1       0.002  -0.004   0.002  0.00  0.00    -0.031 C 
ATOM     18  C   UNL     1       0.742  -0.511   1.242  0.00  0.00    +0.011 C 
ATOM     19  C   UNL     1      -1.433  -0.534   0.013  0.00  0.00    +0.011 C 
ENDBRANCH  15  17
ENDBRANCH   1  15
TORSDOF 4
