REMARK  Name = ZINC65722566
REMARK  10 active torsions:
REMARK  status: ('A' for Active; 'I' for Inactive)
REMARK    1  A    between atoms: C_1  and  C_2
REMARK    2  A    between atoms: C_5  and  C_9
REMARK    3  A    between atoms: C_6  and  C_8
REMARK    4  A    between atoms: C_9  and  C_10
REMARK    5  A    between atoms: C_10  and  N_11
REMARK    6  A    between atoms: C_12  and  C_14
REMARK    7  A    between atoms: N_16  and  C_17
REMARK    8  A    between atoms: C_20  and  N_23
REMARK    9  A    between atoms: C_24  and  O_26
REMARK   10  A    between atoms: O_26  and  C_27
REMARK                            x       y       z     vdW  Elec       q    Type
REMARK                         _______ _______ _______ _____ _____    ______ ____
ROOT
ATOM      1  C   UNL     1      -2.454  -8.456   0.172  0.00  0.00    +0.303 C 
ATOM      2  O   UNL     1      -1.404  -9.054   0.058  0.00  0.00    -0.265 OA
ATOM      3  N   UNL     1      -3.610  -9.140   0.287  0.00  0.00    -0.278 N 
ATOM      4  H   UNL     1      -4.441  -8.665   0.445  0.00  0.00    +0.155 HD
ENDROOT
BRANCH   3   5
ATOM      5  C   UNL     1      -3.611 -10.534   0.178  0.00  0.00    +0.034 A 
ATOM      6  C   UNL     1      -4.683 -11.183  -0.423  0.00  0.00    +0.025 A 
ATOM      7  C   UNL     1      -4.684 -12.559  -0.531  0.00  0.00    +0.025 A 
ATOM      8  C   UNL     1      -3.614 -13.295  -0.038  0.00  0.00    +0.037 A 
ATOM      9  C   UNL     1      -2.542 -12.647   0.563  0.00  0.00    +0.025 A 
ATOM     10  C   UNL     1      -2.538 -11.270   0.666  0.00  0.00    +0.025 A 
BRANCH   8  11
ATOM     11  N   UNL     1      -3.615 -14.692  -0.146  0.00  0.00    -0.251 N 
ATOM     12  C   UNL     1      -3.072 -15.444   0.831  0.00  0.00    +0.404 C 
ATOM     13  O   UNL     1      -2.507 -14.911   1.765  0.00  0.00    -0.226 OA
ATOM     14  H   UNL     1      -4.007 -15.117  -0.925  0.00  0.00    +0.158 HD
BRANCH  12  15
ATOM     15  O   UNL     1      -3.155 -16.787   0.772  0.00  0.00    -0.453 OA
ATOM     16  C   UNL     1      -2.557 -17.521   1.842  0.00  0.00    +0.282 C 
ENDBRANCH  12  15
ENDBRANCH   8  11
ENDBRANCH   3   5
BRANCH   1  18
ATOM     17  N   UNL     1      -1.310  -6.279   0.070  0.00  0.00    -0.307 N 
ATOM     18  C   UNL     1      -2.466  -6.963   0.185  0.00  0.00    +0.299 C 
ATOM     19  O   UNL     1      -3.516  -6.365   0.299  0.00  0.00    -0.265 OA
ATOM     20  H   UNL     1      -0.471  -6.757  -0.021  0.00  0.00    +0.149 HD
BRANCH  17  21
ATOM     21  C   UNL     1      -1.321  -4.814   0.083  0.00  0.00    +0.109 C 
BRANCH  21  22
ATOM     22  C   UNL     1       0.110  -4.292  -0.062  0.00  0.00    +0.054 C 
BRANCH  22  27
ATOM     23  C   UNL     1       0.062   1.486  -0.012  0.00  0.00    +0.044 C 
ATOM     24  C   UNL     1       0.075  -0.021  -0.025  0.00  0.00    -0.050 A 
ATOM     25  C   UNL     1       0.062  -0.702  -1.228  0.00  0.00    +0.003 A 
ATOM     26  C   UNL     1       0.073  -2.084  -1.240  0.00  0.00    +0.004 A 
ATOM     27  C   UNL     1       0.098  -2.785  -0.049  0.00  0.00    -0.043 A 
ATOM     28  C   UNL     1       0.112  -2.104   1.154  0.00  0.00    -0.047 A 
ATOM     29  C   UNL     1       0.105  -0.722   1.166  0.00  0.00    +0.007 A 
ATOM     30  C   UNL     1       0.139  -2.869   2.452  0.00  0.00    +0.044 C 
ENDBRANCH  22  27
ENDBRANCH  21  22
ENDBRANCH  17  21
ENDBRANCH   1  18
TORSDOF 7
