REMARK  Name = ZINC15052603
REMARK  4 active torsions:
REMARK  status: ('A' for Active; 'I' for Inactive)
REMARK    1  A    between atoms: C_3  and  O_25
REMARK    2  A    between atoms: C_4  and  C_8
REMARK    3  A    between atoms: N_12  and  C_16
REMARK    4  A    between atoms: C_16  and  C_17
REMARK                            x       y       z     vdW  Elec       q    Type
REMARK                         _______ _______ _______ _____ _____    ______ ____
ROOT
ATOM      1  C   UNL     1      -1.065  -0.843   0.007  0.00  0.00    +0.040 C 
ATOM      2  C   UNL     1      -0.002  -0.021   0.197  0.00  0.00    +0.098 C 
ATOM      3  C   UNL     1      -0.028   1.421   0.488  0.00  0.00    +0.269 C 
ATOM      4  O   UNL     1      -1.014   2.125   0.605  0.00  0.00    -0.268 OA
ATOM      5  N   UNL     1       1.260   1.806   0.595  0.00  0.00    -0.212 N 
ATOM      6  C   UNL     1       2.068   0.753   0.399  0.00  0.00    +0.314 C 
ATOM      7  O   UNL     1       3.282   0.801   0.436  0.00  0.00    -0.252 OA
ATOM      8  N   UNL     1       1.357  -0.363   0.158  0.00  0.00    -0.265 N 
ATOM      9  H   UNL     1       1.720  -1.246  -0.013  0.00  0.00    +0.157 HD
ENDROOT
BRANCH   1  13
ATOM     10  C   UNL     1      -0.472  -5.030  -0.341  0.00  0.00    +0.019 A 
ATOM     11  C   UNL     1      -1.581  -4.446  -0.925  0.00  0.00    +0.047 A 
ATOM     12  C   UNL     1      -1.784  -3.080  -0.818  0.00  0.00    +0.124 A 
ATOM     13  C   UNL     1      -0.860  -2.292  -0.113  0.00  0.00    +0.019 A 
ATOM     14  C   UNL     1       0.261  -2.895   0.468  0.00  0.00    +0.027 A 
ATOM     15  C   UNL     1       0.444  -4.257   0.355  0.00  0.00    +0.019 A 
ATOM     16 BR   UNL     1       1.955  -5.073   1.147  0.00  0.00    -0.050 Br
BRANCH  12  17
ATOM     17  O   UNL     1      -2.872  -2.506  -1.392  0.00  0.00    -0.506 OA
ATOM     18  H   UNL     1      -2.728  -2.213  -2.302  0.00  0.00    +0.292 HD
ENDBRANCH  12  17
ENDBRANCH   1  13
BRANCH   5  19
ATOM     19  C   UNL     1       1.709   3.171   0.880  0.00  0.00    +0.214 C 
BRANCH  19  20
ATOM     20  C   UNL     1       1.833   3.358   2.370  0.00  0.00    +0.237 C 
ATOM     21  O   UNL     1       1.571   2.441   3.120  0.00  0.00    -0.274 OA
ATOM     22  N   UNL     1       2.234   4.543   2.870  0.00  0.00    -0.263 N 
ATOM     23  C   UNL     1       2.348   4.716   4.245  0.00  0.00    +0.164 A 
ATOM     24  N   UNL     1       2.106   3.851   5.211  0.00  0.00    -0.233 NA
ATOM     25  C   UNL     1       2.271   4.179   6.477  0.00  0.00    +0.120 A 
ATOM     26  C   UNL     1       2.686   5.435   6.771  0.00  0.00    +0.068 A 
ATOM     27  S   UNL     1       2.838   6.127   5.130  0.00  0.00    -0.061 S 
ATOM     28  H   UNL     1       2.443   5.276   2.270  0.00  0.00    +0.157 HD
ENDBRANCH  19  20
ENDBRANCH   5  19
TORSDOF 4
