REMARK  Name = ZINC38786371
REMARK  11 active torsions:
REMARK  status: ('A' for Active; 'I' for Inactive)
REMARK    1  A    between atoms: C_1  and  C_2
REMARK    2  A    between atoms: C_2  and  S_3
REMARK    3  A    between atoms: S_3  and  C_4
REMARK    4  A    between atoms: C_10  and  C_12
REMARK    5  A    between atoms: C_12  and  S_13
REMARK    6  A    between atoms: S_13  and  C_14
REMARK    7  A    between atoms: N_17  and  C_21
REMARK    8  A    between atoms: C_21  and  C_22
REMARK    9  A    between atoms: C_22  and  N_23
REMARK   10  A    between atoms: N_23  and  C_24
REMARK   11  A    between atoms: N_23  and  C_25
REMARK                            x       y       z     vdW  Elec       q    Type
REMARK                         _______ _______ _______ _____ _____    ______ ____
ROOT
ATOM      1  C   UNL     1       0.198 -11.351  -0.140  0.00  0.00    +0.108 A 
ATOM      2  C   UNL     1      -0.278 -12.382   0.700  0.00  0.00    +0.004 A 
ATOM      3  C   UNL     1      -0.060 -13.668   0.345  0.00  0.00    +0.029 A 
ATOM      4  N   UNL     1       0.613 -13.934  -0.813  0.00  0.00    -0.298 N 
ATOM      5  C   UNL     1       1.054 -12.930  -1.591  0.00  0.00    +0.350 A 
ATOM      6  O   UNL     1       1.654 -13.189  -2.622  0.00  0.00    -0.244 OA
ATOM      7  N   UNL     1       0.842 -11.658  -1.259  0.00  0.00    -0.186 NA
ATOM      8  C   UNL     1      -0.649 -14.602   1.379  0.00  0.00    +0.054 C 
ATOM      9  C   UNL     1      -0.879 -13.724   2.628  0.00  0.00    +0.011 C 
ATOM     10  C   UNL     1      -1.035 -12.319   2.007  0.00  0.00    +0.040 C 
ENDROOT
BRANCH   1  11
ATOM     11  S   UNL     1      -0.068  -9.663   0.292  0.00  0.00    -0.096 S 
BRANCH  11  12
ATOM     12  C   UNL     1       0.699  -8.736  -1.065  0.00  0.00    +0.172 C 
BRANCH  12  19
ATOM     13  C   UNL     1       0.792  -2.345  -1.354  0.00  0.00    +0.160 A 
ATOM     14  N   UNL     1       0.261  -3.108  -0.410  0.00  0.00    -0.133 NA
ATOM     15  N   UNL     1       0.307  -4.368  -0.467  0.00  0.00    -0.125 NA
ATOM     16  C   UNL     1       0.889  -5.003  -1.471  0.00  0.00    +0.189 A 
ATOM     17  S   UNL     1       1.427  -3.607  -2.454  0.00  0.00    -0.024 S 
ATOM     18  N   UNL     1       1.036  -6.369  -1.700  0.00  0.00    -0.263 N 
ATOM     19  C   UNL     1       0.540  -7.258  -0.817  0.00  0.00    +0.229 C 
ATOM     20  O   UNL     1      -0.035  -6.869   0.178  0.00  0.00    -0.275 OA
ATOM     21  H   UNL     1       1.495  -6.681  -2.496  0.00  0.00    +0.157 HD
BRANCH  13  22
ATOM     22  S   UNL     1       0.851  -0.589  -1.490  0.00  0.00    -0.097 S 
BRANCH  22  24
ATOM     23  C   UNL     1      -0.019   1.526   0.010  0.00  0.00    +0.016 C 
ATOM     24  C   UNL     1       0.002  -0.004   0.002  0.00  0.00    +0.073 C 
ENDBRANCH  22  24
ENDBRANCH  13  22
ENDBRANCH  12  19
ENDBRANCH  11  12
ENDBRANCH   1  11
BRANCH   4  25
ATOM     25  C   UNL     1       0.856 -15.323  -1.210  0.00  0.00    +0.108 C 
BRANCH  25  26
ATOM     26  C   UNL     1      -0.308 -15.818  -2.071  0.00  0.00    -0.058 C 
BRANCH  26  27
ATOM     27  N   UNL     1      -0.064 -17.211  -2.469  0.00  0.00    +0.377 N 
ATOM     28  C   UNL     1      -1.234 -17.725  -3.194  0.00  0.00    -0.097 C 
ATOM     29  C   UNL     1       1.117 -17.272  -3.340  0.00  0.00    -0.097 C 
ATOM     30  H   UNL     1       0.095 -17.773  -1.647  0.00  0.00    -0.083 HD
ENDBRANCH  26  27
ENDBRANCH  25  26
ENDBRANCH   4  25
TORSDOF 8
