REMARK  Name = ZINC19236537
REMARK  5 active torsions:
REMARK  status: ('A' for Active; 'I' for Inactive)
REMARK    1  A    between atoms: C_1  and  C_2
REMARK    2  A    between atoms: C_10  and  C_18
REMARK    3  A    between atoms: C_11  and  C_12
REMARK    4  A    between atoms: C_25  and  C_27
REMARK    5  A    between atoms: C_27  and  N_28
REMARK                            x       y       z     vdW  Elec       q    Type
REMARK                         _______ _______ _______ _____ _____    ______ ____
ROOT
ATOM      1  C   UNL     1      -9.483  -0.513   4.739  0.00  0.00    +0.046 C 
ATOM      2  C   UNL     1      -8.494  -0.910   5.805  0.00  0.00    -0.027 A 
ATOM      3  C   UNL     1      -8.855  -0.862   7.133  0.00  0.00    +0.005 A 
ATOM      4  C   UNL     1      -7.955  -1.225   8.125  0.00  0.00    +0.001 A 
ATOM      5  C   UNL     1      -6.684  -1.640   7.793  0.00  0.00    +0.010 A 
ATOM      6  C   UNL     1      -6.304  -1.694   6.453  0.00  0.00    +0.008 A 
ATOM      7  C   UNL     1      -7.215  -1.326   5.448  0.00  0.00    +0.050 A 
ATOM      8  N   UNL     1      -6.575  -1.477   4.237  0.00  0.00    -0.357 N 
ATOM      9  H   UNL     1      -7.105  -1.244   3.301  0.00  0.00    +0.166 HD
ATOM     10  C   UNL     1      -5.301  -1.923   4.430  0.00  0.00    +0.029 A 
ATOM     11  C   UNL     1      -5.067  -2.083   5.756  0.00  0.00    +0.011 A 
ENDROOT
BRANCH  10  12
ATOM     12  C   UNL     1      -4.305  -2.203   3.334  0.00  0.00    +0.054 C 
ATOM     13  C   UNL     1      -4.860  -3.283   2.403  0.00  0.00    +0.013 C 
ATOM     14  C   UNL     1      -3.836  -3.591   1.309  0.00  0.00    +0.020 C 
ATOM     15  C   UNL     1      -3.580  -2.326   0.483  0.00  0.00    +0.108 C 
ATOM     16  N   UNL     1      -3.185  -1.241   1.391  0.00  0.00    -0.299 N 
ATOM     17  C   UNL     1      -4.053  -0.926   2.534  0.00  0.00    +0.117 C 
ATOM     18  C   UNL     1      -2.047  -0.551   1.182  0.00  0.00    +0.237 C 
ATOM     19  O   UNL     1      -1.732   0.343   1.939  0.00  0.00    -0.274 OA
BRANCH  18  20
ATOM     20  C   UNL     1      -1.165  -0.890   0.008  0.00  0.00    +0.242 C 
BRANCH  20  21
ATOM     21  N   UNL     1       0.002  -0.004   0.002  0.00  0.00    -0.223 N 
ATOM     22  C   UNL     1       1.294  -0.383  -0.012  0.00  0.00    +0.245 A 
ATOM     23  N   UNL     1       2.008   0.716  -0.013  0.00  0.00    -0.117 NA
ATOM     24  N   UNL     1       1.197   1.718  -0.000  0.00  0.00    -0.023 NA
ATOM     25  N   UNL     1      -0.015   1.286   0.009  0.00  0.00    -0.044 NA
ENDBRANCH  20  21
ENDBRANCH  18  20
ENDBRANCH  10  12
BRANCH  11  26
ATOM     26  C   UNL     1      -3.811  -2.555   6.382  0.00  0.00    -0.013 A 
ATOM     27  C   UNL     1      -3.348  -3.859   6.171  0.00  0.00    +0.028 A 
ATOM     28  C   UNL     1      -2.171  -4.255   6.768  0.00  0.00    +0.111 A 
ATOM     29  N   UNL     1      -1.490  -3.428   7.538  0.00  0.00    -0.263 NA
ATOM     30  C   UNL     1      -1.894  -2.192   7.768  0.00  0.00    +0.111 A 
ATOM     31  C   UNL     1      -3.057  -1.712   7.206  0.00  0.00    +0.028 A 
ENDBRANCH  11  26
TORSDOF 4
