REMARK  Name = ZINC58185240
REMARK  10 active torsions:
REMARK  status: ('A' for Active; 'I' for Inactive)
REMARK    1  A    between atoms: C_1  and  C_2
REMARK    2  A    between atoms: C_2  and  C_3
REMARK    3  A    between atoms: C_2  and  C_4
REMARK    4  A    between atoms: C_4  and  C_5
REMARK    5  A    between atoms: C_4  and  C_6
REMARK    6  A    between atoms: C_4  and  N_8
REMARK    7  A    between atoms: C_9  and  C_11
REMARK    8  A    between atoms: C_11  and  N_12
REMARK    9  A    between atoms: C_15  and  C_19
REMARK   10  A    between atoms: C_15  and  C_20
REMARK                            x       y       z     vdW  Elec       q    Type
REMARK                         _______ _______ _______ _____ _____    ______ ____
ROOT
ATOM      1  N   UNL     1      -5.452  -0.619  -2.712  0.00  0.00    -0.215 N 
ATOM      2  C   UNL     1      -5.817  -1.829  -3.182  0.00  0.00    +0.251 C 
ATOM      3  O   UNL     1      -5.096  -2.670  -3.673  0.00  0.00    -0.272 OA
ATOM      4  C   UNL     1      -7.314  -1.918  -2.966  0.00  0.00    +0.138 C 
ATOM      5  N   UNL     1      -7.652  -0.627  -2.341  0.00  0.00    -0.281 N 
ATOM      6  C   UNL     1      -6.500   0.059  -2.230  0.00  0.00    +0.310 C 
ATOM      7  O   UNL     1      -6.421   1.173  -1.749  0.00  0.00    -0.252 OA
ATOM      8  C   UNL     1      -8.042  -2.076  -4.302  0.00  0.00    +0.047 C 
ATOM      9  H   UNL     1      -8.532  -0.331  -2.062  0.00  0.00    +0.152 HD
ENDROOT
BRANCH   4  10
ATOM     10  C   UNL     1      -7.650  -3.058  -2.040  0.00  0.00    +0.020 A 
ATOM     11  C   UNL     1      -8.311  -2.813  -0.851  0.00  0.00    +0.009 A 
ATOM     12  C   UNL     1      -8.618  -3.859  -0.002  0.00  0.00    +0.001 A 
ATOM     13  C   UNL     1      -8.265  -5.152  -0.340  0.00  0.00    +0.003 A 
ATOM     14  C   UNL     1      -7.604  -5.400  -1.527  0.00  0.00    +0.039 A 
ATOM     15  C   UNL     1      -7.300  -4.354  -2.382  0.00  0.00    +0.129 A 
ATOM     16  F   UNL     1      -6.659  -4.596  -3.546  0.00  0.00    -0.205 F 
ENDBRANCH   4  10
BRANCH   1  17
ATOM     17  C   UNL     1      -4.078  -0.112  -2.723  0.00  0.00    +0.213 C 
BRANCH  17  19
ATOM     18  N   UNL     1      -2.105  -0.148  -1.230  0.00  0.00    -0.296 N 
ATOM     19  C   UNL     1      -3.387  -0.508  -1.443  0.00  0.00    +0.232 C 
ATOM     20  O   UNL     1      -3.983  -1.151  -0.606  0.00  0.00    -0.274 OA
ATOM     21  H   UNL     1      -1.628   0.366  -1.901  0.00  0.00    +0.150 HD
BRANCH  18  22
ATOM     22  C   UNL     1      -1.433  -0.534   0.013  0.00  0.00    +0.121 C 
ATOM     23  C   UNL     1      -2.187   0.060   1.205  0.00  0.00    +0.048 C 
BRANCH  22  25
ATOM     24  C   UNL     1      -0.019   1.526   0.010  0.00  0.00    +0.010 C 
ATOM     25  C   UNL     1       0.002  -0.004   0.002  0.00  0.00    +0.020 C 
ATOM     26  C   UNL     1       0.742  -0.511   1.242  0.00  0.00    +0.010 C 
ENDBRANCH  22  25
BRANCH  22  27
ATOM     27  C   UNL     1      -1.414  -2.001   0.126  0.00  0.00    +0.088 C 
ATOM     28  N   UNL     1      -1.399  -3.134   0.213  0.00  0.00    -0.194 NA
ENDBRANCH  22  27
ENDBRANCH  18  22
ENDBRANCH  17  19
ENDBRANCH   1  17
TORSDOF 6
