REMARK  Name = ZINC66194664
REMARK  9 active torsions:
REMARK  status: ('A' for Active; 'I' for Inactive)
REMARK    1  A    between atoms: C_1  and  C_2
REMARK    2  A    between atoms: C_5  and  N_9
REMARK    3  A    between atoms: C_6  and  C_8
REMARK    4  A    between atoms: C_10  and  C_12
REMARK    5  A    between atoms: C_12  and  N_13
REMARK    6  A    between atoms: N_13  and  C_14
REMARK    7  A    between atoms: C_17  and  N_20
REMARK    8  A    between atoms: N_20  and  C_21
REMARK    9  A    between atoms: C_22  and  C_24
REMARK                            x       y       z     vdW  Elec       q    Type
REMARK                         _______ _______ _______ _____ _____    ______ ____
ROOT
ATOM      1  C   UNL     1      -0.155  -6.361  -1.151  0.00  0.00    +0.198 C 
ENDROOT
BRANCH   1   3
ATOM      2  N   UNL     1       0.046  -4.196   0.028  0.00  0.00    -0.284 N 
ATOM      3  C   UNL     1      -0.107  -4.855  -1.137  0.00  0.00    +0.234 C 
ATOM      4  O   UNL     1      -0.207  -4.236  -2.175  0.00  0.00    -0.274 OA
ATOM      5  H   UNL     1       0.193  -4.691   0.850  0.00  0.00    +0.155 HD
BRANCH   2  10
ATOM      6  C   UNL     1      -0.170   1.472   0.131  0.00  0.00    +0.044 C 
ATOM      7  C   UNL     1      -0.113  -0.033   0.104  0.00  0.00    -0.050 A 
ATOM      8  C   UNL     1       0.438  -0.683  -0.986  0.00  0.00    +0.005 A 
ATOM      9  C   UNL     1       0.492  -2.063  -1.014  0.00  0.00    +0.024 A 
ATOM     10  C   UNL     1      -0.007  -2.798   0.054  0.00  0.00    +0.036 A 
ATOM     11  C   UNL     1      -0.558  -2.142   1.147  0.00  0.00    -0.029 A 
ATOM     12  C   UNL     1      -0.605  -0.762   1.171  0.00  0.00    +0.008 A 
ATOM     13  C   UNL     1      -1.100  -2.936   2.308  0.00  0.00    +0.045 C 
ENDBRANCH   2  10
ENDBRANCH   1   3
BRANCH   1  14
ATOM     14  N   UNL     1      -0.327  -6.832  -2.527  0.00  0.00    -0.335 N 
ATOM     15  H   UNL     1      -0.390  -6.193  -3.254  0.00  0.00    +0.147 HD
BRANCH  14  16
ATOM     16  C   UNL     1      -0.400  -8.203  -2.793  0.00  0.00    +0.028 A 
ATOM     17  C   UNL     1      -0.315  -9.118  -1.752  0.00  0.00    +0.025 A 
ATOM     18  C   UNL     1      -0.386 -10.472  -2.015  0.00  0.00    +0.025 A 
ATOM     19  C   UNL     1      -0.543 -10.918  -3.320  0.00  0.00    +0.036 A 
ATOM     20  C   UNL     1      -0.627 -10.004  -4.362  0.00  0.00    +0.025 A 
ATOM     21  C   UNL     1      -0.562  -8.650  -4.098  0.00  0.00    +0.025 A 
BRANCH  19  22
ATOM     22  N   UNL     1      -0.615 -12.292  -3.587  0.00  0.00    -0.275 N 
ATOM     23  C   UNL     1      -0.699 -13.250  -2.481  0.00  0.00    +0.138 C 
ATOM     24  C   UNL     1      -0.607 -12.733  -4.861  0.00  0.00    +0.216 C 
ATOM     25  O   UNL     1      -0.420 -11.953  -5.771  0.00  0.00    -0.276 OA
ATOM     26  C   UNL     1      -0.830 -14.194  -5.154  0.00  0.00    +0.109 C 
ENDBRANCH  19  22
ENDBRANCH  14  16
ENDBRANCH   1  14
TORSDOF 5
