REMARK  Name = ZINC64073398
REMARK  7 active torsions:
REMARK  status: ('A' for Active; 'I' for Inactive)
REMARK    1  A    between atoms: C_7  and  C_10
REMARK    2  A    between atoms: C_10  and  C_11
REMARK    3  A    between atoms: C_11  and  C_13
REMARK    4  A    between atoms: C_11  and  N_28
REMARK    5  A    between atoms: N_15  and  C_16
REMARK    6  A    between atoms: C_19  and  S_22
REMARK    7  A    between atoms: S_22  and  C_23
REMARK                            x       y       z     vdW  Elec       q    Type
REMARK                         _______ _______ _______ _____ _____    ______ ____
ROOT
ATOM      1  C   UNL     1       0.458  -3.654  -1.468  0.00  0.00    +0.165 C 
ENDROOT
BRANCH   1   2
ATOM      2  N   UNL     1      -0.241  -2.604  -2.214  0.00  0.00    -0.288 N 
ATOM      3  C   UNL     1      -1.450  -2.175  -1.801  0.00  0.00    +0.298 C 
ATOM      4  O   UNL     1      -1.961  -2.660  -0.810  0.00  0.00    -0.253 OA
ATOM      5  N   UNL     1      -2.092  -1.209  -2.486  0.00  0.00    -0.313 N 
ATOM      6  H   UNL     1       0.167  -2.218  -3.004  0.00  0.00    +0.151 HD
ATOM      7  H   UNL     1      -1.685  -0.823  -3.277  0.00  0.00    +0.146 HD
ATOM      8  H   UNL     1      -2.963  -0.901  -2.189  0.00  0.00    +0.146 HD
ENDBRANCH   1   2
BRANCH   1   9
ATOM      9  C   UNL     1      -0.385  -4.903  -1.451  0.00  0.00    +0.238 C 
ATOM     10  O   UNL     1      -1.576  -4.834  -1.669  0.00  0.00    -0.273 OA
ATOM     11  N   UNL     1       0.185  -6.097  -1.193  0.00  0.00    -0.284 N 
ATOM     12  H   UNL     1       1.147  -6.162  -1.085  0.00  0.00    +0.155 HD
BRANCH  11  13
ATOM     13  C   UNL     1      -0.612  -7.244  -1.080  0.00  0.00    +0.034 A 
ATOM     14  C   UNL     1      -0.275  -8.238  -0.170  0.00  0.00    +0.024 A 
ATOM     15  C   UNL     1      -1.060  -9.368  -0.059  0.00  0.00    +0.016 A 
ATOM     16  C   UNL     1      -2.188  -9.511  -0.858  0.00  0.00    +0.008 A 
ATOM     17  C   UNL     1      -2.525  -8.517  -1.769  0.00  0.00    +0.016 A 
ATOM     18  C   UNL     1      -1.742  -7.385  -1.875  0.00  0.00    +0.024 A 
BRANCH  16  19
ATOM     19  S   UNL     1      -3.190 -10.954  -0.718  0.00  0.00    -0.122 S 
BRANCH  19  20
ATOM     20  C   UNL     1      -4.511 -10.691  -1.933  0.00  0.00    +0.051 C 
ATOM     21  C   UNL     1      -5.417  -9.526  -1.484  0.00  0.00    +0.014 C 
ATOM     22  C   UNL     1      -6.840  -9.968  -1.906  0.00  0.00    +0.001 C 
ATOM     23  C   UNL     1      -6.827 -11.489  -1.613  0.00  0.00    +0.001 C 
ATOM     24  C   UNL     1      -5.407 -11.939  -2.015  0.00  0.00    +0.014 C 
ENDBRANCH  19  20
ENDBRANCH  16  19
ENDBRANCH  11  13
ENDBRANCH   1   9
BRANCH   1  25
ATOM     25  C   UNL     1       0.703  -3.184  -0.033  0.00  0.00    +0.065 C 
BRANCH  25  32
ATOM     26  C   UNL     1       0.003   1.351  -0.003  0.00  0.00    +0.001 A 
ATOM     27  C   UNL     1       1.186   2.102  -0.020  0.00  0.00    +0.002 A 
ATOM     28  C   UNL     1       2.410   1.534  -0.043  0.00  0.00    +0.026 A 
ATOM     29  C   UNL     1       2.546   0.119  -0.050  0.00  0.00    +0.043 A 
ATOM     30  N   UNL     1       3.603  -0.657  -0.072  0.00  0.00    -0.380 N 
ATOM     31  C   UNL     1       3.157  -2.055  -0.070  0.00  0.00    +0.144 C 
ATOM     32  C   UNL     1       1.645  -2.008  -0.044  0.00  0.00    -0.039 C 
ATOM     33  C   UNL     1       1.311  -0.698  -0.033  0.00  0.00    -0.001 A 
ATOM     34  C   UNL     1       0.019  -0.002  -0.008  0.00  0.00    +0.010 A 
ATOM     35  H   UNL     1       4.525  -0.357  -0.086  0.00  0.00    +0.160 HD
ENDBRANCH  25  32
ENDBRANCH   1  25
TORSDOF 7
