REMARK  Name = ZINC13100248
REMARK  4 active torsions:
REMARK  status: ('A' for Active; 'I' for Inactive)
REMARK    1  A    between atoms: C_1  and  C_2
REMARK    2  A    between atoms: C_2  and  C_22
REMARK    3  A    between atoms: N_5  and  N_9
REMARK    4  A    between atoms: C_10  and  C_12
REMARK                            x       y       z     vdW  Elec       q    Type
REMARK                         _______ _______ _______ _____ _____    ______ ____
ROOT
ATOM      1  C   UNL     1      -3.341   3.891  -1.363  0.00  0.00    +0.047 C 
ATOM      2  C   UNL     1      -3.232   2.580  -0.581  0.00  0.00    +0.137 C 
ATOM      3  C   UNL     1      -2.041   1.773  -1.056  0.00  0.00    +0.267 C 
ATOM      4  O   UNL     1      -1.852   1.332  -2.169  0.00  0.00    -0.271 OA
ATOM      5  N   UNL     1      -1.234   1.650   0.017  0.00  0.00    -0.137 N 
ATOM      6  C   UNL     1      -1.748   2.256   1.093  0.00  0.00    +0.327 C 
ATOM      7  O   UNL     1      -1.204   2.277   2.180  0.00  0.00    -0.251 OA
ATOM      8  N   UNL     1      -2.931   2.842   0.837  0.00  0.00    -0.280 N 
ATOM      9  H   UNL     1      -3.480   3.338   1.464  0.00  0.00    +0.152 HD
ENDROOT
BRANCH   2  10
ATOM     10  C   UNL     1      -4.502   1.779  -0.714  0.00  0.00    -0.015 A 
ATOM     11  C   UNL     1      -4.620   0.832  -1.713  0.00  0.00    +0.006 A 
ATOM     12  C   UNL     1      -5.783   0.093  -1.832  0.00  0.00    +0.000 A 
ATOM     13  C   UNL     1      -6.831   0.310  -0.957  0.00  0.00    +0.000 A 
ATOM     14  C   UNL     1      -6.715   1.261   0.039  0.00  0.00    +0.000 A 
ATOM     15  C   UNL     1      -5.551   1.996   0.161  0.00  0.00    +0.006 A 
ENDBRANCH   2  10
BRANCH   5  16
ATOM     16  N   UNL     1      -0.011   0.966   0.007  0.00  0.00    -0.219 N 
ATOM     17  C   UNL     1       1.147   1.655   0.000  0.00  0.00    +0.269 C 
ATOM     18  O   UNL     1       1.130   2.872   0.007  0.00  0.00    -0.268 OA
ATOM     19  H   UNL     1       0.002  -0.004   0.002  0.00  0.00    +0.174 HD
BRANCH  17  20
ATOM     20  C   UNL     1       2.428   0.939  -0.016  0.00  0.00    +0.095 A 
ATOM     21  C   UNL     1       3.688   1.454  -0.031  0.00  0.00    +0.068 A 
ATOM     22  C   UNL     1       4.799   0.589  -0.040  0.00  0.00    +0.008 A 
ATOM     23  C   UNL     1       6.176   0.929  -0.051  0.00  0.00    +0.010 A 
ATOM     24  C   UNL     1       7.130  -0.037  -0.067  0.00  0.00    +0.001 A 
ATOM     25  C   UNL     1       6.800  -1.387  -0.071  0.00  0.00    +0.001 A 
ATOM     26  C   UNL     1       5.472  -1.762  -0.060  0.00  0.00    +0.016 A 
ATOM     27  C   UNL     1       4.492  -0.792  -0.045  0.00  0.00    +0.021 A 
ATOM     28  S   UNL     1       2.717  -0.822  -0.029  0.00  0.00    -0.082 S 
ATOM     29 CL   UNL     1       3.924   3.174  -0.033  0.00  0.00    -0.082 Cl
ENDBRANCH  17  20
ENDBRANCH   5  16
TORSDOF 3
