REMARK  Name = ZINC45266567
REMARK  9 active torsions:
REMARK  status: ('A' for Active; 'I' for Inactive)
REMARK    1  A    between atoms: C_1  and  C_2
REMARK    2  A    between atoms: C_8  and  N_10
REMARK    3  A    between atoms: C_14  and  C_16
REMARK    4  A    between atoms: C_16  and  O_17
REMARK    5  A    between atoms: O_17  and  C_18
REMARK    6  A    between atoms: C_18  and  C_20
REMARK    7  A    between atoms: C_23  and  S_26
REMARK    8  A    between atoms: S_26  and  N_29
REMARK    9  A    between atoms: C_34  and  C_36
REMARK                            x       y       z     vdW  Elec       q    Type
REMARK                         _______ _______ _______ _____ _____    ______ ____
ROOT
ATOM      1  C   UNL     1       8.200   1.621   4.799  0.00  0.00    +0.340 C 
ATOM      2  O   UNL     1       8.902   1.969   3.870  0.00  0.00    -0.245 OA
ENDROOT
BRANCH   1   3
ATOM      3  C   UNL     1       8.705   1.719   6.184  0.00  0.00    +0.059 A 
ATOM      4  C   UNL     1       7.903   1.316   7.253  0.00  0.00    +0.017 A 
ATOM      5  C   UNL     1       8.381   1.410   8.543  0.00  0.00    +0.029 A 
ATOM      6  C   UNL     1       9.652   1.903   8.779  0.00  0.00    +0.106 A 
ATOM      7  C   UNL     1      10.452   2.305   7.724  0.00  0.00    +0.029 A 
ATOM      8  C   UNL     1       9.989   2.210   6.428  0.00  0.00    +0.017 A 
BRANCH   6   9
ATOM      9  S   UNL     1      10.255   2.019  10.431  0.00  0.00    +0.061 S 
ATOM     10  O   UNL     1      11.264   3.020  10.425  0.00  0.00    -0.153 OA
ATOM     11  O   UNL     1       9.114   2.092  11.275  0.00  0.00    -0.153 OA
BRANCH   9  12
ATOM     12  N   UNL     1      11.011   0.588  10.779  0.00  0.00    -0.174 NA
ATOM     13  C   UNL     1      10.296  -0.484  11.485  0.00  0.00    +0.110 C 
ATOM     14  C   UNL     1      11.117  -0.901  12.709  0.00  0.00    +0.017 C 
ATOM     15  C   UNL     1      12.533  -1.276  12.266  0.00  0.00    +0.003 C 
ATOM     16  C   UNL     1      13.206  -0.061  11.623  0.00  0.00    +0.020 C 
ATOM     17  C   UNL     1      12.408   0.363  10.382  0.00  0.00    +0.077 C 
ATOM     18  C   UNL     1      12.993   1.656   9.810  0.00  0.00    +0.026 C 
ENDBRANCH   9  12
ENDBRANCH   6   9
ENDBRANCH   1   3
BRANCH   1  19
ATOM     19  O   UNL     1       6.961   1.147   4.566  0.00  0.00    -0.452 OA
BRANCH  19  20
ATOM     20  C   UNL     1       6.537   1.080   3.203  0.00  0.00    +0.328 C 
BRANCH  20  25
ATOM     21  N   UNL     1       2.663  -0.271   0.697  0.00  0.00    -0.296 N 
ATOM     22  C   UNL     1       3.273  -0.117   1.889  0.00  0.00    +0.306 C 
ATOM     23  O   UNL     1       2.693  -0.423   2.912  0.00  0.00    -0.252 OA
ATOM     24  N   UNL     1       4.526   0.376   1.946  0.00  0.00    -0.237 N 
ATOM     25  C   UNL     1       5.136   0.529   3.139  0.00  0.00    +0.258 C 
ATOM     26  O   UNL     1       4.557   0.224   4.159  0.00  0.00    -0.272 OA
ATOM     27  H   UNL     1       3.126  -0.026  -0.120  0.00  0.00    +0.151 HD
ATOM     28  H   UNL     1       4.989   0.620   1.130  0.00  0.00    +0.159 HD
BRANCH  21  35
ATOM     29  C   UNL     1       0.569   1.206  -0.653  0.00  0.00    +0.009 C 
ATOM     30  C   UNL     1       0.622  -0.323  -0.648  0.00  0.00    +0.006 C 
ATOM     31  C   UNL     1      -0.801  -0.883  -0.714  0.00  0.00    +0.005 C 
ATOM     32  C   UNL     1      -0.749  -2.412  -0.709  0.00  0.00    +0.000 C 
ATOM     33  C   UNL     1      -0.069  -2.895   0.574  0.00  0.00    +0.002 C 
ATOM     34  C   UNL     1       1.354  -2.335   0.639  0.00  0.00    +0.022 C 
ATOM     35  C   UNL     1       1.301  -0.806   0.635  0.00  0.00    +0.077 C 
ENDBRANCH  21  35
ENDBRANCH  20  25
ENDBRANCH  19  20
ENDBRANCH   1  19
TORSDOF 7
