REMARK  Name = ZINC46613667
REMARK  9 active torsions:
REMARK  status: ('A' for Active; 'I' for Inactive)
REMARK    1  A    between atoms: C_1  and  C_2
REMARK    2  A    between atoms: C_2  and  C_4
REMARK    3  A    between atoms: C_2  and  N_14
REMARK    4  A    between atoms: C_7  and  O_10
REMARK    5  A    between atoms: O_10  and  C_11
REMARK    6  A    between atoms: N_17  and  N_18
REMARK    7  A    between atoms: N_18  and  C_19
REMARK    8  A    between atoms: C_19  and  N_21
REMARK    9  A    between atoms: N_21  and  C_22
REMARK                            x       y       z     vdW  Elec       q    Type
REMARK                         _______ _______ _______ _____ _____    ______ ____
ROOT
ATOM      1  N   UNL     1       0.711  -0.489   1.189  0.00  0.00    -0.292 N 
ATOM      2  C   UNL     1       0.051  -0.633   2.355  0.00  0.00    +0.316 C 
ATOM      3  O   UNL     1      -1.132  -0.361   2.423  0.00  0.00    -0.251 OA
ATOM      4  N   UNL     1       0.703  -1.080   3.447  0.00  0.00    -0.219 N 
ATOM      5  H   UNL     1       1.654  -0.707   1.135  0.00  0.00    +0.151 HD
ATOM      6  H   UNL     1       0.229  -1.184   4.287  0.00  0.00    +0.174 HD
ENDROOT
BRANCH   1   8
ATOM      7  C   UNL     1      -0.019   1.526   0.010  0.00  0.00    +0.033 C 
ATOM      8  C   UNL     1       0.002  -0.004   0.002  0.00  0.00    +0.102 C 
BRANCH   8   9
ATOM      9  C   UNL     1       0.707  -0.490  -1.238  0.00  0.00    -0.027 A 
ATOM     10  C   UNL     1       2.089  -0.510  -1.283  0.00  0.00    +0.009 A 
ATOM     11  C   UNL     1       2.738  -0.955  -2.418  0.00  0.00    +0.046 A 
ATOM     12  C   UNL     1       2.002  -1.382  -3.514  0.00  0.00    +0.127 A 
ATOM     13  C   UNL     1       0.616  -1.361  -3.466  0.00  0.00    +0.046 A 
ATOM     14  C   UNL     1      -0.028  -0.920  -2.327  0.00  0.00    +0.009 A 
BRANCH  12  15
ATOM     15  O   UNL     1       2.638  -1.819  -4.633  0.00  0.00    -0.434 OA
BRANCH  15  16
ATOM     16  C   UNL     1       1.817  -2.244  -5.722  0.00  0.00    +0.541 C 
ATOM     17  F   UNL     1       1.008  -3.308  -5.309  0.00  0.00    -0.166 F 
ATOM     18  F   UNL     1       1.011  -1.179  -6.140  0.00  0.00    -0.166 F 
ENDBRANCH  15  16
ENDBRANCH  12  15
ENDBRANCH   8   9
ENDBRANCH   1   8
BRANCH   4  19
ATOM     19  N   UNL     1       2.066  -1.394   3.370  0.00  0.00    -0.245 N 
ATOM     20  H   UNL     1       2.541  -1.290   2.530  0.00  0.00    +0.172 HD
BRANCH  19  21
ATOM     21  C   UNL     1       2.718  -1.841   4.462  0.00  0.00    +0.147 C 
ATOM     22  S   UNL     1       4.384  -2.225   4.367  0.00  0.00    -0.017 S 
BRANCH  21  23
ATOM     23  N   UNL     1       2.059  -1.985   5.628  0.00  0.00    -0.323 N 
ATOM     24  H   UNL     1       1.115  -1.767   5.682  0.00  0.00    +0.148 HD
BRANCH  23  25
ATOM     25  C   UNL     1       2.767  -2.470   6.815  0.00  0.00    +0.072 C 
ATOM     26  C   UNL     1       2.734  -4.012   6.856  0.00  0.00    +0.022 C 
ATOM     27  C   UNL     1       2.580  -4.348   8.361  0.00  0.00    +0.002 C 
ATOM     28  C   UNL     1       1.618  -3.243   8.861  0.00  0.00    +0.002 C 
ATOM     29  C   UNL     1       2.057  -1.981   8.089  0.00  0.00    +0.022 C 
ENDBRANCH  23  25
ENDBRANCH  21  23
ENDBRANCH  19  21
ENDBRANCH   4  19
TORSDOF 8
