REMARK  Name = ZINC14848355
REMARK  9 active torsions:
REMARK  status: ('A' for Active; 'I' for Inactive)
REMARK    1  A    between atoms: C_1  and  C_2
REMARK    2  A    between atoms: C_7  and  N_8
REMARK    3  A    between atoms: C_9  and  C_11
REMARK    4  A    between atoms: C_11  and  N_12
REMARK    5  A    between atoms: C_13  and  C_15
REMARK    6  A    between atoms: C_15  and  C_16
REMARK    7  A    between atoms: C_16  and  C_17
REMARK    8  A    between atoms: C_17  and  N_18
REMARK    9  A    between atoms: N_21  and  C_22
REMARK                            x       y       z     vdW  Elec       q    Type
REMARK                         _______ _______ _______ _____ _____    ______ ____
ROOT
ATOM      1  N   UNL     1       4.360  -5.951  -0.055  0.00  0.00    -0.307 N 
ATOM      2  C   UNL     1       4.097  -4.630  -0.035  0.00  0.00    +0.213 C 
ATOM      3  O   UNL     1       5.008  -3.829  -0.032  0.00  0.00    -0.276 OA
ATOM      4  H   UNL     1       3.632  -6.591  -0.058  0.00  0.00    +0.149 HD
ENDROOT
BRANCH   1   5
ATOM      5  C   UNL     1       5.748  -6.421  -0.072  0.00  0.00    +0.200 C 
BRANCH   5   7
ATOM      6  N   UNL     1       6.944  -8.586  -0.110  0.00  0.00    -0.284 N 
ATOM      7  C   UNL     1       5.768  -7.928  -0.092  0.00  0.00    +0.234 C 
ATOM      8  O   UNL     1       4.726  -8.548  -0.092  0.00  0.00    -0.274 OA
ATOM      9  H   UNL     1       7.775  -8.092  -0.191  0.00  0.00    +0.155 HD
BRANCH   6  16
ATOM     10  C   UNL     1       9.174  -9.974  -1.203  0.00  0.00    +0.046 C 
ATOM     11  C   UNL     1       8.036 -10.698  -0.532  0.00  0.00    -0.028 A 
ATOM     12  C   UNL     1       8.057 -12.076  -0.430  0.00  0.00    +0.020 A 
ATOM     13  C   UNL     1       7.010 -12.742   0.180  0.00  0.00    +0.018 A 
ATOM     14  C   UNL     1       5.940 -12.030   0.695  0.00  0.00    +0.017 A 
ATOM     15  C   UNL     1       5.916 -10.653   0.600  0.00  0.00    +0.024 A 
ATOM     16  C   UNL     1       6.966  -9.982  -0.012  0.00  0.00    +0.036 A 
ATOM     17 BR   UNL     1       7.040 -14.628   0.312  0.00  0.00    -0.050 Br
ENDBRANCH   6  16
ENDBRANCH   5   7
ENDBRANCH   1   5
BRANCH   2  18
ATOM     18  C   UNL     1       2.669  -4.146  -0.018  0.00  0.00    +0.097 C 
BRANCH  18  19
ATOM     19  C   UNL     1       2.649  -2.617   0.003  0.00  0.00    +0.028 C 
BRANCH  19  20
ATOM     20  C   UNL     1       1.200  -2.126   0.021  0.00  0.00    +0.106 C 
BRANCH  20  21
ATOM     21  N   UNL     1       1.181  -0.661   0.040  0.00  0.00    -0.299 N 
ATOM     22  C   UNL     1       0.004  -0.003   0.058  0.00  0.00    +0.300 C 
ATOM     23  O   UNL     1      -1.040  -0.625   0.058  0.00  0.00    -0.253 OA
ATOM     24  N   UNL     1      -0.013   1.345   0.076  0.00  0.00    -0.297 N 
ATOM     25  H   UNL     1       2.014  -0.165   0.040  0.00  0.00    +0.150 HD
ATOM     26  H   UNL     1       0.820   1.841   0.076  0.00  0.00    +0.151 HD
BRANCH  24  27
ATOM     27  C   UNL     1      -1.292   2.060   0.090  0.00  0.00    +0.074 C 
ATOM     28  C   UNL     1      -1.803   2.219  -1.344  0.00  0.00    +0.022 C 
ATOM     29  C   UNL     1      -3.138   2.966  -1.330  0.00  0.00    +0.002 C 
ATOM     30  C   UNL     1      -2.942   4.347  -0.702  0.00  0.00    +0.000 C 
ATOM     31  C   UNL     1      -2.431   4.189   0.731  0.00  0.00    +0.002 C 
ATOM     32  C   UNL     1      -1.096   3.442   0.717  0.00  0.00    +0.022 C 
ENDBRANCH  24  27
ENDBRANCH  20  21
ENDBRANCH  19  20
ENDBRANCH  18  19
ENDBRANCH   2  18
TORSDOF 8
