REMARK  Name = ZINC64900550
REMARK  3 active torsions:
REMARK  status: ('A' for Active; 'I' for Inactive)
REMARK    1  A    between atoms: C_12  and  C_14
REMARK    2  A    between atoms: N_16  and  N_17
REMARK    3  A    between atoms: N_20  and  C_21
REMARK                            x       y       z     vdW  Elec       q    Type
REMARK                         _______ _______ _______ _____ _____    ______ ____
ROOT
ATOM      1  C   UNL     1      -0.017   1.372   0.010  0.00  0.00    +0.002 A 
ATOM      2  C   UNL     1       1.157   2.104   0.002  0.00  0.00    +0.001 A 
ATOM      3  C   UNL     1       2.369   1.432  -0.009  0.00  0.00    +0.016 A 
ATOM      4  C   UNL     1       2.385   0.059  -0.014  0.00  0.00    +0.032 A 
ATOM      5  C   UNL     1       1.215  -0.710  -0.014  0.00  0.00    +0.052 A 
ATOM      6  C   UNL     1       0.002  -0.004   0.002  0.00  0.00    +0.025 A 
ATOM      7  N   UNL     1       1.352  -2.112  -0.040  0.00  0.00    -0.246 N 
ATOM      8  C   UNL     1       0.645  -3.200  -0.440  0.00  0.00    +0.221 C 
ATOM      9  O   UNL     1      -0.556  -3.223  -0.608  0.00  0.00    -0.275 OA
ATOM     10  C   UNL     1       1.570  -4.379  -0.644  0.00  0.00    +0.100 C 
ATOM     11  C   UNL     1       2.992  -3.790  -0.458  0.00  0.00    +0.057 C 
ATOM     12  C   UNL     1       2.674  -2.587   0.445  0.00  0.00    +0.170 C 
ATOM     13  S   UNL     1       3.705  -1.140  -0.017  0.00  0.00    -0.088 S 
ENDROOT
BRANCH  12  14
ATOM     14  C   UNL     1       2.699  -2.920   1.915  0.00  0.00    +0.264 C 
ATOM     15  O   UNL     1       1.724  -2.704   2.603  0.00  0.00    -0.271 OA
ATOM     16  N   UNL     1       3.806  -3.458   2.465  0.00  0.00    -0.231 N 
ATOM     17  H   UNL     1       4.586  -3.631   1.915  0.00  0.00    +0.173 HD
BRANCH  16  18
ATOM     18  N   UNL     1       3.830  -3.767   3.831  0.00  0.00    -0.218 N 
ATOM     19  C   UNL     1       4.936  -4.305   4.381  0.00  0.00    +0.316 C 
ATOM     20  O   UNL     1       4.957  -4.574   5.567  0.00  0.00    -0.251 OA
ATOM     21  N   UNL     1       6.020  -4.545   3.617  0.00  0.00    -0.295 N 
ATOM     22  H   UNL     1       3.050  -3.595   4.381  0.00  0.00    +0.174 HD
ATOM     23  H   UNL     1       6.004  -4.331   2.671  0.00  0.00    +0.151 HD
BRANCH  21  24
ATOM     24  C   UNL     1       7.223  -5.130   4.215  0.00  0.00    +0.075 C 
ATOM     25  C   UNL     1       8.573  -4.529   3.817  0.00  0.00    +0.024 C 
ATOM     26  C   UNL     1       8.164  -5.907   3.292  0.00  0.00    +0.024 C 
ENDBRANCH  21  24
ENDBRANCH  16  18
ENDBRANCH  12  14
TORSDOF 3
