REMARK  Name = ZINC11997260
REMARK  8 active torsions:
REMARK  status: ('A' for Active; 'I' for Inactive)
REMARK    1  A    between atoms: C_1  and  O_2
REMARK    2  A    between atoms: O_2  and  C_3
REMARK    3  A    between atoms: C_8  and  O_9
REMARK    4  A    between atoms: O_9  and  C_10
REMARK    5  A    between atoms: C_14  and  N_59
REMARK    6  A    between atoms: C_19  and  C_20
REMARK    7  A    between atoms: C_19  and  N_61
REMARK    8  A    between atoms: C_22  and  C_25
REMARK                            x       y       z     vdW  Elec       q    Type
REMARK                         _______ _______ _______ _____ _____    ______ ____
ROOT
ATOM      1  C   UNL     1      -0.018   1.465   0.010  0.00  0.00    -0.072 C 
ATOM      2  C   UNL     1      -0.751   1.973  -1.234  0.00  0.00    -0.034 C 
ATOM      3  C   UNL     1      -0.716   3.503  -1.251  0.00  0.00    -0.080 C 
ATOM      4  C   UNL     1       1.391   3.525  -0.054  0.00  0.00    -0.080 C 
ATOM      5  C   UNL     1       1.418   1.996  -0.001  0.00  0.00    -0.034 C 
ATOM      6  N   UNL     1       0.693   3.950  -1.286  0.00  0.00    +0.385 N 
ATOM      7  H   UNL     1       1.158   3.523  -2.096  0.00  0.00    -0.081 HD
ENDROOT
BRANCH   1  17
ATOM      8  C   UNL     1       0.747  -4.800   1.254  0.00  0.00    +0.162 A 
ATOM      9  C   UNL     1      -0.247  -4.115   0.578  0.00  0.00    +0.053 A 
ATOM     10  C   UNL     1      -0.221  -2.731   0.505  0.00  0.00    -0.044 A 
ATOM     11  C   UNL     1       0.798  -2.028   1.113  0.00  0.00    -0.057 A 
ATOM     12  C   UNL     1       1.798  -2.710   1.791  0.00  0.00    +0.051 A 
ATOM     13  C   UNL     1       1.778  -4.092   1.865  0.00  0.00    +0.162 A 
ATOM     14  C   UNL     1       0.862  -0.524   1.070  0.00  0.00    -0.042 C 
ATOM     15  C   UNL     1      -1.358  -0.551   0.132  0.00  0.00    -0.073 C 
ATOM     16  C   UNL     1      -1.324  -2.031  -0.247  0.00  0.00    +0.017 C 
ATOM     17  N   UNL     1       0.010  -0.015  -0.018  0.00  0.00    +0.384 N 
ATOM     18  H   UNL     1       0.395  -0.325  -0.918  0.00  0.00    -0.081 HD
BRANCH   8  20
ATOM     19  C   UNL     1      -0.372  -6.816   0.672  0.00  0.00    +0.277 C 
ATOM     20  O   UNL     1       0.716  -6.158   1.323  0.00  0.00    -0.491 OA
ENDBRANCH   8  20
BRANCH  13  21
ATOM     21  O   UNL     1       2.760  -4.755   2.531  0.00  0.00    -0.491 OA
ATOM     22  C   UNL     1       3.785  -3.961   3.134  0.00  0.00    +0.277 C 
ENDBRANCH  13  21
ENDBRANCH   1  17
BRANCH   6  23
ATOM     23  C   UNL     1       0.753   5.420  -1.418  0.00  0.00    +0.022 C 
BRANCH  23  24
ATOM     24  C   UNL     1       0.232   5.807  -2.779  0.00  0.00    +0.211 A 
ATOM     25  N   UNL     1      -1.008   6.098  -3.083  0.00  0.00    -0.192 NA
ATOM     26  C   UNL     1      -1.000   6.380  -4.406  0.00  0.00    +0.222 A 
ATOM     27  N   UNL     1       0.232   6.245  -4.822  0.00  0.00    -0.055 NA
ATOM     28  O   UNL     1       0.951   5.923  -3.900  0.00  0.00    -0.340 OA
BRANCH  26  29
ATOM     29  C   UNL     1      -2.172   6.770  -5.230  0.00  0.00    +0.129 A 
ATOM     30  C   UNL     1      -2.013   7.032  -6.590  0.00  0.00    +0.142 A 
ATOM     31  N   UNL     1      -3.058   7.378  -7.319  0.00  0.00    -0.260 NA
ATOM     32  C   UNL     1      -4.252   7.475  -6.762  0.00  0.00    +0.130 A 
ATOM     33  C   UNL     1      -4.414   7.215  -5.411  0.00  0.00    +0.131 A 
ATOM     34  N   UNL     1      -3.376   6.864  -4.676  0.00  0.00    -0.249 NA
ENDBRANCH  26  29
ENDBRANCH  23  24
ENDBRANCH   6  23
TORSDOF 6
