REMARK  Name = ZINC50674221
REMARK  5 active torsions:
REMARK  status: ('A' for Active; 'I' for Inactive)
REMARK    1  A    between atoms: C_1  and  C_2
REMARK    2  A    between atoms: C_8  and  N_10
REMARK    3  A    between atoms: N_10  and  C_11
REMARK    4  A    between atoms: N_10  and  S_12
REMARK    5  A    between atoms: S_12  and  C_15
REMARK                            x       y       z     vdW  Elec       q    Type
REMARK                         _______ _______ _______ _____ _____    ______ ____
ROOT
ATOM      1  S   UNL     1       1.146  -0.132   3.834  0.00  0.00    +0.064 S 
ATOM      2  O   UNL     1       0.206  -0.179   4.899  0.00  0.00    -0.153 OA
ATOM      3  O   UNL     1       2.122  -1.146   3.634  0.00  0.00    -0.153 OA
ENDROOT
BRANCH   1   4
ATOM      4  C   UNL     1       2.025   1.385   4.005  0.00  0.00    +0.142 A 
ATOM      5  C   UNL     1       3.292   1.535   3.463  0.00  0.00    +0.144 A 
ATOM      6  N   UNL     1       3.924   2.687   3.609  0.00  0.00    -0.221 NA
ATOM      7  C   UNL     1       3.360   3.691   4.264  0.00  0.00    +0.213 A 
ATOM      8  N   UNL     1       2.151   3.581   4.794  0.00  0.00    -0.221 NA
ATOM      9  C   UNL     1       1.462   2.458   4.679  0.00  0.00    +0.144 A 
ATOM     10  N   UNL     1       4.050   4.883   4.398  0.00  0.00    -0.327 N 
ATOM     11  H   UNL     1       4.936   4.976   4.015  0.00  0.00    +0.145 HD
ATOM     12  H   UNL     1       3.648   5.626   4.876  0.00  0.00    +0.145 HD
ENDBRANCH   1   4
BRANCH   1  13
ATOM     13  N   UNL     1       0.269  -0.035   2.433  0.00  0.00    -0.176 NA
ATOM     14  C   UNL     1      -1.094   0.500   2.458  0.00  0.00    +0.132 C 
BRANCH  13  21
ATOM     15  C   UNL     1      -0.190   1.455  -0.008  0.00  0.00    +0.009 C 
ATOM     16  C   UNL     1      -0.050  -0.069   0.008  0.00  0.00    +0.005 C 
ATOM     17  C   UNL     1      -1.429  -0.707   0.185  0.00  0.00    +0.005 C 
ATOM     18  C   UNL     1      -1.288  -2.230   0.201  0.00  0.00    +0.000 C 
ATOM     19  C   UNL     1      -0.382  -2.646   1.361  0.00  0.00    +0.002 C 
ATOM     20  C   UNL     1       0.998  -2.008   1.185  0.00  0.00    +0.021 C 
ATOM     21  C   UNL     1       0.857  -0.485   1.168  0.00  0.00    +0.082 C 
ENDBRANCH  13  21
ENDBRANCH   1  13
TORSDOF 3
