REMARK  Name = ZINC04235664
REMARK  8 active torsions:
REMARK  status: ('A' for Active; 'I' for Inactive)
REMARK    1  A    between atoms: C_1  and  C_2
REMARK    2  A    between atoms: C_2  and  C_3
REMARK    3  A    between atoms: C_2  and  C_4
REMARK    4  A    between atoms: C_7  and  N_10
REMARK    5  A    between atoms: C_11  and  O_13
REMARK    6  A    between atoms: O_13  and  C_14
REMARK    7  A    between atoms: C_24  and  N_26
REMARK    8  A    between atoms: C_27  and  C_29
REMARK                            x       y       z     vdW  Elec       q    Type
REMARK                         _______ _______ _______ _____ _____    ______ ____
ROOT
ATOM      1  C   UNL     1       4.633   5.594  -0.323  0.00  0.00    +0.235 C 
ATOM      2  C   UNL     1       4.695   6.048  -1.797  0.00  0.00    +0.207 C 
ATOM      3  O   UNL     1       5.486   7.241  -1.847  0.00  0.00    -0.368 OA
ATOM      4  C   UNL     1       5.946   7.593  -0.535  0.00  0.00    +0.173 C 
ATOM      5  C   UNL     1       5.886   6.268   0.290  0.00  0.00    +0.192 C 
ATOM      6  O   UNL     1       7.057   5.548  -0.136  0.00  0.00    -0.368 OA
ATOM      7  C   UNL     1       8.117   6.504  -0.293  0.00  0.00    +0.185 C 
ATOM      8  C   UNL     1       7.467   7.865  -0.600  0.00  0.00    +0.130 C 
ENDROOT
BRANCH   8   9
ATOM      9  N   UNL     1       7.853   8.855   0.409  0.00  0.00    -0.301 N 
ATOM     10  C   UNL     1       8.994   9.557   0.263  0.00  0.00    +0.280 C 
ATOM     11  O   UNL     1       9.704   9.368  -0.707  0.00  0.00    -0.267 OA
ATOM     12  H   UNL     1       7.286   9.005   1.183  0.00  0.00    +0.150 HD
BRANCH  10  13
ATOM     13  C   UNL     1       9.380  10.547   1.274  0.00  0.00    +0.189 A 
ATOM     14  C   UNL     1      10.506  11.319   1.252  0.00  0.00    +0.054 A 
ATOM     15  C   UNL     1      10.470  12.119   2.404  0.00  0.00    +0.042 A 
ATOM     16  C   UNL     1       9.341  11.799   3.075  0.00  0.00    +0.196 A 
ATOM     17  O   UNL     1       8.687  10.852   2.391  0.00  0.00    -0.458 OA
ENDBRANCH  10  13
ENDBRANCH   8   9
BRANCH   1  18
ATOM     18  O   UNL     1       4.726   4.148  -0.225  0.00  0.00    -0.442 OA
BRANCH  18  20
ATOM     19  N   UNL     1       3.584   2.124  -0.021  0.00  0.00    -0.251 N 
ATOM     20  C   UNL     1       3.569   3.468  -0.116  0.00  0.00    +0.405 C 
ATOM     21  O   UNL     1       2.511   4.066  -0.103  0.00  0.00    -0.226 OA
ATOM     22  H   UNL     1       4.429   1.652   0.046  0.00  0.00    +0.158 HD
BRANCH  19  26
ATOM     23  C   UNL     1       0.003  -0.005  -0.016  0.00  0.00    -0.045 A 
ATOM     24  C   UNL     1       1.080  -0.465   0.719  0.00  0.00    +0.006 A 
ATOM     25  C   UNL     1       2.268   0.238   0.719  0.00  0.00    +0.024 A 
ATOM     26  C   UNL     1       2.381   1.409  -0.020  0.00  0.00    +0.036 A 
ATOM     27  C   UNL     1       1.298   1.868  -0.757  0.00  0.00    +0.024 A 
ATOM     28  C   UNL     1       0.112   1.160  -0.753  0.00  0.00    +0.006 A 
BRANCH  23  30
ATOM     29  C   UNL     1      -2.413   0.114   0.530  0.00  0.00    +0.012 C 
ATOM     30  C   UNL     1      -1.293  -0.775  -0.014  0.00  0.00    +0.013 C 
ATOM     31  C   UNL     1      -1.632  -1.206  -1.442  0.00  0.00    +0.012 C 
ENDBRANCH  23  30
ENDBRANCH  19  26
ENDBRANCH  18  20
ENDBRANCH   1  18
TORSDOF 6
