REMARK  Name = ZINC00999611
REMARK  5 active torsions:
REMARK  status: ('A' for Active; 'I' for Inactive)
REMARK    1  A    between atoms: C_1  and  C_2
REMARK    2  A    between atoms: C_6  and  C_33
REMARK    3  A    between atoms: C_10  and  C_12
REMARK    4  A    between atoms: C_17  and  C_29
REMARK    5  A    between atoms: C_20  and  C_23
REMARK                            x       y       z     vdW  Elec       q    Type
REMARK                         _______ _______ _______ _____ _____    ______ ____
ROOT
ATOM      1  C   UNL     1       2.107   0.842  -0.833  0.00  0.00    +0.149 A 
ATOM      2  C   UNL     1       1.303  -0.287  -1.105  0.00  0.00    +0.078 A 
ATOM      3  C   UNL     1       0.046   0.149  -1.317  0.00  0.00    +0.119 A 
ATOM      4  N   UNL     1       0.040   1.509  -1.184  0.00  0.00    -0.238 N 
ATOM      5  N   UNL     1       1.339   1.916  -0.883  0.00  0.00    -0.164 NA
ATOM      6  C   UNL     1      -1.161   2.335  -1.338  0.00  0.00    +0.215 C 
ATOM      7  C   UNL     1      -2.399   1.447  -1.186  0.00  0.00    +0.063 C 
ATOM      8  C   UNL     1      -2.269   0.209  -2.079  0.00  0.00    +0.104 C 
ATOM      9  N   UNL     1      -1.107  -0.579  -1.625  0.00  0.00    -0.322 N 
ATOM     10  H   UNL     1      -1.141  -1.545  -1.544  0.00  0.00    +0.148 HD
ENDROOT
BRANCH   1  18
ATOM     11  C   UNL     1       3.536   5.550  -1.495  0.00  0.00    +0.009 C 
ATOM     12  C   UNL     1       4.171   4.158  -1.531  0.00  0.00    +0.003 C 
ATOM     13  C   UNL     1       5.671   4.274  -1.254  0.00  0.00    +0.006 C 
ATOM     14  C   UNL     1       6.313   2.887  -1.323  0.00  0.00    +0.022 C 
ATOM     15  C   UNL     1       5.691   1.986  -0.251  0.00  0.00    +0.073 C 
ATOM     16  N   UNL     1       4.232   1.985  -0.423  0.00  0.00    -0.293 N 
ATOM     17  C   UNL     1       3.525   3.273  -0.467  0.00  0.00    +0.111 C 
ATOM     18  C   UNL     1       3.556   0.826  -0.543  0.00  0.00    +0.267 C 
ATOM     19  O   UNL     1       4.137  -0.234  -0.412  0.00  0.00    -0.268 OA
ATOM     20  C   UNL     1       6.227   0.561  -0.404  0.00  0.00    +0.028 C 
ENDBRANCH   1  18
BRANCH   8  21
ATOM     21  C   UNL     1      -3.519  -0.626  -1.973  0.00  0.00    -0.027 A 
ATOM     22  C   UNL     1      -3.703  -1.459  -0.885  0.00  0.00    +0.005 A 
ATOM     23  C   UNL     1      -4.852  -2.221  -0.785  0.00  0.00    +0.000 A 
ATOM     24  C   UNL     1      -5.813  -2.157  -1.777  0.00  0.00    +0.000 A 
ATOM     25  C   UNL     1      -5.626  -1.328  -2.867  0.00  0.00    +0.000 A 
ATOM     26  C   UNL     1      -4.480  -0.562  -2.965  0.00  0.00    +0.005 A 
ENDBRANCH   8  21
BRANCH   6  27
ATOM     27  C   UNL     1      -1.172   3.427  -0.267  0.00  0.00    +0.412 C 
ATOM     28  F   UNL     1      -0.034   4.229  -0.406  0.00  0.00    -0.168 F 
ATOM     29  F   UNL     1      -2.319   4.215  -0.415  0.00  0.00    -0.168 F 
ATOM     30  F   UNL     1      -1.174   2.836   1.002  0.00  0.00    -0.168 F 
ENDBRANCH   6  27
TORSDOF 3
