REMARK  Name = ZINC09319492
REMARK  3 active torsions:
REMARK  status: ('A' for Active; 'I' for Inactive)
REMARK    1  A    between atoms: C_1  and  C_2
REMARK    2  A    between atoms: C_10  and  C_11
REMARK    3  A    between atoms: N_17  and  C_18
REMARK                            x       y       z     vdW  Elec       q    Type
REMARK                         _______ _______ _______ _____ _____    ______ ____
ROOT
ATOM      1  C   UNL     1       0.001  -0.004  -0.022  0.00  0.00    +0.202 A 
ATOM      2  N   UNL     1       1.164  -0.654  -0.028  0.00  0.00    -0.192 NA
ATOM      3  C   UNL     1       1.181  -1.983  -0.012  0.00  0.00    +0.218 A 
ATOM      4  N   UNL     1       0.038  -2.663  -0.002  0.00  0.00    -0.181 NA
ATOM      5  C   UNL     1      -1.122  -2.015  -0.001  0.00  0.00    +0.224 A 
ATOM      6  N   UNL     1      -1.143  -0.686  -0.012  0.00  0.00    -0.191 NA
ATOM      7  N   UNL     1      -2.309  -2.723   0.009  0.00  0.00    -0.282 N 
ATOM      8  N   UNL     1       2.385  -2.658  -0.013  0.00  0.00    -0.327 N 
ATOM      9  H   UNL     1      -3.266  -2.191   0.107  0.00  0.00    +0.155 HD
ATOM     10  H   UNL     1       2.399  -3.757   0.000  0.00  0.00    +0.145 HD
ATOM     11  H   UNL     1       3.330  -2.095  -0.026  0.00  0.00    +0.145 HD
ENDROOT
BRANCH   1  21
ATOM     12  C   UNL     1       2.519   1.822  -0.046  0.00  0.00    +0.048 C 
ATOM     13  C   UNL     1       1.079   2.267  -0.045  0.00  0.00    +0.006 A 
ATOM     14  C   UNL     1       0.583   3.644  -0.054  0.00  0.00    +0.024 A 
ATOM     15  C   UNL     1       1.194   4.899  -0.067  0.00  0.00    +0.012 A 
ATOM     16  C   UNL     1       0.424   6.028  -0.073  0.00  0.00    +0.001 A 
ATOM     17  C   UNL     1      -0.961   5.934  -0.066  0.00  0.00    +0.004 A 
ATOM     18  C   UNL     1      -1.583   4.705  -0.053  0.00  0.00    +0.047 A 
ATOM     19  C   UNL     1      -0.820   3.543  -0.047  0.00  0.00    +0.136 A 
ATOM     20  O   UNL     1      -1.133   2.232  -0.041  0.00  0.00    -0.451 OA
ATOM     21  C   UNL     1      -0.019   1.472  -0.034  0.00  0.00    +0.176 A 
ENDBRANCH   1  21
BRANCH   7  22
ATOM     22  C   UNL     1      -2.292  -4.118  -0.104  0.00  0.00    +0.053 A 
ATOM     23  C   UNL     1      -1.223  -4.753  -0.723  0.00  0.00    +0.025 A 
ATOM     24  C   UNL     1      -1.209  -6.129  -0.834  0.00  0.00    +0.003 A 
ATOM     25  C   UNL     1      -2.256  -6.877  -0.328  0.00  0.00    +0.021 A 
ATOM     26  C   UNL     1      -3.323  -6.249   0.290  0.00  0.00    +0.061 A 
ATOM     27  C   UNL     1      -3.341  -4.870   0.409  0.00  0.00    +0.080 A 
ATOM     28 CL   UNL     1      -4.676  -4.082   1.190  0.00  0.00    -0.080 Cl
ATOM     29 CL   UNL     1      -4.636  -7.191   0.924  0.00  0.00    -0.082 Cl
ENDBRANCH   7  22
TORSDOF 2
