REMARK  Name = ZINC12321500
REMARK  8 active torsions:
REMARK  status: ('A' for Active; 'I' for Inactive)
REMARK    1  A    between atoms: C_1  and  O_2
REMARK    2  A    between atoms: O_2  and  C_3
REMARK    3  A    between atoms: C_5  and  C_13
REMARK    4  A    between atoms: C_6  and  O_11
REMARK    5  A    between atoms: C_8  and  O_9
REMARK    6  A    between atoms: O_9  and  C_10
REMARK    7  A    between atoms: O_11  and  C_12
REMARK    8  A    between atoms: C_18  and  C_23
REMARK                            x       y       z     vdW  Elec       q    Type
REMARK                         _______ _______ _______ _____ _____    ______ ____
ROOT
ATOM      1  C   UNL     1       2.490   1.045  -0.016  0.00  0.00    +0.141 C 
ATOM      2  C   UNL     1       2.952   0.930  -1.454  0.00  0.00    +0.037 C 
ATOM      3  C   UNL     1       3.003  -0.137  -2.264  0.00  0.00    +0.019 C 
ATOM      4  C   UNL     1       3.459  -0.001  -3.708  0.00  0.00    +0.060 C 
ATOM      5  C   UNL     1       4.552   1.062  -3.808  0.00  0.00    +0.039 C 
ATOM      6  C   UNL     1       3.942   2.385  -3.328  0.00  0.00    +0.088 C 
ATOM      7  C   UNL     1       3.389   2.190  -1.952  0.00  0.00    +0.163 C 
ATOM      8  O   UNL     1       3.308   3.158  -1.222  0.00  0.00    -0.292 OA
ATOM      9  N   UNL     1       2.680  -1.413  -1.908  0.00  0.00    -0.297 N 
ATOM     10  C   UNL     1       1.560  -1.718  -1.147  0.00  0.00    +0.208 A 
ATOM     11  C   UNL     1       1.412  -1.152   0.186  0.00  0.00    +0.205 A 
ATOM     12  N   UNL     1       0.333  -1.627   0.724  0.00  0.00    -0.032 NA
ATOM     13  O   UNL     1      -0.279  -2.478  -0.237  0.00  0.00    -0.239 OA
ATOM     14  N   UNL     1       0.541  -2.474  -1.398  0.00  0.00    -0.032 NA
ATOM     15  N   UNL     1       2.314  -0.214   0.685  0.00  0.00    -0.312 N 
ATOM     16  H   UNL     1       3.256  -2.138  -2.199  0.00  0.00    +0.153 HD
ATOM     17  H   UNL     1       2.820  -0.401   1.492  0.00  0.00    +0.149 HD
ENDROOT
BRANCH   1  20
ATOM     18  C   UNL     1      -0.767   2.589  -1.151  0.00  0.00    +0.162 A 
ATOM     19  C   UNL     1       0.439   1.907  -1.163  0.00  0.00    +0.058 A 
ATOM     20  C   UNL     1       1.175   1.783   0.000  0.00  0.00    +0.023 A 
ATOM     21  C   UNL     1       0.706   2.336   1.183  0.00  0.00    +0.129 A 
ATOM     22  C   UNL     1      -0.503   3.014   1.200  0.00  0.00    +0.095 A 
ATOM     23  C   UNL     1      -1.242   3.139   0.035  0.00  0.00    +0.165 A 
BRANCH  18  25
ATOM     24  C   UNL     1      -0.943   2.121  -3.477  0.00  0.00    +0.277 C 
ATOM     25  O   UNL     1      -1.488   2.716  -2.298  0.00  0.00    -0.491 OA
ENDBRANCH  18  25
BRANCH  23  26
ATOM     26  O   UNL     1      -2.428   3.805   0.050  0.00  0.00    -0.491 OA
ATOM     27  C   UNL     1      -2.852   4.349   1.301  0.00  0.00    +0.277 C 
ENDBRANCH  23  26
BRANCH  21  28
ATOM     28  O   UNL     1       1.432   2.212   2.326  0.00  0.00    -0.495 OA
ATOM     29  C   UNL     1       0.889   2.805   3.507  0.00  0.00    +0.277 C 
ENDBRANCH  21  28
ENDBRANCH   1  20
BRANCH   5  30
ATOM     30  C   UNL     1       5.007   1.197  -5.239  0.00  0.00    -0.006 A 
ATOM     31  C   UNL     1       6.243   1.008  -5.763  0.00  0.00    +0.011 A 
ATOM     32  C   UNL     1       6.430   1.190  -7.120  0.00  0.00    +0.008 A 
ATOM     33  C   UNL     1       5.373   1.552  -7.887  0.00  0.00    +0.045 A 
ATOM     34  S   UNL     1       4.057   1.641  -6.684  0.00  0.00    -0.101 S 
ENDBRANCH   5  30
TORSDOF 5
