REMARK  Name = ZINC45541460
REMARK  12 active torsions:
REMARK  status: ('A' for Active; 'I' for Inactive)
REMARK    1  A    between atoms: C_1  and  C_2
REMARK    2  A    between atoms: C_2  and  C_3
REMARK    3  A    between atoms: C_2  and  C_4
REMARK    4  A    between atoms: N_6  and  C_7
REMARK    5  A    between atoms: C_11  and  C_13
REMARK    6  A    between atoms: C_13  and  N_14
REMARK    7  A    between atoms: N_17  and  C_18
REMARK    8  A    between atoms: C_18  and  C_19
REMARK    9  A    between atoms: C_19  and  C_21
REMARK   10  A    between atoms: C_19  and  N_26
REMARK   11  A    between atoms: N_26  and  C_27
REMARK   12  A    between atoms: N_26  and  C_28
REMARK                            x       y       z     vdW  Elec       q    Type
REMARK                         _______ _______ _______ _____ _____    ______ ____
ROOT
ATOM      1  N   UNL     1       1.616   0.823   7.785  0.00  0.00    -0.295 N 
ATOM      2  C   UNL     1       1.277   1.318   8.992  0.00  0.00    +0.300 C 
ATOM      3  O   UNL     1       0.549   0.680   9.728  0.00  0.00    -0.253 OA
ATOM      4  N   UNL     1       1.745   2.520   9.383  0.00  0.00    -0.301 N 
ATOM      5  H   UNL     1       2.197   1.332   7.198  0.00  0.00    +0.151 HD
ATOM      6  H   UNL     1       2.326   3.029   8.796  0.00  0.00    +0.150 HD
ENDROOT
BRANCH   1   7
ATOM      7  C   UNL     1       1.107  -0.483   7.360  0.00  0.00    +0.141 C 
BRANCH   7  12
ATOM      8  C   UNL     1       1.395  -0.712   3.598  0.00  0.00    +0.034 A 
ATOM      9  C   UNL     1       2.598  -1.393   3.457  0.00  0.00    +0.023 A 
ATOM     10  C   UNL     1       3.310  -1.774   4.576  0.00  0.00    +0.002 A 
ATOM     11  C   UNL     1       2.827  -1.479   5.838  0.00  0.00    +0.005 A 
ATOM     12  C   UNL     1       1.630  -0.802   5.983  0.00  0.00    -0.029 A 
ATOM     13  C   UNL     1       0.916  -0.412   4.867  0.00  0.00    +0.028 A 
BRANCH   8  16
ATOM     14  C   UNL     1      -0.010   0.839   2.466  0.00  0.00    +0.220 C 
ATOM     15  O   UNL     1      -0.054   1.515   3.472  0.00  0.00    -0.275 OA
ATOM     16  N   UNL     1       0.671  -0.324   2.466  0.00  0.00    -0.285 N 
ATOM     17  H   UNL     1       0.660  -0.892   1.679  0.00  0.00    +0.155 HD
BRANCH  14  19
ATOM     18  C   UNL     1      -1.763   0.258   0.811  0.00  0.00    +0.017 C 
ATOM     19  C   UNL     1      -0.717   1.299   1.218  0.00  0.00    +0.069 C 
ATOM     20  C   UNL     1      -1.408   2.638   1.487  0.00  0.00    +0.017 C 
ENDBRANCH  14  19
ENDBRANCH   8  16
ENDBRANCH   7  12
ENDBRANCH   1   7
BRANCH   4  21
ATOM     21  C   UNL     1       1.377   3.058  10.695  0.00  0.00    +0.095 C 
BRANCH  21  22
ATOM     22  C   UNL     1       1.931   4.477  10.838  0.00  0.00    -0.020 C 
BRANCH  22  23
ATOM     23  C   UNL     1       1.310   5.367   9.793  0.00  0.00    -0.052 A 
ATOM     24  C   UNL     1       1.997   5.673   8.634  0.00  0.00    +0.009 A 
ATOM     25  C   UNL     1       1.409   6.476   7.714  0.00  0.00    +0.045 A 
ATOM     26  S   UNL     1      -0.164   6.828   8.481  0.00  0.00    -0.105 S 
ATOM     27  C   UNL     1       0.066   5.875   9.974  0.00  0.00    +0.047 A 
ENDBRANCH  22  23
BRANCH  22  28
ATOM     28  N   UNL     1       1.612   4.995  12.176  0.00  0.00    +0.382 N 
ATOM     29  C   UNL     1       2.300   4.187  13.191  0.00  0.00    -0.096 C 
ATOM     30  C   UNL     1       2.054   6.392  12.278  0.00  0.00    -0.096 C 
ATOM     31  H   UNL     1       0.615   4.946  12.326  0.00  0.00    -0.082 HD
ENDBRANCH  22  28
ENDBRANCH  21  22
ENDBRANCH   4  21
TORSDOF 8
