REMARK  Name = ZINC50417253
REMARK  6 active torsions:
REMARK  status: ('A' for Active; 'I' for Inactive)
REMARK    1  A    between atoms: C_1  and  C_2
REMARK    2  A    between atoms: C_2  and  C_4
REMARK    3  A    between atoms: C_2  and  N_10
REMARK    4  A    between atoms: N_8  and  C_9
REMARK    5  A    between atoms: N_10  and  C_11
REMARK    6  A    between atoms: C_16  and  N_17
REMARK                            x       y       z     vdW  Elec       q    Type
REMARK                         _______ _______ _______ _____ _____    ______ ____
ROOT
ATOM      1  C   UNL     1      -2.074  -0.647  -1.184  0.00  0.00    +0.051 A 
ATOM      2  C   UNL     1      -1.465  -0.307  -2.378  0.00  0.00    +0.053 A 
ATOM      3  C   UNL     1      -2.166  -0.443  -3.576  0.00  0.00    +0.080 A 
ATOM      4  C   UNL     1      -3.494  -0.928  -3.555  0.00  0.00    +0.067 A 
ATOM      5  C   UNL     1      -4.098  -1.269  -2.344  0.00  0.00    +0.040 A 
ATOM      6  C   UNL     1      -3.389  -1.133  -1.167  0.00  0.00    +0.047 A 
ATOM      7  C   UNL     1      -4.201  -1.058  -4.835  0.00  0.00    +0.259 A 
ATOM      8  O   UNL     1      -5.346  -1.469  -4.886  0.00  0.00    -0.267 OA
ATOM      9  N   UNL     1      -3.531  -0.703  -5.956  0.00  0.00    -0.313 N 
ATOM     10  H   UNL     1      -3.968  -0.776  -6.819  0.00  0.00    +0.170 HD
ATOM     11  C   UNL     1      -2.254  -0.245  -5.884  0.00  0.00    +0.199 A 
ATOM     12  N   UNL     1      -1.603  -0.119  -4.768  0.00  0.00    -0.237 NA
ENDROOT
BRANCH   6  13
ATOM     13  N   UNL     1      -3.988  -1.478   0.051  0.00  0.00    -0.357 N 
ATOM     14  H   UNL     1      -3.494  -1.381   0.879  0.00  0.00    +0.142 HD
ATOM     15  H   UNL     1      -4.898  -1.815   0.065  0.00  0.00    +0.142 HD
ENDBRANCH   6  13
BRANCH   1  16
ATOM     16  N   UNL     1      -1.372  -0.511   0.012  0.00  0.00    -0.333 N 
ATOM     17  H   UNL     1      -1.794  -0.752   0.852  0.00  0.00    +0.147 HD
BRANCH  16  19
ATOM     18  C   UNL     1      -0.019   1.526   0.010  0.00  0.00    +0.036 C 
ATOM     19  C   UNL     1       0.002  -0.004   0.002  0.00  0.00    +0.135 C 
BRANCH  19  20
ATOM     20  C   UNL     1       0.731  -0.503   1.223  0.00  0.00    +0.153 A 
ATOM     21  N   UNL     1       0.271  -0.523   2.444  0.00  0.00    -0.133 NA
ATOM     22  N   UNL     1       1.159  -1.015   3.233  0.00  0.00    -0.138 NA
ATOM     23  C   UNL     1       2.226  -1.331   2.551  0.00  0.00    +0.224 A 
ATOM     24  N   UNL     1       1.983  -1.020   1.255  0.00  0.00    -0.319 N 
ATOM     25  C   UNL     1       2.890  -1.204   0.120  0.00  0.00    +0.151 C 
ENDBRANCH  19  20
ENDBRANCH  16  19
ENDBRANCH   1  16
TORSDOF 4
