REMARK  Name = ZINC14160930
REMARK  2 active torsions:
REMARK  status: ('A' for Active; 'I' for Inactive)
REMARK    1  A    between atoms: C_9  and  C_12
REMARK    2  A    between atoms: C_15  and  C_17
REMARK                            x       y       z     vdW  Elec       q    Type
REMARK                         _______ _______ _______ _____ _____    ______ ____
ROOT
ATOM      1  C   UNL     1      -1.235   3.193  -0.339  0.00  0.00    +0.002 A 
ATOM      2  C   UNL     1      -1.244   1.812  -0.274  0.00  0.00    +0.004 A 
ATOM      3  C   UNL     1      -0.065   1.114  -0.087  0.00  0.00    +0.047 A 
ATOM      4  C   UNL     1       1.136   1.798   0.026  0.00  0.00    +0.143 A 
ATOM      5  C   UNL     1       1.143   3.189  -0.043  0.00  0.00    +0.079 A 
ATOM      6  C   UNL     1      -0.042   3.883  -0.227  0.00  0.00    +0.027 A 
ATOM      7  N   UNL     1       2.357   3.886   0.076  0.00  0.00    -0.260 N 
ATOM      8  C   UNL     1       3.605   3.113  -0.039  0.00  0.00    +0.168 C 
ATOM      9  C   UNL     1       3.414   1.805   0.742  0.00  0.00    +0.276 C 
ATOM     10  O   UNL     1       2.291   1.105   0.200  0.00  0.00    -0.476 OA
ATOM     11  C   UNL     1       2.378   5.217   0.288  0.00  0.00    +0.258 C 
ATOM     12  O   UNL     1       1.334   5.833   0.399  0.00  0.00    -0.269 OA
ENDROOT
BRANCH  11  13
ATOM     13  C   UNL     1       3.659   5.923   0.386  0.00  0.00    +0.075 A 
ATOM     14  C   UNL     1       3.907   7.233   0.753  0.00  0.00    +0.024 A 
ATOM     15  C   UNL     1       5.221   7.670   0.768  0.00  0.00    -0.036 A 
ATOM     16  C   UNL     1       6.176   6.760   0.415  0.00  0.00    -0.006 A 
ATOM     17  S   UNL     1       5.306   5.314   0.071  0.00  0.00    -0.088 S 
ATOM     18  C   UNL     1       7.656   6.983   0.352  0.00  0.00    +0.043 C 
ATOM     19  C   UNL     1       7.920   8.495   0.385  0.00  0.00    +0.005 C 
ATOM     20  C   UNL     1       7.099   9.114   1.519  0.00  0.00    +0.005 C 
ATOM     21  C   UNL     1       5.613   9.094   1.158  0.00  0.00    +0.036 C 
ENDBRANCH  11  13
BRANCH   9  22
ATOM     22  C   UNL     1       4.650   0.953   0.615  0.00  0.00    +0.253 C 
ATOM     23  O   UNL     1       4.598  -0.108   0.030  0.00  0.00    -0.272 OA
ATOM     24  N   UNL     1       5.814   1.369   1.152  0.00  0.00    -0.326 N 
ATOM     25  H   UNL     1       5.855   2.218   1.620  0.00  0.00    +0.145 HD
ATOM     26  H   UNL     1       6.609   0.821   1.071  0.00  0.00    +0.145 HD
ENDBRANCH   9  22
TORSDOF 2
