REMARK  Name = ZINC34792950
REMARK  8 active torsions:
REMARK  status: ('A' for Active; 'I' for Inactive)
REMARK    1  A    between atoms: C_1  and  C_2
REMARK    2  A    between atoms: C_5  and  N_9
REMARK    3  A    between atoms: C_7  and  C_8
REMARK    4  A    between atoms: C_10  and  C_12
REMARK    5  A    between atoms: C_12  and  C_14
REMARK    6  A    between atoms: C_12  and  N_15
REMARK    7  A    between atoms: C_21  and  C_28
REMARK    8  A    between atoms: N_26  and  C_27
REMARK                            x       y       z     vdW  Elec       q    Type
REMARK                         _______ _______ _______ _____ _____    ______ ____
ROOT
ATOM      1  N   UNL     1      -0.163  -6.832  -2.598  0.00  0.00    -0.281 N 
ATOM      2  C   UNL     1       0.753  -7.752  -3.288  0.00  0.00    +0.160 C 
ATOM      3  C   UNL     1       0.165  -7.922  -4.670  0.00  0.00    +0.042 C 
ATOM      4  C   UNL     1      -0.950  -7.165  -4.704  0.00  0.00    +0.058 C 
ATOM      5  C   UNL     1      -1.144  -6.521  -3.465  0.00  0.00    +0.247 C 
ATOM      6  O   UNL     1      -2.076  -5.780  -3.212  0.00  0.00    -0.270 OA
ATOM      7  C   UNL     1      -1.751  -7.147  -5.990  0.00  0.00    +0.143 C 
ATOM      8  N   UNL     1      -1.241  -7.963  -7.105  0.00  0.00    -0.288 N 
ATOM      9  C   UNL     1      -0.107  -8.668  -6.918  0.00  0.00    +0.307 C 
ATOM     10  O   UNL     1       0.322  -9.345  -7.832  0.00  0.00    -0.252 OA
ATOM     11  N   UNL     1       0.561  -8.647  -5.758  0.00  0.00    -0.260 N 
ATOM     12  C   UNL     1       1.784  -9.446  -5.649  0.00  0.00    +0.139 C 
ATOM     13  H   UNL     1      -1.709  -7.993  -7.954  0.00  0.00    +0.151 HD
ENDROOT
BRANCH   7  14
ATOM     14  C   UNL     1      -1.839  -5.719  -6.463  0.00  0.00    -0.004 A 
ATOM     15  C   UNL     1      -0.946  -4.777  -5.987  0.00  0.00    +0.007 A 
ATOM     16  C   UNL     1      -1.026  -3.467  -6.421  0.00  0.00    +0.000 A 
ATOM     17  C   UNL     1      -1.999  -3.098  -7.331  0.00  0.00    +0.001 A 
ATOM     18  C   UNL     1      -2.892  -4.038  -7.808  0.00  0.00    +0.020 A 
ATOM     19  C   UNL     1      -2.809  -5.351  -7.378  0.00  0.00    +0.046 A 
ATOM     20 CL   UNL     1      -3.926  -6.535  -7.981  0.00  0.00    -0.083 Cl
ENDBRANCH   7  14
BRANCH   1  21
ATOM     21  C   UNL     1      -0.035  -6.348  -1.221  0.00  0.00    +0.160 C 
ATOM     22  C   UNL     1      -1.264  -6.773  -0.414  0.00  0.00    +0.038 C 
BRANCH  21  24
ATOM     23  N   UNL     1       0.195  -4.175  -0.061  0.00  0.00    -0.284 N 
ATOM     24  C   UNL     1       0.069  -4.844  -1.224  0.00  0.00    +0.237 C 
ATOM     25  O   UNL     1       0.038  -4.237  -2.274  0.00  0.00    -0.273 OA
ATOM     26  H   UNL     1       0.281  -4.663   0.772  0.00  0.00    +0.155 HD
BRANCH  23  31
ATOM     27  C   UNL     1       0.221   1.498  -0.044  0.00  0.00    +0.044 C 
ATOM     28  C   UNL     1       0.214  -0.009  -0.049  0.00  0.00    -0.047 A 
ATOM     29  C   UNL     1       0.795  -0.698  -1.097  0.00  0.00    +0.005 A 
ATOM     30  C   UNL     1       0.790  -2.079  -1.105  0.00  0.00    +0.023 A 
ATOM     31  C   UNL     1       0.202  -2.776  -0.057  0.00  0.00    +0.034 A 
ATOM     32  C   UNL     1      -0.380  -2.080   0.995  0.00  0.00    +0.027 A 
ATOM     33  C   UNL     1      -0.368  -0.699   0.998  0.00  0.00    -0.046 A 
ATOM     34  C   UNL     1      -0.994   0.056   2.142  0.00  0.00    +0.044 C 
ENDBRANCH  23  31
ENDBRANCH  21  24
ENDBRANCH   1  21
TORSDOF 4
