REMARK  Name = ZINC44859344
REMARK  7 active torsions:
REMARK  status: ('A' for Active; 'I' for Inactive)
REMARK    1  A    between atoms: C_1  and  C_2
REMARK    2  A    between atoms: C_7  and  N_8
REMARK    3  A    between atoms: C_9  and  C_11
REMARK    4  A    between atoms: C_19  and  C_21
REMARK    5  A    between atoms: C_24  and  C_27
REMARK    6  A    between atoms: C_33  and  C_35
REMARK    7  A    between atoms: C_33  and  C_36
REMARK                            x       y       z     vdW  Elec       q    Type
REMARK                         _______ _______ _______ _____ _____    ______ ____
ROOT
ATOM      1  C   UNL     1      -0.165   0.033   4.849  0.00  0.00    +0.096 A 
ATOM      2  C   UNL     1      -0.202   1.440   5.017  0.00  0.00    +0.149 A 
ATOM      3  N   UNL     1      -0.302   1.697   6.294  0.00  0.00    -0.176 NA
ATOM      4  N   UNL     1      -0.330   0.497   7.001  0.00  0.00    -0.238 N 
ATOM      5  C   UNL     1      -0.256  -0.522   6.110  0.00  0.00    +0.134 A 
ATOM      6  N   UNL     1      -0.278  -1.844   6.506  0.00  0.00    -0.302 N 
ATOM      7  C   UNL     1      -0.675  -2.126   7.791  0.00  0.00    +0.019 C 
ATOM      8  C   UNL     1      -0.772  -1.162   8.731  0.00  0.00    +0.041 C 
ATOM      9  C   UNL     1      -0.423   0.283   8.443  0.00  0.00    +0.174 C 
ATOM     10  C   UNL     1      -1.202  -1.469  10.036  0.00  0.00    +0.164 C 
ATOM     11  O   UNL     1      -1.270  -0.581  10.862  0.00  0.00    -0.292 OA
ATOM     12  C   UNL     1      -1.578  -2.870  10.429  0.00  0.00    +0.086 C 
ATOM     13  C   UNL     1      -2.086  -3.616   9.191  0.00  0.00    -0.023 C 
ATOM     14  C   UNL     1      -0.998  -3.565   8.117  0.00  0.00    +0.058 C 
ATOM     15  C   UNL     1      -3.357  -2.944   8.669  0.00  0.00    +0.011 C 
ATOM     16  C   UNL     1      -2.384  -5.073   9.554  0.00  0.00    +0.011 C 
ATOM     17  H   UNL     1      -0.021  -2.553   5.895  0.00  0.00    +0.153 HD
ENDROOT
BRANCH   9  18
ATOM     18  C   UNL     1       0.894   0.632   9.086  0.00  0.00    -0.018 A 
ATOM     19  C   UNL     1       2.043  -0.043   8.713  0.00  0.00    +0.007 A 
ATOM     20  C   UNL     1       3.252   0.271   9.298  0.00  0.00    +0.015 A 
ATOM     21  C   UNL     1       3.314   1.274  10.269  0.00  0.00    +0.063 A 
ATOM     22  C   UNL     1       2.150   1.952  10.640  0.00  0.00    +0.015 A 
ATOM     23  C   UNL     1       0.949   1.631  10.043  0.00  0.00    +0.007 A 
BRANCH  21  24
ATOM     24  C   UNL     1       4.604   1.615  10.900  0.00  0.00    +0.387 C 
ATOM     25  O   UNL     1       5.621   1.020  10.573  0.00  0.00    -0.241 OA
ATOM     26  O   UNL     1       4.655   2.494  11.749  0.00  0.00    -0.241 OA
ENDBRANCH  21  24
ENDBRANCH   9  18
BRANCH   1  28
ATOM     27  N   UNL     1       0.025  -0.015   2.417  0.00  0.00    -0.281 N 
ATOM     28  C   UNL     1      -0.056  -0.695   3.578  0.00  0.00    +0.253 C 
ATOM     29  O   UNL     1      -0.040  -1.911   3.573  0.00  0.00    -0.270 OA
ATOM     30  H   UNL     1       0.078   0.954   2.424  0.00  0.00    +0.155 HD
BRANCH  27  37
ATOM     31  C   UNL     1      -1.266   1.183   0.182  0.00  0.00    +0.045 C 
ATOM     32  C   UNL     1      -0.585  -0.158   0.085  0.00  0.00    -0.029 A 
ATOM     33  C   UNL     1      -0.570  -0.841  -1.116  0.00  0.00    +0.005 A 
ATOM     34  C   UNL     1       0.055  -2.071  -1.206  0.00  0.00    +0.000 A 
ATOM     35  C   UNL     1       0.666  -2.622  -0.095  0.00  0.00    +0.002 A 
ATOM     36  C   UNL     1       0.655  -1.945   1.108  0.00  0.00    +0.023 A 
ATOM     37  C   UNL     1       0.033  -0.706   1.201  0.00  0.00    +0.037 A 
ENDBRANCH  27  37
ENDBRANCH   1  28
TORSDOF 4
