REMARK  Name = ZINC37027214
REMARK  4 active torsions:
REMARK  status: ('A' for Active; 'I' for Inactive)
REMARK    1  A    between atoms: C_1  and  C_2
REMARK    2  A    between atoms: C_2  and  C_3
REMARK    3  A    between atoms: C_9  and  N_11
REMARK    4  A    between atoms: C_12  and  C_14
REMARK                            x       y       z     vdW  Elec       q    Type
REMARK                         _______ _______ _______ _____ _____    ______ ____
ROOT
ATOM      1  N   UNL     1      -0.673  -2.638   1.000  0.00  0.00    -0.308 N 
ATOM      2  C   UNL     1      -0.090  -3.846   0.869  0.00  0.00    +0.244 C 
ATOM      3  O   UNL     1      -0.182  -4.455  -0.179  0.00  0.00    -0.270 OA
ATOM      4  H   UNL     1      -0.600  -2.152   1.837  0.00  0.00    +0.149 HD
ENDROOT
BRANCH   2   5
ATOM      5  C   UNL     1       0.658  -4.431   1.998  0.00  0.00    +0.037 A 
ATOM      6  C   UNL     1       0.759  -3.735   3.207  0.00  0.00    +0.015 A 
ATOM      7  C   UNL     1       1.460  -4.285   4.255  0.00  0.00    +0.024 A 
ATOM      8  C   UNL     1       2.066  -5.533   4.116  0.00  0.00    +0.030 A 
ATOM      9  C   UNL     1       1.966  -6.230   2.918  0.00  0.00    -0.026 A 
ATOM     10  C   UNL     1       1.262  -5.683   1.865  0.00  0.00    +0.018 A 
ATOM     11  C   UNL     1       2.601  -7.584   2.741  0.00  0.00    +0.038 C 
ATOM     12  C   UNL     1       3.708  -7.794   3.773  0.00  0.00    +0.023 C 
ATOM     13  C   UNL     1       3.151  -7.482   5.168  0.00  0.00    +0.102 C 
ATOM     14  N   UNL     1       2.773  -6.063   5.193  0.00  0.00    -0.344 N 
ATOM     15  H   UNL     1       3.012  -5.503   5.948  0.00  0.00    +0.146 HD
ENDBRANCH   2   5
BRANCH   1  21
ATOM     16  C   UNL     1      -1.433  -0.534   0.013  0.00  0.00    +0.009 C 
ATOM     17  C   UNL     1      -2.110  -0.145   1.329  0.00  0.00    +0.005 C 
ATOM     18  C   UNL     1      -3.546  -0.675   1.340  0.00  0.00    +0.000 C 
ATOM     19  C   UNL     1      -3.528  -2.199   1.206  0.00  0.00    +0.002 C 
ATOM     20  C   UNL     1      -2.851  -2.587  -0.110  0.00  0.00    +0.022 C 
ATOM     21  C   UNL     1      -1.416  -2.058  -0.121  0.00  0.00    +0.076 C 
BRANCH  16  23
ATOM     22  C   UNL     1      -0.019   1.526   0.010  0.00  0.00    +0.004 C 
ATOM     23  C   UNL     1       0.002  -0.004   0.002  0.00  0.00    +0.002 C 
ENDBRANCH  16  23
ENDBRANCH   1  21
TORSDOF 3
