REMARK  Name = ZINC04338509
REMARK  9 active torsions:
REMARK  status: ('A' for Active; 'I' for Inactive)
REMARK    1  A    between atoms: C_1  and  C_2
REMARK    2  A    between atoms: C_5  and  C_31
REMARK    3  A    between atoms: N_8  and  S_10
REMARK    4  A    between atoms: S_10  and  C_13
REMARK    5  A    between atoms: C_16  and  C_19
REMARK    6  A    between atoms: C_19  and  O_21
REMARK    7  A    between atoms: O_21  and  C_22
REMARK    8  A    between atoms: C_22  and  C_24
REMARK    9  A    between atoms: C_22  and  C_25
REMARK                            x       y       z     vdW  Elec       q    Type
REMARK                         _______ _______ _______ _____ _____    ______ ____
ROOT
ATOM      1  C   UNL     1      -4.043   3.754   0.061  0.00  0.00    +0.106 A 
ATOM      2  C   UNL     1      -4.642   3.400  -1.135  0.00  0.00    +0.029 A 
ATOM      3  C   UNL     1      -5.809   2.664  -1.136  0.00  0.00    +0.017 A 
ATOM      4  C   UNL     1      -6.392   2.286   0.075  0.00  0.00    +0.059 A 
ATOM      5  C   UNL     1      -5.785   2.651   1.279  0.00  0.00    +0.017 A 
ATOM      6  C   UNL     1      -4.616   3.382   1.265  0.00  0.00    +0.029 A 
ENDROOT
BRANCH   1   7
ATOM      7  S   UNL     1      -2.550   4.688   0.052  0.00  0.00    +0.061 S 
ATOM      8  O   UNL     1      -2.485   5.364   1.300  0.00  0.00    -0.153 OA
ATOM      9  O   UNL     1      -2.509   5.377  -1.190  0.00  0.00    -0.153 OA
BRANCH   7  15
ATOM     10  C   UNL     1      -2.198   1.093  -1.204  0.00  0.00    +0.009 C 
ATOM     11  C   UNL     1      -0.752   1.593  -1.232  0.00  0.00    +0.002 C 
ATOM     12  C   UNL     1      -0.013   1.086   0.008  0.00  0.00    +0.009 C 
ATOM     13  C   UNL     1      -0.729   1.579   1.268  0.00  0.00    +0.002 C 
ATOM     14  C   UNL     1      -0.717   3.111   1.290  0.00  0.00    +0.112 C 
ATOM     15  N   UNL     1      -1.296   3.606   0.034  0.00  0.00    -0.176 NA
ATOM     16  C   UNL     1      -0.741   3.124  -1.238  0.00  0.00    +0.112 C 
ATOM     17  C   UNL     1      -0.008   1.045   2.507  0.00  0.00    +0.009 C 
ENDBRANCH   7  15
ENDBRANCH   1   7
BRANCH   4  18
ATOM     18  C   UNL     1      -7.644   1.502   0.083  0.00  0.00    +0.340 C 
ATOM     19  O   UNL     1      -8.149   1.174   1.138  0.00  0.00    -0.245 OA
BRANCH  18  20
ATOM     20  O   UNL     1      -8.226   1.152  -1.080  0.00  0.00    -0.449 OA
BRANCH  20  21
ATOM     21  C   UNL     1      -9.455   0.382  -0.997  0.00  0.00    +0.259 C 
ATOM     22  C   UNL     1     -10.651   1.335  -0.953  0.00  0.00    +0.062 C 
BRANCH  21  23
ATOM     23  C   UNL     1      -9.569  -0.514  -2.203  0.00  0.00    +0.261 C 
ATOM     24  O   UNL     1      -8.701  -0.504  -3.050  0.00  0.00    -0.271 OA
ATOM     25  N   UNL     1     -10.636  -1.325  -2.341  0.00  0.00    -0.237 N 
ATOM     26  C   UNL     1     -10.739  -2.126  -3.420  0.00  0.00    +0.303 C 
ATOM     27  O   UNL     1      -9.869  -2.117  -4.269  0.00  0.00    -0.253 OA
ATOM     28  N   UNL     1     -11.806  -2.937  -3.558  0.00  0.00    -0.313 N 
ATOM     29  H   UNL     1     -11.331  -1.333  -1.664  0.00  0.00    +0.159 HD
ATOM     30  H   UNL     1     -12.501  -2.945  -2.881  0.00  0.00    +0.146 HD
ATOM     31  H   UNL     1     -11.880  -3.514  -4.335  0.00  0.00    +0.146 HD
ENDBRANCH  21  23
ENDBRANCH  20  21
ENDBRANCH  18  20
ENDBRANCH   4  18
TORSDOF 6
