REMARK  Name = ZINC50921897
REMARK  6 active torsions:
REMARK  status: ('A' for Active; 'I' for Inactive)
REMARK    1  A    between atoms: C_1  and  C_2
REMARK    2  A    between atoms: C_2  and  C_4
REMARK    3  A    between atoms: C_2  and  N_18
REMARK    4  A    between atoms: C_11  and  C_13
REMARK    5  A    between atoms: C_13  and  C_14
REMARK    6  A    between atoms: C_14  and  C_15
REMARK                            x       y       z     vdW  Elec       q    Type
REMARK                         _______ _______ _______ _____ _____    ______ ____
ROOT
ATOM      1  C   UNL     1       0.749  -0.157   1.430  0.00  0.00    +0.236 C 
ATOM      2  O   UNL     1       0.273  -0.950   2.214  0.00  0.00    -0.274 OA
ATOM      3  N   UNL     1       2.070   0.111   1.460  0.00  0.00    -0.297 N 
ATOM      4  C   UNL     1       2.640   1.164   0.609  0.00  0.00    +0.108 C 
ATOM      5  C   UNL     1       3.436   2.132   1.489  0.00  0.00    +0.019 C 
ATOM      6  C   UNL     1       4.472   1.348   2.297  0.00  0.00    +0.003 C 
ATOM      7  C   UNL     1       3.759   0.343   3.206  0.00  0.00    +0.022 C 
ATOM      8  C   UNL     1       2.966  -0.641   2.349  0.00  0.00    +0.077 C 
ENDROOT
BRANCH   1  10
ATOM      9  C   UNL     1      -0.267   2.010   0.781  0.00  0.00    +0.038 C 
ATOM     10  C   UNL     1      -0.136   0.529   0.421  0.00  0.00    +0.157 C 
BRANCH  10  11
ATOM     11  N   UNL     1      -1.461  -0.095   0.430  0.00  0.00    -0.289 N 
ATOM     12  C   UNL     1      -2.244  -0.030  -0.665  0.00  0.00    +0.298 C 
ATOM     13  O   UNL     1      -1.850   0.546  -1.661  0.00  0.00    -0.253 OA
ATOM     14  N   UNL     1      -3.463  -0.604  -0.657  0.00  0.00    -0.313 N 
ATOM     15  H   UNL     1      -1.776  -0.554   1.225  0.00  0.00    +0.151 HD
ATOM     16  H   UNL     1      -3.778  -1.063   0.138  0.00  0.00    +0.146 HD
ATOM     17  H   UNL     1      -4.027  -0.557  -1.445  0.00  0.00    +0.146 HD
ENDBRANCH  10  11
ENDBRANCH   1  10
BRANCH   8  18
ATOM     18  C   UNL     1       2.140  -1.557   3.255  0.00  0.00    +0.034 C 
BRANCH  18  19
ATOM     19  C   UNL     1       3.074  -2.326   4.191  0.00  0.00    +0.127 C 
BRANCH  19  20
ATOM     20  C   UNL     1       2.275  -3.321   4.992  0.00  0.00    +0.356 C 
ATOM     21  O   UNL     1       1.069  -3.406   4.830  0.00  0.00    -0.246 OA
ATOM     22  O   UNL     1       2.833  -4.040   5.803  0.00  0.00    -0.246 OA
ENDBRANCH  19  20
ENDBRANCH  18  19
ENDBRANCH   8  18
TORSDOF 5
