REMARK  Name = ZINC37803760
REMARK  9 active torsions:
REMARK  status: ('A' for Active; 'I' for Inactive)
REMARK    1  A    between atoms: C_1  and  C_2
REMARK    2  A    between atoms: C_2  and  C_3
REMARK    3  A    between atoms: C_2  and  C_4
REMARK    4  A    between atoms: C_4  and  C_5
REMARK    5  A    between atoms: C_5  and  C_7
REMARK    6  A    between atoms: C_5  and  N_23
REMARK    7  A    between atoms: N_9  and  C_10
REMARK    8  A    between atoms: N_9  and  C_11
REMARK    9  A    between atoms: C_11  and  C_12
REMARK                            x       y       z     vdW  Elec       q    Type
REMARK                         _______ _______ _______ _____ _____    ______ ____
ROOT
ATOM      1  C   UNL     1      -3.583  -0.545  -1.223  0.00  0.00    +0.201 C 
ATOM      2  O   UNL     1      -3.948  -1.559  -1.781  0.00  0.00    -0.277 OA
ATOM      3  N   UNL     1      -4.471   0.210  -0.548  0.00  0.00    -0.299 N 
ATOM      4  C   UNL     1      -4.030   1.434   0.125  0.00  0.00    +0.132 C 
ENDROOT
BRANCH   1   5
ATOM      5  C   UNL     1      -2.135  -0.131  -1.286  0.00  0.00    +0.013 C 
BRANCH   5   6
ATOM      6  N   UNL     1      -1.484  -0.797  -2.421  0.00  0.00    +0.386 N 
ATOM      7  H   UNL     1      -0.514  -0.520  -2.463  0.00  0.00    -0.089 HD
ATOM      8  H   UNL     1      -1.543  -1.798  -2.303  0.00  0.00    -0.089 HD
ATOM      9  H   UNL     1      -1.947  -0.532  -3.278  0.00  0.00    -0.089 HD
ENDBRANCH   5   6
BRANCH   5  10
ATOM     10  C   UNL     1      -1.433  -0.534   0.013  0.00  0.00    -0.004 C 
BRANCH  10  12
ATOM     11  C   UNL     1      -0.019   1.526   0.010  0.00  0.00    +0.007 C 
ATOM     12  C   UNL     1       0.002  -0.004   0.002  0.00  0.00    -0.018 C 
ATOM     13  C   UNL     1       0.742  -0.511   1.242  0.00  0.00    +0.007 C 
ENDBRANCH  10  12
ENDBRANCH   5  10
ENDBRANCH   1   5
BRANCH   3  14
ATOM     14  C   UNL     1      -5.879  -0.192  -0.488  0.00  0.00    +0.181 C 
BRANCH  14  15
ATOM     15  C   UNL     1      -6.098  -1.075   0.714  0.00  0.00    +0.128 A 
ATOM     16  N   UNL     1      -7.347  -1.559   0.942  0.00  0.00    -0.309 N 
ATOM     17  H   UNL     1      -8.075  -1.337   0.340  0.00  0.00    +0.170 HD
ATOM     18  C   UNL     1      -7.566  -2.354   2.016  0.00  0.00    +0.266 A 
ATOM     19  O   UNL     1      -8.675  -2.804   2.248  0.00  0.00    -0.267 OA
ATOM     20  C   UNL     1      -6.485  -2.644   2.850  0.00  0.00    +0.102 A 
ATOM     21  C   UNL     1      -5.202  -2.130   2.592  0.00  0.00    +0.085 A 
ATOM     22  N   UNL     1      -5.085  -1.339   1.476  0.00  0.00    -0.232 NA
ATOM     23  C   UNL     1      -4.209  -2.500   3.509  0.00  0.00    +0.036 A 
ATOM     24  C   UNL     1      -4.513  -3.298   4.555  0.00  0.00    +0.048 A 
ATOM     25  S   UNL     1      -6.258  -3.599   4.327  0.00  0.00    -0.090 S 
ENDBRANCH  14  15
ENDBRANCH   3  14
TORSDOF 6
