REMARK  Name = ZINC12293231
REMARK  8 active torsions:
REMARK  status: ('A' for Active; 'I' for Inactive)
REMARK    1  A    between atoms: C_1  and  C_2
REMARK    2  A    between atoms: C_7  and  C_8
REMARK    3  A    between atoms: C_15  and  C_16
REMARK    4  A    between atoms: C_15  and  N_63
REMARK    5  A    between atoms: C_16  and  C_18
REMARK    6  A    between atoms: C_16  and  O_28
REMARK    7  A    between atoms: N_20  and  C_27
REMARK    8  A    between atoms: C_30  and  O_32
REMARK                            x       y       z     vdW  Elec       q    Type
REMARK                         _______ _______ _______ _____ _____    ______ ____
ROOT
ATOM      1  C   UNL     1      -4.556  -6.771   3.688  0.00  0.00    +0.044 C 
ATOM      2  C   UNL     1      -4.357  -5.282   3.579  0.00  0.00    -0.047 A 
ATOM      3  C   UNL     1      -5.157  -4.538   2.733  0.00  0.00    +0.013 A 
ATOM      4  C   UNL     1      -4.980  -3.169   2.628  0.00  0.00    +0.023 A 
ATOM      5  C   UNL     1      -3.998  -2.542   3.375  0.00  0.00    +0.127 A 
ATOM      6  C   UNL     1      -3.195  -3.294   4.226  0.00  0.00    +0.049 A 
ATOM      7  C   UNL     1      -3.375  -4.658   4.326  0.00  0.00    -0.044 A 
ATOM      8  C   UNL     1      -2.502  -5.469   5.249  0.00  0.00    +0.044 C 
ATOM      9  O   UNL     1      -3.792  -1.201   3.306  0.00  0.00    -0.485 OA
ATOM     10  C   UNL     1      -4.349  -0.496   2.198  0.00  0.00    +0.110 C 
ATOM     11  C   UNL     1      -4.260   1.011   2.443  0.00  0.00    +0.029 C 
ATOM     12  C   UNL     1      -2.789   1.425   2.528  0.00  0.00    -0.075 C 
ATOM     13  C   UNL     1      -2.135  -0.380   1.050  0.00  0.00    -0.075 C 
ATOM     14  C   UNL     1      -3.585  -0.849   0.920  0.00  0.00    +0.029 C 
ATOM     15  C   UNL     1      -5.818  -0.904   2.045  0.00  0.00    +0.084 C 
ATOM     16  C   UNL     1      -5.869  -2.393   1.689  0.00  0.00    +0.152 C 
ATOM     17  N   UNL     1      -2.121   1.084   1.254  0.00  0.00    +0.382 N 
ATOM     18  H   UNL     1      -2.627   1.533   0.482  0.00  0.00    -0.082 HD
ENDROOT
BRANCH  16  19
ATOM     19  O   UNL     1      -7.213  -2.864   1.807  0.00  0.00    -0.387 OA
ATOM     20  H   UNL     1      -7.321  -3.801   1.594  0.00  0.00    +0.210 HD
ENDBRANCH  16  19
BRANCH  17  21
ATOM     21  C   UNL     1      -0.729   1.579   1.267  0.00  0.00    -0.042 C 
BRANCH  21  22
ATOM     22  C   UNL     1      -0.022   1.110  -0.006  0.00  0.00    +0.130 C 
BRANCH  22  23
ATOM     23  C   UNL     1       1.383   1.656  -0.031  0.00  0.00    +0.004 A 
ATOM     24  C   UNL     1       1.793   2.775  -0.649  0.00  0.00    +0.092 A 
ATOM     25  N   UNL     1       3.135   2.953  -0.451  0.00  0.00    -0.349 N 
ATOM     26  C   UNL     1       3.635   1.922   0.312  0.00  0.00    +0.049 A 
ATOM     27  C   UNL     1       2.560   1.064   0.608  0.00  0.00    +0.005 A 
ATOM     28  C   UNL     1       2.773  -0.081   1.378  0.00  0.00    +0.010 A 
ATOM     29  C   UNL     1       4.028  -0.364   1.839  0.00  0.00    +0.001 A 
ATOM     30  C   UNL     1       5.092   0.479   1.550  0.00  0.00    +0.002 A 
ATOM     31  C   UNL     1       4.904   1.614   0.793  0.00  0.00    +0.026 A 
ATOM     32  C   UNL     1       3.923   4.071  -0.975  0.00  0.00    +0.149 C 
ENDBRANCH  22  23
BRANCH  22  33
ATOM     33  O   UNL     1      -0.737   1.581  -1.150  0.00  0.00    -0.389 OA
ATOM     34  H   UNL     1      -0.807   2.544  -1.201  0.00  0.00    +0.210 HD
ENDBRANCH  22  33
ENDBRANCH  21  22
ENDBRANCH  17  21
TORSDOF 5
