REMARK  Name = ZINC39421207
REMARK  7 active torsions:
REMARK  status: ('A' for Active; 'I' for Inactive)
REMARK    1  A    between atoms: C_1  and  C_2
REMARK    2  A    between atoms: C_2  and  C_35
REMARK    3  A    between atoms: C_4  and  N_19
REMARK    4  A    between atoms: N_9  and  C_13
REMARK    5  A    between atoms: C_20  and  C_22
REMARK    6  A    between atoms: C_22  and  C_23
REMARK    7  A    between atoms: C_23  and  N_24
REMARK                            x       y       z     vdW  Elec       q    Type
REMARK                         _______ _______ _______ _____ _____    ______ ____
ROOT
ATOM      1  C   UNL     1      -0.170   1.585   0.208  0.00  0.00    +0.011 C 
ATOM      2  C   UNL     1      -0.105   0.058   0.133  0.00  0.00    -0.031 C 
ATOM      3  C   UNL     1      -1.526  -0.502   0.098  0.00  0.00    +0.033 C 
ATOM      4  C   UNL     1      -1.486  -2.029  -0.082  0.00  0.00    +0.103 C 
ATOM      5  C   UNL     1      -0.545  -2.566   0.970  0.00  0.00    -0.013 C 
ATOM      6  C   UNL     1      -0.713  -3.525   1.837  0.00  0.00    +0.091 C 
ATOM      7  N   UNL     1       0.375  -3.640   2.687  0.00  0.00    -0.271 N 
ATOM      8  N   UNL     1       1.304  -2.618   2.424  0.00  0.00    -0.246 N 
ATOM      9  C   UNL     1       0.844  -1.984   1.185  0.00  0.00    +0.124 C 
ATOM     10  C   UNL     1       0.668  -0.472   1.345  0.00  0.00    +0.035 C 
ATOM     11  C   UNL     1       0.626  -0.351  -1.147  0.00  0.00    +0.011 C 
ATOM     12  H   UNL     1       0.480  -4.326   3.365  0.00  0.00    +0.169 HD
ENDROOT
BRANCH   8  13
ATOM     13  C   UNL     1       2.426  -2.279   3.183  0.00  0.00    +0.048 A 
ATOM     14  C   UNL     1       2.636  -2.873   4.420  0.00  0.00    +0.025 A 
ATOM     15  C   UNL     1       3.747  -2.536   5.168  0.00  0.00    +0.002 A 
ATOM     16  C   UNL     1       4.651  -1.607   4.685  0.00  0.00    +0.000 A 
ATOM     17  C   UNL     1       4.445  -1.013   3.453  0.00  0.00    +0.002 A 
ATOM     18  C   UNL     1       3.339  -1.351   2.698  0.00  0.00    +0.025 A 
ENDBRANCH   8  13
BRANCH   4  19
ATOM     19  N   UNL     1      -2.826  -2.591   0.107  0.00  0.00    -0.309 N 
ATOM     20  C   UNL     1      -3.152  -3.765  -0.469  0.00  0.00    +0.215 C 
ATOM     21  O   UNL     1      -2.336  -4.356  -1.145  0.00  0.00    -0.276 OA
ATOM     22  H   UNL     1      -3.478  -2.119   0.647  0.00  0.00    +0.149 HD
BRANCH  20  23
ATOM     23  C   UNL     1      -4.530  -4.343  -0.275  0.00  0.00    +0.117 C 
BRANCH  23  24
ATOM     24  C   UNL     1      -4.638  -5.670  -1.028  0.00  0.00    +0.136 C 
BRANCH  24  25
ATOM     25  N   UNL     1      -5.977  -6.232  -0.839  0.00  0.00    -0.292 N 
ATOM     26  C   UNL     1      -6.363  -7.091   0.187  0.00  0.00    +0.070 A 
ATOM     27  C   UNL     1      -5.691  -7.650   1.264  0.00  0.00    +0.028 A 
ATOM     28  C   UNL     1      -6.362  -8.487   2.133  0.00  0.00    +0.002 A 
ATOM     29  C   UNL     1      -7.702  -8.771   1.935  0.00  0.00    +0.002 A 
ATOM     30  C   UNL     1      -8.380  -8.220   0.865  0.00  0.00    +0.028 A 
ATOM     31  C   UNL     1      -7.715  -7.377  -0.013  0.00  0.00    +0.067 A 
ATOM     32  N   UNL     1      -8.109  -6.683  -1.155  0.00  0.00    -0.306 N 
ATOM     33  H   UNL     1      -8.998  -6.687  -1.543  0.00  0.00    +0.170 HD
ATOM     34  C   UNL     1      -7.047  -6.002  -1.624  0.00  0.00    +0.328 A 
ATOM     35  O   UNL     1      -7.052  -5.288  -2.610  0.00  0.00    -0.247 OA
ENDBRANCH  24  25
ENDBRANCH  23  24
ENDBRANCH  20  23
ENDBRANCH   4  19
TORSDOF 5
