REMARK  Name = ZINC13476140
REMARK  7 active torsions:
REMARK  status: ('A' for Active; 'I' for Inactive)
REMARK    1  A    between atoms: C_1  and  C_2
REMARK    2  A    between atoms: C_4  and  O_26
REMARK    3  A    between atoms: C_6  and  O_25
REMARK    4  A    between atoms: C_8  and  O_24
REMARK    5  A    between atoms: C_10  and  N_13
REMARK    6  A    between atoms: N_13  and  C_14
REMARK    7  A    between atoms: C_18  and  N_20
REMARK                            x       y       z     vdW  Elec       q    Type
REMARK                         _______ _______ _______ _____ _____    ______ ____
ROOT
ATOM      1  C   UNL     1       2.549   0.872   3.104  0.00  0.00    +0.041 C 
ATOM      2  C   UNL     1       1.648   1.627   2.125  0.00  0.00    +0.149 C 
ATOM      3  C   UNL     1       0.189   1.228   2.362  0.00  0.00    +0.174 C 
ATOM      4  C   UNL     1      -0.700   1.942   1.339  0.00  0.00    +0.178 C 
ATOM      5  C   UNL     1      -0.223   1.587  -0.072  0.00  0.00    +0.192 C 
ATOM      6  C   UNL     1       1.252   1.972  -0.215  0.00  0.00    +0.235 C 
ATOM      7  O   UNL     1       2.018   1.297   0.785  0.00  0.00    -0.351 OA
ENDROOT
BRANCH   6   8
ATOM      8  N   UNL     1       1.397   3.420  -0.048  0.00  0.00    -0.317 N 
ATOM      9  H   UNL     1       0.810   3.900   0.557  0.00  0.00    +0.149 HD
BRANCH   8  10
ATOM     10  C   UNL     1       2.381   4.111  -0.760  0.00  0.00    +0.031 A 
ATOM     11  C   UNL     1       3.322   3.410  -1.505  0.00  0.00    +0.024 A 
ATOM     12  C   UNL     1       4.291   4.095  -2.212  0.00  0.00    +0.024 A 
ATOM     13  C   UNL     1       4.331   5.478  -2.170  0.00  0.00    +0.071 A 
ATOM     14  C   UNL     1       3.399   6.178  -1.425  0.00  0.00    +0.146 A 
ATOM     15  C   UNL     1       2.424   5.498  -0.721  0.00  0.00    +0.057 A 
ATOM     16 CL   UNL     1       5.554   6.336  -3.055  0.00  0.00    -0.081 Cl
BRANCH  14  17
ATOM     17  N   UNL     1       3.445   7.657  -1.384  0.00  0.00    +0.058 N 
ATOM     18  O   UNL     1       2.624   8.274  -0.729  0.00  0.00    -0.126 OA
ATOM     19  O   UNL     1       4.303   8.257  -2.005  0.00  0.00    -0.126 OA
ENDBRANCH  14  17
ENDBRANCH   8  10
ENDBRANCH   6   8
BRANCH   5  20
ATOM     20  O   UNL     1      -0.372   0.182  -0.288  0.00  0.00    -0.385 OA
ATOM     21  H   UNL     1      -0.084  -0.115  -1.162  0.00  0.00    +0.210 HD
ENDBRANCH   5  20
BRANCH   4  22
ATOM     22  O   UNL     1      -2.055   1.519   1.506  0.00  0.00    -0.386 OA
ATOM     23  H   UNL     1      -2.674   1.927   0.885  0.00  0.00    +0.210 HD
ENDBRANCH   4  22
BRANCH   3  24
ATOM     24  O   UNL     1      -0.202   1.609   3.683  0.00  0.00    -0.387 OA
ATOM     25  H   UNL     1       0.324   1.197   4.382  0.00  0.00    +0.210 HD
ENDBRANCH   3  24
TORSDOF 6
