REMARK  Name = ZINC20255489
REMARK  8 active torsions:
REMARK  status: ('A' for Active; 'I' for Inactive)
REMARK    1  A    between atoms: C_3  and  C_19
REMARK    2  A    between atoms: C_5  and  C_6
REMARK    3  A    between atoms: N_11  and  C_12
REMARK    4  A    between atoms: C_12  and  C_13
REMARK    5  A    between atoms: C_13  and  C_14
REMARK    6  A    between atoms: C_14  and  C_15
REMARK    7  A    between atoms: N_21  and  C_22
REMARK    8  A    between atoms: C_22  and  C_23
REMARK                            x       y       z     vdW  Elec       q    Type
REMARK                         _______ _______ _______ _____ _____    ______ ____
ROOT
ATOM      1  C   UNL     1      -0.196  -1.618   3.010  0.00  0.00    +0.010 A 
ATOM      2  C   UNL     1      -0.956  -2.756   3.117  0.00  0.00    +0.021 A 
ATOM      3  C   UNL     1      -2.300  -2.650   2.797  0.00  0.00    +0.074 A 
ATOM      4  S   UNL     1      -2.438  -0.926   2.361  0.00  0.00    -0.090 S 
ATOM      5  C   UNL     1      -0.787  -0.461   2.614  0.00  0.00    -0.023 A 
ENDROOT
BRANCH   5   6
ATOM      6  C   UNL     1      -0.159   0.897   2.431  0.00  0.00    -0.031 C 
ATOM      7  C   UNL     1      -0.551   1.835   3.593  0.00  0.00    -0.012 C 
ATOM      8  C   UNL     1      -0.738   3.222   2.943  0.00  0.00    -0.020 C 
ATOM      9  C   UNL     1      -0.443   3.005   1.444  0.00  0.00    -0.078 C 
ATOM     10  N   UNL     1      -0.700   1.560   1.217  0.00  0.00    +0.385 N 
ATOM     11  H   UNL     1      -1.765   1.338   1.050  0.00  0.00    -0.081 HD
BRANCH  10  12
ATOM     12  C   UNL     1      -0.013   1.086   0.008  0.00  0.00    -0.078 C 
BRANCH  12  13
ATOM     13  C   UNL     1      -0.753   1.593  -1.232  0.00  0.00    -0.010 C 
BRANCH  13  14
ATOM     14  C   UNL     1      -0.037   1.099  -2.490  0.00  0.00    +0.111 C 
BRANCH  14  15
ATOM     15  C   UNL     1      -0.777   1.606  -3.730  0.00  0.00    +0.390 C 
ATOM     16  F   UNL     1      -0.795   3.005  -3.722  0.00  0.00    -0.171 F 
ATOM     17  F   UNL     1      -0.122   1.155  -4.881  0.00  0.00    -0.171 F 
ATOM     18  F   UNL     1      -2.089   1.122  -3.720  0.00  0.00    -0.171 F 
ENDBRANCH  14  15
ENDBRANCH  13  14
ENDBRANCH  12  13
ENDBRANCH  10  12
ENDBRANCH   5   6
BRANCH   3  19
ATOM     19  C   UNL     1      -3.338  -3.685   2.813  0.00  0.00    +0.251 C 
ATOM     20  O   UNL     1      -3.058  -4.823   3.143  0.00  0.00    -0.270 OA
ATOM     21  N   UNL     1      -4.603  -3.377   2.463  0.00  0.00    -0.302 N 
ATOM     22  H   UNL     1      -4.856  -2.349   2.165  0.00  0.00    +0.150 HD
BRANCH  21  23
ATOM     23  C   UNL     1      -5.640  -4.411   2.479  0.00  0.00    +0.200 C 
BRANCH  23  24
ATOM     24  C   UNL     1      -6.954  -3.812   2.050  0.00  0.00    +0.228 C 
ATOM     25  O   UNL     1      -7.018  -2.636   1.758  0.00  0.00    -0.274 OA
ATOM     26  N   UNL     1      -8.058  -4.582   1.989  0.00  0.00    -0.328 N 
ATOM     27  H   UNL     1      -9.018  -4.144   1.675  0.00  0.00    +0.145 HD
ATOM     28  H   UNL     1      -8.001  -5.648   2.253  0.00  0.00    +0.145 HD
ENDBRANCH  23  24
ENDBRANCH  21  23
ENDBRANCH   3  19
TORSDOF 8
