REMARK  Name = ZINC39680642
REMARK  8 active torsions:
REMARK  status: ('A' for Active; 'I' for Inactive)
REMARK    1  A    between atoms: C_1  and  N_2
REMARK    2  A    between atoms: N_2  and  C_3
REMARK    3  A    between atoms: C_4  and  C_6
REMARK    4  A    between atoms: C_6  and  N_7
REMARK    5  A    between atoms: C_8  and  C_10
REMARK    6  A    between atoms: C_21  and  C_23
REMARK    7  A    between atoms: C_28  and  O_29
REMARK    8  A    between atoms: O_29  and  C_30
REMARK                            x       y       z     vdW  Elec       q    Type
REMARK                         _______ _______ _______ _____ _____    ______ ____
ROOT
ATOM      1  C   UNL     1      -3.597  -4.598  -0.092  0.00  0.00    +0.100 C 
ATOM      2  C   UNL     1      -4.540  -4.029  -1.176  0.00  0.00    +0.121 C 
ATOM      3  N   UNL     1      -4.606  -5.090  -2.209  0.00  0.00    -0.296 N 
ATOM      4  C   UNL     1      -4.646  -6.355  -1.437  0.00  0.00    +0.115 C 
ATOM      5  C   UNL     1      -3.672  -6.124  -0.264  0.00  0.00    -0.004 C 
ATOM      6  C   UNL     1      -2.295  -6.686  -0.606  0.00  0.00    -0.010 C 
ATOM      7  C   UNL     1      -2.384  -8.210  -0.716  0.00  0.00    -0.082 C 
ATOM      8  N   UNL     1      -2.861  -8.768   0.556  0.00  0.00    +0.379 N 
ATOM      9  C   UNL     1      -4.223  -8.294   0.831  0.00  0.00    -0.082 C 
ATOM     10  C   UNL     1      -4.212  -6.773   1.006  0.00  0.00    -0.010 C 
ATOM     11  C   UNL     1      -4.624  -4.939  -3.548  0.00  0.00    +0.252 C 
ATOM     12  O   UNL     1      -4.776  -5.908  -4.267  0.00  0.00    -0.270 OA
ATOM     13  H   UNL     1      -2.861  -9.775   0.501  0.00  0.00    -0.086 HD
ATOM     14  H   UNL     1      -2.247  -8.474   1.301  0.00  0.00    -0.086 HD
ENDROOT
BRANCH  11  15
ATOM     15  C   UNL     1      -4.461  -3.598  -4.142  0.00  0.00    +0.099 A 
ATOM     16  C   UNL     1      -4.984  -2.468  -3.503  0.00  0.00    +0.020 A 
ATOM     17  C   UNL     1      -4.803  -1.233  -4.101  0.00  0.00    +0.021 A 
ATOM     18  C   UNL     1      -4.118  -1.151  -5.300  0.00  0.00    +0.114 A 
ATOM     19  N   UNL     1      -3.634  -2.230  -5.885  0.00  0.00    -0.220 NA
ATOM     20  C   UNL     1      -3.774  -3.433  -5.354  0.00  0.00    +0.233 A 
BRANCH  20  21
ATOM     21  O   UNL     1      -3.255  -4.512  -5.986  0.00  0.00    -0.437 OA
BRANCH  21  22
ATOM     22  C   UNL     1      -2.684  -4.324  -7.205  0.00  0.00    +0.130 A 
ATOM     23  C   UNL     1      -1.411  -3.780  -7.299  0.00  0.00    +0.048 A 
ATOM     24  C   UNL     1      -0.832  -3.590  -8.539  0.00  0.00    +0.023 A 
ATOM     25  C   UNL     1      -1.521  -3.941  -9.687  0.00  0.00    +0.041 A 
ATOM     26  C   UNL     1      -2.791  -4.484  -9.595  0.00  0.00    +0.023 A 
ATOM     27  C   UNL     1      -3.371  -4.681  -8.357  0.00  0.00    +0.048 A 
ATOM     28 CL   UNL     1      -0.791  -3.701 -11.243  0.00  0.00    -0.084 Cl
ENDBRANCH  21  22
ENDBRANCH  20  21
ENDBRANCH  11  15
BRANCH   1  30
ATOM     29  N   UNL     1      -1.347  -3.977   0.728  0.00  0.00    -0.306 N 
ATOM     30  C   UNL     1      -2.187  -4.113  -0.317  0.00  0.00    +0.219 C 
ATOM     31  O   UNL     1      -1.809  -3.845  -1.438  0.00  0.00    -0.275 OA
ATOM     32  H   UNL     1      -1.650  -4.191   1.625  0.00  0.00    +0.149 HD
BRANCH  29  33
ATOM     33  C   UNL     1       0.023  -3.506   0.510  0.00  0.00    +0.200 C 
BRANCH  33  37
ATOM     34  C   UNL     1       2.737  -2.973   3.157  0.00  0.00    +0.131 C 
ATOM     35  N   UNL     1       2.032  -3.034   1.874  0.00  0.00    -0.306 N 
ATOM     36  C   UNL     1       2.722  -2.651   0.640  0.00  0.00    +0.131 C 
ATOM     37  C   UNL     1       0.748  -3.443   1.830  0.00  0.00    +0.232 C 
ATOM     38  O   UNL     1       0.177  -3.760   2.851  0.00  0.00    -0.274 OA
ENDBRANCH  33  37
ENDBRANCH  29  33
ENDBRANCH   1  30
TORSDOF 6
