REMARK  Name = ZINC05698611
REMARK  5 active torsions:
REMARK  status: ('A' for Active; 'I' for Inactive)
REMARK    1  A    between atoms: C_1  and  C_2
REMARK    2  A    between atoms: C_5  and  C_8
REMARK    3  A    between atoms: N_10  and  N_11
REMARK    4  A    between atoms: C_12  and  C_13
REMARK    5  A    between atoms: N_20  and  C_23
REMARK                            x       y       z     vdW  Elec       q    Type
REMARK                         _______ _______ _______ _____ _____    ______ ____
ROOT
ATOM      1  C   UNL     1      -0.989   1.359  -0.753  0.00  0.00    +0.204 C 
ATOM      2  C   UNL     1      -0.793   2.712  -0.094  0.00  0.00    +0.236 C 
ATOM      3  O   UNL     1      -1.740   3.389   0.244  0.00  0.00    -0.274 OA
ATOM      4  N   UNL     1       0.474   3.135   0.096  0.00  0.00    -0.266 N 
ATOM      5  C   UNL     1       1.530   2.400  -0.271  0.00  0.00    +0.150 C 
ATOM      6  S   UNL     1       3.088   3.045   0.024  0.00  0.00    -0.018 S 
ATOM      7  N   UNL     1       1.456   1.196  -0.852  0.00  0.00    -0.221 N 
ATOM      8  C   UNL     1       0.274   0.606  -1.125  0.00  0.00    +0.243 C 
ATOM      9  O   UNL     1       0.223  -0.485  -1.652  0.00  0.00    -0.274 OA
ATOM     10  H   UNL     1       0.624   3.999   0.512  0.00  0.00    +0.157 HD
ENDROOT
BRANCH   7  11
ATOM     11  C   UNL     1       2.643   0.530  -1.187  0.00  0.00    +0.043 A 
ATOM     12  C   UNL     1       3.279   0.805  -2.390  0.00  0.00    +0.024 A 
ATOM     13  C   UNL     1       4.451   0.151  -2.716  0.00  0.00    +0.002 A 
ATOM     14  C   UNL     1       4.985  -0.785  -1.850  0.00  0.00    +0.000 A 
ATOM     15  C   UNL     1       4.351  -1.066  -0.653  0.00  0.00    +0.002 A 
ATOM     16  C   UNL     1       3.181  -0.411  -0.320  0.00  0.00    +0.024 A 
ENDBRANCH   7  11
BRANCH   1  18
ATOM     17  N   UNL     1      -2.969   1.036  -2.100  0.00  0.00    -0.191 NA
ATOM     18  C   UNL     1      -1.804   1.556  -2.006  0.00  0.00    +0.125 C 
BRANCH  17  21
ATOM     19  C   UNL     1      -4.731  -0.225  -1.111  0.00  0.00    +0.263 C 
ATOM     20  O   UNL     1      -5.287  -0.269  -2.192  0.00  0.00    -0.268 OA
ATOM     21  N   UNL     1      -3.553   0.419  -0.986  0.00  0.00    -0.203 N 
ATOM     22  H   UNL     1      -3.109   0.454  -0.124  0.00  0.00    +0.178 HD
BRANCH  19  27
ATOM     23  C   UNL     1      -7.128  -2.758   3.465  0.00  0.00    +0.044 C 
ATOM     24  C   UNL     1      -6.500  -2.095   2.266  0.00  0.00    -0.050 A 
ATOM     25  C   UNL     1      -7.135  -2.148   1.038  0.00  0.00    +0.004 A 
ATOM     26  C   UNL     1      -6.566  -1.542  -0.063  0.00  0.00    +0.013 A 
ATOM     27  C   UNL     1      -5.346  -0.875   0.064  0.00  0.00    +0.038 A 
ATOM     28  C   UNL     1      -4.708  -0.831   1.304  0.00  0.00    +0.013 A 
ATOM     29  C   UNL     1      -5.291  -1.436   2.399  0.00  0.00    +0.004 A 
ENDBRANCH  19  27
ENDBRANCH  17  21
ENDBRANCH   1  18
TORSDOF 4
