REMARK  Name = ZINC64212797
REMARK  3 active torsions:
REMARK  status: ('A' for Active; 'I' for Inactive)
REMARK    1  A    between atoms: C_7  and  C_10
REMARK    2  A    between atoms: N_13  and  C_16
REMARK    3  A    between atoms: C_16  and  C_17
REMARK                            x       y       z     vdW  Elec       q    Type
REMARK                         _______ _______ _______ _____ _____    ______ ____
ROOT
ATOM      1  C   UNL     1       0.692  -3.191   0.314  0.00  0.00    -0.043 C 
ATOM      2  C   UNL     1      -0.593  -2.909   0.107  0.00  0.00    -0.008 C 
ATOM      3  C   UNL     1      -1.650  -3.969  -0.015  0.00  0.00    +0.112 C 
ATOM      4  N   UNL     1      -1.032  -5.274  -0.281  0.00  0.00    -0.293 NA
ATOM      5  C   UNL     1       0.026  -5.549   0.704  0.00  0.00    +0.090 C 
ATOM      6  C   UNL     1       1.199  -4.602   0.432  0.00  0.00    +0.050 C 
ENDROOT
BRANCH   1  13
ATOM      7  C   UNL     1       5.212  -3.113   0.668  0.00  0.00    +0.001 A 
ATOM      8  C   UNL     1       5.747  -1.823   0.751  0.00  0.00    +0.002 A 
ATOM      9  C   UNL     1       4.962  -0.721   0.726  0.00  0.00    +0.026 A 
ATOM     10  C   UNL     1       3.552  -0.859   0.612  0.00  0.00    +0.043 A 
ATOM     11  N   UNL     1       2.590   0.036   0.567  0.00  0.00    -0.380 N 
ATOM     12  C   UNL     1       1.299  -0.648   0.444  0.00  0.00    +0.149 C 
ATOM     13  C   UNL     1       1.611  -2.128   0.420  0.00  0.00    -0.016 C 
ATOM     14  C   UNL     1       2.993  -2.221   0.524  0.00  0.00    +0.003 A 
ATOM     15  C   UNL     1       3.877  -3.324   0.558  0.00  0.00    +0.010 A 
ATOM     16  H   UNL     1       2.714   0.998   0.608  0.00  0.00    +0.160 HD
ENDBRANCH   1  13
BRANCH   4  17
ATOM     17  C   UNL     1      -2.040  -6.343  -0.283  0.00  0.00    +0.138 C 
BRANCH  17  18
ATOM     18  C   UNL     1      -1.464  -7.575  -0.931  0.00  0.00    +0.059 C 
ATOM     19  C   UNL     1      -1.273  -8.677  -0.212  0.00  0.00    +0.109 C 
ATOM     20  S   UNL     1      -0.593  -9.805  -1.418  0.00  0.00    -0.012 S 
ATOM     21  N   UNL     1      -0.612  -8.703  -2.827  0.00  0.00    -0.181 NA
ATOM     22  N   UNL     1      -1.140  -7.562  -2.272  0.00  0.00    -0.271 N 
ATOM     23 CL   UNL     1      -1.600  -8.950   1.471  0.00  0.00    -0.073 Cl
ATOM     24  H   UNL     1      -1.213  -9.058  -3.556  0.00  0.00    +0.158 HD
ATOM     25  H   UNL     1      -1.279  -6.766  -2.809  0.00  0.00    +0.167 HD
ENDBRANCH  17  18
ENDBRANCH   4  17
TORSDOF 3
