REMARK  Name = ZINC21083019
REMARK  12 active torsions:
REMARK  status: ('A' for Active; 'I' for Inactive)
REMARK    1  A    between atoms: C_1  and  C_2
REMARK    2  A    between atoms: C_5  and  C_7
REMARK    3  A    between atoms: N_9  and  C_10
REMARK    4  A    between atoms: N_9  and  C_14
REMARK    5  A    between atoms: C_10  and  C_11
REMARK    6  A    between atoms: C_11  and  C_12
REMARK    7  A    between atoms: C_11  and  C_13
REMARK    8  A    between atoms: C_15  and  N_27
REMARK    9  A    between atoms: N_16  and  C_23
REMARK   10  A    between atoms: C_23  and  C_24
REMARK   11  A    between atoms: C_24  and  C_25
REMARK   12  A    between atoms: C_24  and  C_26
REMARK                            x       y       z     vdW  Elec       q    Type
REMARK                         _______ _______ _______ _____ _____    ______ ____
ROOT
ATOM      1  C   UNL     1       1.167   3.340   0.137  0.00  0.00    +0.140 A 
ATOM      2  C   UNL     1       0.630   2.738   1.257  0.00  0.00    +0.127 A 
ATOM      3  N   UNL     1      -0.707   2.417   1.271  0.00  0.00    -0.280 N 
ATOM      4  C   UNL     1      -1.484   2.692   0.208  0.00  0.00    +0.331 A 
ATOM      5  O   UNL     1      -2.665   2.405   0.242  0.00  0.00    -0.246 OA
ATOM      6  N   UNL     1      -0.978   3.273  -0.894  0.00  0.00    -0.273 N 
ATOM      7  H   UNL     1      -1.630   3.481  -1.755  0.00  0.00    +0.173 HD
ATOM      8  C   UNL     1       0.326   3.608  -0.959  0.00  0.00    +0.277 A 
ATOM      9  O   UNL     1       0.774   4.139  -1.961  0.00  0.00    -0.266 OA
ENDROOT
BRANCH   1  12
ATOM     10  C   UNL     1       2.904   4.970  -0.044  0.00  0.00    +0.286 C 
ATOM     11  O   UNL     1       2.061   5.848  -0.040  0.00  0.00    -0.266 OA
ATOM     12  N   UNL     1       2.535   3.681   0.092  0.00  0.00    -0.257 N 
BRANCH  10  17
ATOM     13  C   UNL     1       7.858   4.496  -0.605  0.00  0.00    +0.086 C 
ATOM     14  C   UNL     1       6.493   5.114  -0.442  0.00  0.00    +0.103 A 
ATOM     15  C   UNL     1       6.229   6.438  -0.389  0.00  0.00    +0.045 A 
ATOM     16  C   UNL     1       4.841   6.577  -0.232  0.00  0.00    +0.055 A 
ATOM     17  C   UNL     1       4.322   5.314  -0.196  0.00  0.00    +0.190 A 
ATOM     18  O   UNL     1       5.341   4.440  -0.319  0.00  0.00    -0.455 OA
ENDBRANCH  10  17
BRANCH  12  19
ATOM     19  C   UNL     1       3.554   2.634   0.192  0.00  0.00    +0.117 C 
BRANCH  19  20
ATOM     20  C   UNL     1       3.983   2.202  -1.212  0.00  0.00    +0.001 C 
ATOM     21  C   UNL     1       5.150   1.218  -1.109  0.00  0.00    +0.009 C 
ATOM     22  C   UNL     1       2.806   1.526  -1.919  0.00  0.00    +0.009 C 
ENDBRANCH  19  20
ENDBRANCH  12  19
ENDBRANCH   1  12
BRANCH   2  23
ATOM     23  N   UNL     1       1.423   2.462   2.345  0.00  0.00    -0.343 N 
ATOM     24  H   UNL     1       0.989   1.982   3.235  0.00  0.00    +0.144 HD
ATOM     25  H   UNL     1       2.492   2.721   2.327  0.00  0.00    +0.144 HD
ENDBRANCH   2  23
BRANCH   3  26
ATOM     26  C   UNL     1      -1.290   1.778   2.454  0.00  0.00    +0.131 C 
BRANCH  26  27
ATOM     27  C   UNL     1      -1.798   2.853   3.416  0.00  0.00    +0.003 C 
ATOM     28  C   UNL     1      -2.949   3.620   2.762  0.00  0.00    +0.009 C 
ATOM     29  C   UNL     1      -2.293   2.191   4.704  0.00  0.00    +0.009 C 
ENDBRANCH  26  27
ENDBRANCH   3  26
TORSDOF 7
