REMARK  Name = ZINC03455805
REMARK  11 active torsions:
REMARK  status: ('A' for Active; 'I' for Inactive)
REMARK    1  A    between atoms: C_1  and  C_2
REMARK    2  A    between atoms: C_2  and  C_3
REMARK    3  A    between atoms: C_3  and  C_4
REMARK    4  A    between atoms: C_4  and  N_5
REMARK    5  A    between atoms: N_7  and  C_27
REMARK    6  A    between atoms: C_9  and  C_12
REMARK    7  A    between atoms: C_14  and  C_26
REMARK    8  A    between atoms: N_15  and  C_18
REMARK    9  A    between atoms: C_16  and  C_17
REMARK   10  A    between atoms: C_18  and  C_19
REMARK   11  A    between atoms: C_19  and  C_20
REMARK                            x       y       z     vdW  Elec       q    Type
REMARK                         _______ _______ _______ _____ _____    ______ ____
ROOT
ATOM      1  C   UNL     1       4.301   3.712   4.464  0.00  0.00    +0.018 A 
ATOM      2  C   UNL     1       5.244   3.022   5.269  0.00  0.00    +0.032 A 
ATOM      3  C   UNL     1       6.350   3.785   5.336  0.00  0.00    +0.017 A 
ATOM      4  N   UNL     1       6.137   4.924   4.617  0.00  0.00    -0.347 N 
ATOM      5  C   UNL     1       4.883   4.883   4.082  0.00  0.00    +0.025 A 
ATOM      6  C   UNL     1       4.253   5.945   3.218  0.00  0.00    +0.064 C 
ATOM      7  C   UNL     1       7.612   3.442   6.086  0.00  0.00    +0.063 C 
ENDROOT
BRANCH   1  12
ATOM      8  N   UNL     1      -0.876   2.049   4.513  0.00  0.00    -0.366 N 
ATOM      9  C   UNL     1       0.202   2.485   3.921  0.00  0.00    +0.151 C 
ATOM     10  N   UNL     1       0.572   3.828   3.956  0.00  0.00    -0.236 N 
ATOM     11  N   UNL     1       1.873   4.092   4.430  0.00  0.00    -0.262 N 
ATOM     12  C   UNL     1       2.939   3.251   4.112  0.00  0.00    +0.060 C 
ATOM     13  C   UNL     1       2.829   2.070   3.519  0.00  0.00    +0.073 C 
ATOM     14  S   UNL     1       1.276   1.406   3.019  0.00  0.00    -0.061 S 
ATOM     15  C   UNL     1      -0.337   4.894   3.528  0.00  0.00    +0.156 C 
ATOM     16  H   UNL     1       2.061   4.974   5.061  0.00  0.00    +0.170 HD
ATOM     17  H   UNL     1      -1.521   2.748   5.065  0.00  0.00    +0.161 HD
BRANCH   8  18
ATOM     18  C   UNL     1      -1.227   0.628   4.443  0.00  0.00    +0.114 C 
BRANCH  18  19
ATOM     19  C   UNL     1      -1.158   0.017   5.844  0.00  0.00    +0.021 C 
BRANCH  19  21
ATOM     20  C   UNL     1      -1.456  -2.079   7.171  0.00  0.00    +0.004 C 
ATOM     21  C   UNL     1      -1.525  -1.467   5.771  0.00  0.00    -0.002 C 
ENDBRANCH  19  21
ENDBRANCH  18  19
ENDBRANCH   8  18
ENDBRANCH   1  12
BRANCH   4  22
ATOM     22  C   UNL     1       7.099   6.016   4.446  0.00  0.00    +0.126 C 
BRANCH  22  23
ATOM     23  C   UNL     1       6.910   7.042   5.565  0.00  0.00    +0.056 C 
BRANCH  23  24
ATOM     24  C   UNL     1       7.899   8.165   5.389  0.00  0.00    -0.046 A 
ATOM     25  C   UNL     1       9.142   8.091   5.989  0.00  0.00    +0.004 A 
ATOM     26  C   UNL     1      10.052   9.118   5.824  0.00  0.00    +0.000 A 
ATOM     27  C   UNL     1       9.715  10.225   5.067  0.00  0.00    +0.000 A 
ATOM     28  C   UNL     1       8.470  10.301   4.471  0.00  0.00    +0.000 A 
ATOM     29  C   UNL     1       7.562   9.271   4.632  0.00  0.00    +0.004 A 
ENDBRANCH  23  24
ENDBRANCH  22  23
ENDBRANCH   4  22
TORSDOF 7
