REMARK  Name = ZINC40449050
REMARK  6 active torsions:
REMARK  status: ('A' for Active; 'I' for Inactive)
REMARK    1  A    between atoms: C_1  and  O_2
REMARK    2  A    between atoms: O_2  and  C_3
REMARK    3  A    between atoms: C_3  and  C_5
REMARK    4  A    between atoms: C_7  and  N_21
REMARK    5  A    between atoms: C_10  and  O_11
REMARK    6  A    between atoms: O_11  and  C_12
REMARK                            x       y       z     vdW  Elec       q    Type
REMARK                         _______ _______ _______ _____ _____    ______ ____
ROOT
ATOM      1  C   UNL     1       0.842  -2.016  -1.026  0.00  0.00    +0.103 A 
ATOM      2  C   UNL     1       0.546  -2.735   0.135  0.00  0.00    +0.041 A 
ATOM      3  C   UNL     1       0.954  -4.052   0.253  0.00  0.00    +0.026 A 
ATOM      4  C   UNL     1       1.657  -4.661  -0.782  0.00  0.00    +0.026 A 
ATOM      5  C   UNL     1       1.953  -3.958  -1.932  0.00  0.00    +0.049 A 
ATOM      6  C   UNL     1       1.545  -2.639  -2.067  0.00  0.00    +0.143 A 
ENDROOT
BRANCH   3   7
ATOM      7  N   UNL     1       0.659  -4.773   1.415  0.00  0.00    -0.358 N 
ATOM      8  H   UNL     1       0.169  -4.349   2.138  0.00  0.00    +0.142 HD
ATOM      9  H   UNL     1       0.944  -5.696   1.499  0.00  0.00    +0.142 HD
ENDBRANCH   3   7
BRANCH   1  10
ATOM     10  C   UNL     1       0.411  -0.613  -1.159  0.00  0.00    +0.343 C 
ATOM     11  O   UNL     1       0.665   0.007  -2.173  0.00  0.00    -0.245 OA
BRANCH  10  13
ATOM     12  C   UNL     1      -0.651   1.344  -0.354  0.00  0.00    +0.280 C 
ATOM     13  O   UNL     1      -0.265  -0.018  -0.157  0.00  0.00    -0.464 OA
ENDBRANCH  10  13
ENDBRANCH   1  10
BRANCH   6  14
ATOM     14  O   UNL     1       1.831  -1.951  -3.201  0.00  0.00    -0.455 OA
BRANCH  14  15
ATOM     15  C   UNL     1       2.513  -2.597  -4.184  0.00  0.00    +0.129 A 
ATOM     16  C   UNL     1       1.824  -3.290  -5.169  0.00  0.00    +0.046 A 
ATOM     17  C   UNL     1       2.521  -3.943  -6.165  0.00  0.00    +0.007 A 
ATOM     18  C   UNL     1       3.906  -3.911  -6.185  0.00  0.00    -0.044 A 
ATOM     19  C   UNL     1       4.595  -3.221  -5.205  0.00  0.00    -0.041 A 
ATOM     20  C   UNL     1       3.898  -2.560  -4.208  0.00  0.00    +0.050 A 
ATOM     21  C   UNL     1       6.084  -3.337  -5.449  0.00  0.00    +0.036 C 
ATOM     22  C   UNL     1       6.244  -4.525  -6.420  0.00  0.00    +0.009 C 
ATOM     23  C   UNL     1       4.886  -4.537  -7.154  0.00  0.00    +0.036 C 
ENDBRANCH  14  15
ENDBRANCH   6  14
TORSDOF 5
