REMARK  Name = ZINC42027687
REMARK  8 active torsions:
REMARK  status: ('A' for Active; 'I' for Inactive)
REMARK    1  A    between atoms: C_1  and  C_2
REMARK    2  A    between atoms: C_2  and  C_3
REMARK    3  A    between atoms: C_2  and  C_4
REMARK    4  A    between atoms: C_4  and  C_6
REMARK    5  A    between atoms: C_4  and  N_18
REMARK    6  A    between atoms: C_6  and  N_7
REMARK    7  A    between atoms: C_8  and  C_10
REMARK    8  A    between atoms: C_15  and  O_16
REMARK                            x       y       z     vdW  Elec       q    Type
REMARK                         _______ _______ _______ _____ _____    ______ ____
ROOT
ATOM      1  N   UNL     1      -3.549  -0.387  -0.363  0.00  0.00    -0.310 N 
ATOM      2  C   UNL     1      -4.528  -0.584  -1.268  0.00  0.00    +0.248 C 
ATOM      3  O   UNL     1      -4.274  -0.548  -2.456  0.00  0.00    -0.270 OA
ATOM      4  H   UNL     1      -3.752  -0.416   0.585  0.00  0.00    +0.149 HD
ENDROOT
BRANCH   2   5
ATOM      5  C   UNL     1      -5.909  -0.843  -0.817  0.00  0.00    +0.079 A 
ATOM      6  C   UNL     1      -6.207  -0.880   0.548  0.00  0.00    +0.036 A 
ATOM      7  C   UNL     1      -7.499  -1.123   0.963  0.00  0.00    +0.042 A 
ATOM      8  C   UNL     1      -8.505  -1.331   0.031  0.00  0.00    +0.023 A 
ATOM      9  C   UNL     1      -8.223  -1.297  -1.320  0.00  0.00    +0.047 A 
ATOM     10  C   UNL     1      -6.930  -1.048  -1.754  0.00  0.00    +0.129 A 
ATOM     11 CL   UNL     1      -7.868  -1.169   2.658  0.00  0.00    -0.084 Cl
BRANCH  10  12
ATOM     12  O   UNL     1      -6.653  -1.009  -3.082  0.00  0.00    -0.506 OA
ATOM     13  H   UNL     1      -6.407  -1.865  -3.458  0.00  0.00    +0.292 HD
ENDBRANCH  10  12
ENDBRANCH   2   5
BRANCH   1  14
ATOM     14  C   UNL     1      -2.179  -0.130  -0.811  0.00  0.00    +0.123 C 
BRANCH  14  15
ATOM     15  C   UNL     1      -1.249  -0.068   0.403  0.00  0.00    +0.076 C 
BRANCH  15  16
ATOM     16  N   UNL     1      -1.393  -1.298   1.193  0.00  0.00    -0.293 NA
ATOM     17  C   UNL     1      -1.006  -1.073   2.593  0.00  0.00    +0.113 C 
ATOM     18  C   UNL     1      -1.227  -2.360   3.392  0.00  0.00    +0.175 C 
ATOM     19  O   UNL     1      -0.484  -3.423   2.789  0.00  0.00    -0.377 OA
ATOM     20  C   UNL     1      -0.836  -3.670   1.425  0.00  0.00    +0.175 C 
ATOM     21  C   UNL     1      -0.610  -2.396   0.606  0.00  0.00    +0.113 C 
ENDBRANCH  15  16
BRANCH  15  23
ATOM     22  C   UNL     1       0.328   1.294  -0.976  0.00  0.00    +0.009 C 
ATOM     23  C   UNL     1       0.200   0.067  -0.071  0.00  0.00    +0.001 C 
ATOM     24  C   UNL     1       1.120   0.228   1.141  0.00  0.00    +0.009 C 
ENDBRANCH  15  23
ENDBRANCH  14  15
ENDBRANCH   1  14
TORSDOF 6
