REMARK  Name = ZINC37577925
REMARK  7 active torsions:
REMARK  status: ('A' for Active; 'I' for Inactive)
REMARK    1  A    between atoms: C_1  and  C_2
REMARK    2  A    between atoms: N_7  and  S_8
REMARK    3  A    between atoms: S_8  and  C_11
REMARK    4  A    between atoms: C_15  and  C_17
REMARK    5  A    between atoms: C_18  and  C_19
REMARK    6  A    between atoms: C_19  and  C_20
REMARK    7  A    between atoms: C_20  and  O_21
REMARK                            x       y       z     vdW  Elec       q    Type
REMARK                         _______ _______ _______ _____ _____    ______ ____
ROOT
ATOM      1  C   UNL     1       0.868  -6.628  -0.036  0.00  0.00    +0.114 A 
ATOM      2  C   UNL     1       1.245  -7.197  -1.240  0.00  0.00    +0.029 A 
ATOM      3  C   UNL     1       2.001  -8.355  -1.258  0.00  0.00    +0.003 A 
ATOM      4  C   UNL     1       2.385  -8.950  -0.073  0.00  0.00    +0.017 A 
ATOM      5  C   UNL     1       2.009  -8.381   1.144  0.00  0.00    +0.027 A 
ATOM      6  C   UNL     1       1.250  -7.210   1.155  0.00  0.00    +0.046 A 
ENDROOT
BRANCH   1   7
ATOM      7  S   UNL     1      -0.096  -5.153  -0.024  0.00  0.00    +0.101 S 
ATOM      8  O   UNL     1      -0.774  -5.121   1.224  0.00  0.00    -0.146 OA
ATOM      9  O   UNL     1      -0.785  -5.108  -1.266  0.00  0.00    -0.146 OA
BRANCH   7  16
ATOM     10  C   UNL     1      -0.018   1.503   0.010  0.00  0.00    +0.053 C 
ATOM     11  C   UNL     1       0.002  -0.004   0.002  0.00  0.00    +0.006 A 
ATOM     12  C   UNL     1      -1.023  -0.856   0.002  0.00  0.00    +0.095 A 
ATOM     13  N   UNL     1      -0.798  -2.201  -0.006  0.00  0.00    -0.339 N 
ATOM     14  C   UNL     1       0.505  -2.649  -0.014  0.00  0.00    +0.192 A 
ATOM     15  S   UNL     1       1.406  -1.107  -0.018  0.00  0.00    -0.054 S 
ATOM     16  N   UNL     1       0.961  -3.878  -0.022  0.00  0.00    -0.103 NA
ATOM     17  H   UNL     1      -1.538  -2.828  -0.006  0.00  0.00    +0.167 HD
ENDBRANCH   7  16
ENDBRANCH   1   7
BRANCH   5  18
ATOM     18  C   UNL     1       2.403  -8.994   2.377  0.00  0.00    -0.066 C 
ATOM     19  C   UNL     1       2.727  -9.496   3.387  0.00  0.00    -0.095 C 
BRANCH  19  20
ATOM     20  C   UNL     1       3.132 -10.127   4.654  0.00  0.00    +0.117 C 
BRANCH  20  21
ATOM     21  C   UNL     1       2.592  -9.306   5.827  0.00  0.00    +0.168 C 
BRANCH  21  22
ATOM     22  O   UNL     1       2.986  -9.918   7.057  0.00  0.00    -0.394 OA
ATOM     23  H   UNL     1       2.677  -9.450   7.846  0.00  0.00    +0.209 HD
ENDBRANCH  21  22
ENDBRANCH  20  21
ENDBRANCH  19  20
ENDBRANCH   5  18
TORSDOF 6
