REMARK  Name = ZINC38688872
REMARK  5 active torsions:
REMARK  status: ('A' for Active; 'I' for Inactive)
REMARK    1  A    between atoms: C_4  and  C_7
REMARK    2  A    between atoms: C_11  and  S_20
REMARK    3  A    between atoms: N_13  and  C_14
REMARK    4  A    between atoms: S_20  and  C_21
REMARK    5  A    between atoms: C_21  and  C_22
REMARK                            x       y       z     vdW  Elec       q    Type
REMARK                         _______ _______ _______ _____ _____    ______ ____
ROOT
ATOM      1  C   UNL     1       3.745  -0.470  -0.228  0.00  0.00    +0.188 C 
ATOM      2  N   UNL     1       4.751   0.110  -1.146  0.00  0.00    -0.230 NA
ATOM      3  N   UNL     1       5.569  -1.040  -1.566  0.00  0.00    -0.226 NA
ATOM      4  C   UNL     1       4.568  -2.132  -1.693  0.00  0.00    +0.218 C 
ATOM      5  N   UNL     1       3.629  -1.897  -0.576  0.00  0.00    -0.284 N 
ATOM      6  H   UNL     1       4.307   0.547  -1.939  0.00  0.00    +0.143 HD
ATOM      7  H   UNL     1       6.021  -0.858  -2.450  0.00  0.00    +0.143 HD
ENDROOT
BRANCH   1  11
ATOM      8  C   UNL     1      -0.021   1.475  -0.762  0.00  0.00    +0.000 A 
ATOM      9  C   UNL     1       0.556   0.784  -1.812  0.00  0.00    +0.000 A 
ATOM     10  C   UNL     1       1.774   0.155  -1.639  0.00  0.00    +0.007 A 
ATOM     11  C   UNL     1       2.417   0.216  -0.416  0.00  0.00    -0.012 A 
ATOM     12  C   UNL     1       1.841   0.908   0.633  0.00  0.00    +0.007 A 
ATOM     13  C   UNL     1       0.622   1.536   0.460  0.00  0.00    +0.000 A 
ENDBRANCH   1  11
BRANCH   5  14
ATOM     14  C   UNL     1       2.796  -2.841   0.029  0.00  0.00    +0.033 A 
ATOM     15  C   UNL     1       2.042  -2.492   1.142  0.00  0.00    +0.023 A 
ATOM     16  C   UNL     1       1.220  -3.428   1.738  0.00  0.00    +0.002 A 
ATOM     17  C   UNL     1       1.145  -4.711   1.228  0.00  0.00    +0.000 A 
ATOM     18  C   UNL     1       1.894  -5.061   0.119  0.00  0.00    +0.002 A 
ATOM     19  C   UNL     1       2.715  -4.129  -0.485  0.00  0.00    +0.023 A 
ENDBRANCH   5  14
BRANCH   4  20
ATOM     20  S   UNL     1       3.707  -2.021  -3.286  0.00  0.00    -0.114 S 
BRANCH  20  21
ATOM     21  C   UNL     1       4.933  -2.602  -4.490  0.00  0.00    +0.146 C 
BRANCH  21  22
ATOM     22  C   UNL     1       4.306  -2.659  -5.859  0.00  0.00    +0.118 A 
ATOM     23  N   UNL     1       4.297  -1.680  -6.716  0.00  0.00    -0.232 NA
ATOM     24  C   UNL     1       3.650  -2.068  -7.845  0.00  0.00    +0.089 A 
ATOM     25  C   UNL     1       3.356  -1.432  -9.053  0.00  0.00    +0.030 A 
ATOM     26  C   UNL     1       2.672  -2.103 -10.027  0.00  0.00    +0.002 A 
ATOM     27  C   UNL     1       2.263  -3.414  -9.829  0.00  0.00    +0.002 A 
ATOM     28  C   UNL     1       2.542  -4.061  -8.644  0.00  0.00    +0.028 A 
ATOM     29  C   UNL     1       3.236  -3.396  -7.644  0.00  0.00    +0.066 A 
ATOM     30  N   UNL     1       3.671  -3.743  -6.380  0.00  0.00    -0.341 N 
ATOM     31  H   UNL     1       3.545  -4.600  -5.945  0.00  0.00    +0.167 HD
ENDBRANCH  21  22
ENDBRANCH  20  21
ENDBRANCH   4  20
TORSDOF 5
