REMARK  Name = ZINC39660470
REMARK  10 active torsions:
REMARK  status: ('A' for Active; 'I' for Inactive)
REMARK    1  A    between atoms: C_1  and  C_2
REMARK    2  A    between atoms: C_2  and  C_3
REMARK    3  A    between atoms: C_3  and  C_4
REMARK    4  A    between atoms: C_4  and  C_5
REMARK    5  A    between atoms: C_5  and  C_6
REMARK    6  A    between atoms: C_6  and  N_7
REMARK    7  A    between atoms: C_8  and  C_10
REMARK    8  A    between atoms: C_21  and  C_23
REMARK    9  A    between atoms: C_25  and  C_29
REMARK   10  A    between atoms: N_26  and  C_28
REMARK                            x       y       z     vdW  Elec       q    Type
REMARK                         _______ _______ _______ _____ _____    ______ ____
ROOT
ATOM      1  C   UNL     1      -5.844  -6.480   0.023  0.00  0.00    +0.100 C 
ATOM      2  C   UNL     1      -6.626  -5.939  -1.194  0.00  0.00    +0.121 C 
ATOM      3  N   UNL     1      -6.506  -7.002  -2.219  0.00  0.00    -0.295 N 
ATOM      4  C   UNL     1      -6.630  -8.266  -1.455  0.00  0.00    +0.115 C 
ATOM      5  C   UNL     1      -5.852  -8.008  -0.150  0.00  0.00    -0.004 C 
ATOM      6  C   UNL     1      -6.561  -8.669   1.028  0.00  0.00    -0.010 C 
ATOM      7  C   UNL     1      -6.506 -10.191   0.863  0.00  0.00    -0.082 C 
ATOM      8  N   UNL     1      -5.105 -10.627   0.802  0.00  0.00    +0.379 N 
ATOM      9  C   UNL     1      -4.456 -10.060  -0.387  0.00  0.00    -0.082 C 
ATOM     10  C   UNL     1      -4.425  -8.533  -0.274  0.00  0.00    -0.010 C 
ATOM     11  C   UNL     1      -6.325  -6.854  -3.547  0.00  0.00    +0.267 C 
ATOM     12  O   UNL     1      -6.246  -7.833  -4.263  0.00  0.00    -0.268 OA
ATOM     13  H   UNL     1      -4.620 -10.315   1.630  0.00  0.00    -0.086 HD
ATOM     14  H   UNL     1      -5.070 -11.634   0.754  0.00  0.00    -0.086 HD
ENDROOT
BRANCH  11  15
ATOM     15  C   UNL     1      -6.224  -5.501  -4.131  0.00  0.00    +0.147 A 
ATOM     16  C   UNL     1      -6.041  -5.186  -5.499  0.00  0.00    +0.057 A 
ATOM     17  C   UNL     1      -6.007  -3.834  -5.558  0.00  0.00    +0.037 A 
ATOM     18  N   UNL     1      -6.162  -3.375  -4.297  0.00  0.00    -0.271 N 
ATOM     19  N   UNL     1      -6.292  -4.357  -3.479  0.00  0.00    -0.167 NA
ATOM     20  C   UNL     1      -6.184  -1.960  -3.918  0.00  0.00    +0.172 C 
ATOM     21  C   UNL     1      -5.830  -2.998  -6.798  0.00  0.00    +0.065 C 
ENDBRANCH  11  15
BRANCH   1  23
ATOM     22  N   UNL     1      -3.760  -5.804   1.171  0.00  0.00    -0.315 N 
ATOM     23  C   UNL     1      -4.430  -5.958   0.012  0.00  0.00    +0.218 C 
ATOM     24  O   UNL     1      -3.895  -5.677  -1.039  0.00  0.00    -0.275 OA
ATOM     25  H   UNL     1      -4.188  -6.029   2.013  0.00  0.00    +0.149 HD
BRANCH  22  26
ATOM     26  C   UNL     1      -2.385  -5.297   1.161  0.00  0.00    +0.104 C 
BRANCH  26  27
ATOM     27  C   UNL     1      -1.860  -5.218   2.596  0.00  0.00    +0.019 C 
BRANCH  27  28
ATOM     28  C   UNL     1      -0.425  -4.688   2.585  0.00  0.00    +0.002 C 
BRANCH  28  29
ATOM     29  C   UNL     1       0.101  -4.609   4.020  0.00  0.00    -0.000 C 
BRANCH  29  31
ATOM     30  C   UNL     1       2.061  -4.001   5.444  0.00  0.00    +0.004 C 
ATOM     31  C   UNL     1       1.536  -4.080   4.009  0.00  0.00    -0.003 C 
ENDBRANCH  29  31
ENDBRANCH  28  29
ENDBRANCH  27  28
ENDBRANCH  26  27
ENDBRANCH  22  26
ENDBRANCH   1  23
TORSDOF 7
