REMARK  Name = ZINC09092741
REMARK  6 active torsions:
REMARK  status: ('A' for Active; 'I' for Inactive)
REMARK    1  A    between atoms: C_1  and  C_2
REMARK    2  A    between atoms: C_2  and  C_22
REMARK    3  A    between atoms: N_5  and  C_9
REMARK    4  A    between atoms: C_9  and  C_10
REMARK    5  A    between atoms: N_15  and  C_16
REMARK    6  A    between atoms: C_16  and  C_17
REMARK                            x       y       z     vdW  Elec       q    Type
REMARK                         _______ _______ _______ _____ _____    ______ ____
ROOT
ATOM      1  C   UNL     1      -0.662  -0.558   1.264  0.00  0.00    +0.047 C 
ATOM      2  C   UNL     1       0.002  -0.004   0.002  0.00  0.00    +0.135 C 
ATOM      3  C   UNL     1      -0.018   1.512   0.010  0.00  0.00    +0.251 C 
ATOM      4  O   UNL     1      -0.995   2.231   0.019  0.00  0.00    -0.272 OA
ATOM      5  N   UNL     1       1.274   1.894   0.000  0.00  0.00    -0.215 N 
ATOM      6  C   UNL     1       2.099   0.841  -0.013  0.00  0.00    +0.310 C 
ATOM      7  O   UNL     1       3.311   0.933  -0.025  0.00  0.00    -0.252 OA
ATOM      8  N   UNL     1       1.438  -0.331  -0.013  0.00  0.00    -0.281 N 
ATOM      9  H   UNL     1       1.831  -1.218  -0.022  0.00  0.00    +0.152 HD
ENDROOT
BRANCH   2  10
ATOM     10  C   UNL     1      -0.679  -0.537  -1.232  0.00  0.00    -0.012 A 
ATOM     11  C   UNL     1      -1.706   0.181  -1.818  0.00  0.00    +0.010 A 
ATOM     12  C   UNL     1      -2.333  -0.303  -2.950  0.00  0.00    +0.050 A 
ATOM     13  C   UNL     1      -1.935  -1.510  -3.501  0.00  0.00    +0.166 A 
ATOM     14  C   UNL     1      -0.901  -2.233  -2.911  0.00  0.00    +0.167 A 
ATOM     15  C   UNL     1      -0.274  -1.740  -1.779  0.00  0.00    +0.055 A 
ATOM     16  O   UNL     1      -0.699  -3.374  -3.634  0.00  0.00    -0.453 OA
ATOM     17  C   UNL     1      -1.887  -3.540  -4.430  0.00  0.00    +0.466 C 
ATOM     18  O   UNL     1      -2.381  -2.197  -4.593  0.00  0.00    -0.453 OA
ENDBRANCH   2  10
BRANCH   5  19
ATOM     19  C   UNL     1       1.720   3.289   0.002  0.00  0.00    +0.214 C 
BRANCH  19  20
ATOM     20  C   UNL     1       1.886   3.761   1.424  0.00  0.00    +0.238 C 
ATOM     21  O   UNL     1       1.655   3.006   2.344  0.00  0.00    -0.274 OA
ATOM     22  N   UNL     1       2.291   5.022   1.672  0.00  0.00    -0.239 N 
ATOM     23  C   UNL     1       2.440   5.444   2.943  0.00  0.00    +0.306 C 
ATOM     24  O   UNL     1       2.208   4.688   3.866  0.00  0.00    -0.252 OA
ATOM     25  N   UNL     1       2.845   6.705   3.192  0.00  0.00    -0.292 N 
ATOM     26  H   UNL     1       2.476   5.626   0.936  0.00  0.00    +0.159 HD
ATOM     27  H   UNL     1       3.030   7.309   2.455  0.00  0.00    +0.151 HD
BRANCH  25  28
ATOM     28  C   UNL     1       3.007   7.164   4.574  0.00  0.00    +0.180 C 
BRANCH  28  29
ATOM     29  C   UNL     1       3.465   8.600   4.576  0.00  0.00    +0.122 A 
ATOM     30  C   UNL     1       2.665   9.681   4.588  0.00  0.00    +0.046 A 
ATOM     31  C   UNL     1       3.509  10.815   4.586  0.00  0.00    +0.041 A 
ATOM     32  C   UNL     1       4.775  10.359   4.572  0.00  0.00    +0.195 A 
ATOM     33  O   UNL     1       4.742   9.017   4.572  0.00  0.00    -0.466 OA
ENDBRANCH  28  29
ENDBRANCH  25  28
ENDBRANCH  19  20
ENDBRANCH   5  19
TORSDOF 5
