REMARK  Name = ZINC65189610
REMARK  11 active torsions:
REMARK  status: ('A' for Active; 'I' for Inactive)
REMARK    1  A    between atoms: C_1  and  C_2
REMARK    2  A    between atoms: C_2  and  N_3
REMARK    3  A    between atoms: N_6  and  N_7
REMARK    4  A    between atoms: C_8  and  C_10
REMARK    5  A    between atoms: C_12  and  C_19
REMARK    6  A    between atoms: N_13  and  C_15
REMARK    7  A    between atoms: C_15  and  C_16
REMARK    8  A    between atoms: C_15  and  C_17
REMARK    9  A    between atoms: C_15  and  C_18
REMARK   10  A    between atoms: C_19  and  C_20
REMARK   11  A    between atoms: C_19  and  C_21
REMARK                            x       y       z     vdW  Elec       q    Type
REMARK                         _______ _______ _______ _____ _____    ______ ____
ROOT
ATOM      1  N   UNL     1       1.876   0.454  -2.858  0.00  0.00    -0.228 N 
ATOM      2  C   UNL     1       2.137  -0.434  -3.838  0.00  0.00    +0.280 C 
ATOM      3  O   UNL     1       1.904  -1.615  -3.667  0.00  0.00    -0.267 OA
ATOM      4  H   UNL     1       2.062   1.396  -2.995  0.00  0.00    +0.173 HD
ENDROOT
BRANCH   1   8
ATOM      5  N   UNL     1       1.333   2.212  -0.852  0.00  0.00    -0.298 N 
ATOM      6  C   UNL     1       1.075   0.903  -0.662  0.00  0.00    +0.316 C 
ATOM      7  O   UNL     1       0.606   0.523   0.393  0.00  0.00    -0.251 OA
ATOM      8  N   UNL     1       1.336   0.015  -1.642  0.00  0.00    -0.218 N 
ATOM      9  H   UNL     1       1.707   2.515  -1.694  0.00  0.00    +0.150 HD
ATOM     10  H   UNL     1       1.150  -0.927  -1.506  0.00  0.00    +0.174 HD
BRANCH   5  12
ATOM     11  C   UNL     1       1.431   4.582  -0.256  0.00  0.00    +0.024 C 
ATOM     12  C   UNL     1       1.049   3.177   0.213  0.00  0.00    +0.102 C 
ENDBRANCH   5  12
ENDBRANCH   1   8
BRANCH   2  13
ATOM     13  C   UNL     1       2.707   0.028  -5.120  0.00  0.00    +0.149 A 
ATOM     14  C   UNL     1       3.028  -0.778  -6.239  0.00  0.00    +0.058 A 
ATOM     15  C   UNL     1       3.517   0.074  -7.170  0.00  0.00    +0.043 A 
ATOM     16  N   UNL     1       3.487   1.313  -6.634  0.00  0.00    -0.262 N 
ATOM     17  N   UNL     1       3.008   1.270  -5.443  0.00  0.00    -0.166 NA
BRANCH  16  18
ATOM     18  C   UNL     1       3.932   2.531  -7.315  0.00  0.00    +0.056 C 
ATOM     19  C   UNL     1       3.223   2.648  -8.666  0.00  0.00    +0.036 C 
ATOM     20  C   UNL     1       3.592   3.750  -6.454  0.00  0.00    +0.036 C 
ATOM     21  C   UNL     1       5.444   2.469  -7.537  0.00  0.00    +0.036 C 
ENDBRANCH  16  18
BRANCH  15  22
ATOM     22  C   UNL     1       4.004  -0.293  -8.548  0.00  0.00    +0.031 C 
ATOM     23  C   UNL     1       4.711  -1.648  -8.495  0.00  0.00    +0.014 C 
ATOM     24  C   UNL     1       2.813  -0.376  -9.505  0.00  0.00    +0.014 C 
ENDBRANCH  15  22
ENDBRANCH   2  13
TORSDOF 5
