REMARK  Name = ZINC44978207
REMARK  5 active torsions:
REMARK  status: ('A' for Active; 'I' for Inactive)
REMARK    1  A    between atoms: C_1  and  C_2
REMARK    2  A    between atoms: C_5  and  C_9
REMARK    3  A    between atoms: C_7  and  N_8
REMARK    4  A    between atoms: C_11  and  C_14
REMARK    5  A    between atoms: C_19  and  C_22
REMARK                            x       y       z     vdW  Elec       q    Type
REMARK                         _______ _______ _______ _____ _____    ______ ____
ROOT
ATOM      1  C   UNL     1       0.061  -4.256  -0.029  0.00  0.00    +0.259 A 
ATOM      2  N   UNL     1       0.071  -5.018  -1.099  0.00  0.00    -0.192 NA
ATOM      3  C   UNL     1       0.088  -6.304  -0.744  0.00  0.00    +0.175 A 
ATOM      4  N   UNL     1       0.089  -6.387   0.557  0.00  0.00    -0.061 NA
ATOM      5  O   UNL     1       0.077  -5.056   1.051  0.00  0.00    -0.333 OA
ENDROOT
BRANCH   1  10
ATOM      6  C   UNL     1      -0.018   1.503   0.010  0.00  0.00    +0.045 C 
ATOM      7  C   UNL     1       0.002  -0.004   0.002  0.00  0.00    -0.030 A 
ATOM      8  C   UNL     1       0.006  -0.686  -1.200  0.00  0.00    +0.006 A 
ATOM      9  C   UNL     1       0.025  -2.066  -1.216  0.00  0.00    +0.013 A 
ATOM     10  C   UNL     1       0.041  -2.778  -0.015  0.00  0.00    +0.041 A 
ATOM     11  C   UNL     1       0.037  -2.090   1.198  0.00  0.00    +0.036 A 
ATOM     12  C   UNL     1       0.023  -0.703   1.203  0.00  0.00    +0.028 A 
BRANCH  12  13
ATOM     13  N   UNL     1       0.025  -0.009   2.416  0.00  0.00    -0.358 N 
ATOM     14  H   UNL     1       0.011   0.961   2.419  0.00  0.00    +0.142 HD
ATOM     15  H   UNL     1       0.039  -0.497   3.254  0.00  0.00    +0.142 HD
ENDBRANCH  12  13
ENDBRANCH   1  10
BRANCH   3  16
ATOM     16  C   UNL     1       0.104  -7.474  -1.694  0.00  0.00    +0.061 C 
ATOM     17  C   UNL     1       1.364  -8.308  -1.456  0.00  0.00    +0.011 C 
ATOM     18  C   UNL     1       1.380  -9.495  -2.421  0.00  0.00    +0.001 C 
ATOM     19  C   UNL     1       0.142 -10.362  -2.182  0.00  0.00    +0.003 C 
ATOM     20  C   UNL     1      -1.119  -9.529  -2.420  0.00  0.00    -0.013 C 
ATOM     21  C   UNL     1      -1.134  -8.341  -1.455  0.00  0.00    +0.014 C 
ATOM     22  C   UNL     1      -1.126  -9.015  -3.861  0.00  0.00    +0.007 C 
ENDBRANCH   3  16
TORSDOF 3
