REMARK  Name = ZINC12939969
REMARK  7 active torsions:
REMARK  status: ('A' for Active; 'I' for Inactive)
REMARK    1  A    between atoms: C_1  and  O_2
REMARK    2  A    between atoms: O_2  and  C_3
REMARK    3  A    between atoms: C_3  and  C_5
REMARK    4  A    between atoms: C_10  and  N_11
REMARK    5  A    between atoms: C_12  and  C_14
REMARK    6  A    between atoms: C_14  and  N_15
REMARK    7  A    between atoms: C_24  and  C_26
REMARK                            x       y       z     vdW  Elec       q    Type
REMARK                         _______ _______ _______ _____ _____    ______ ____
ROOT
ATOM      1  N   UNL     1      -4.029  -0.830  -0.527  0.00  0.00    -0.283 N 
ATOM      2  C   UNL     1      -4.983  -1.780  -0.482  0.00  0.00    +0.231 C 
ATOM      3  O   UNL     1      -4.685  -2.947  -0.627  0.00  0.00    -0.274 OA
ATOM      4  H   UNL     1      -4.260   0.098  -0.364  0.00  0.00    +0.155 HD
ENDROOT
BRANCH   1  10
ATOM      5  C   UNL     1      -1.659  -0.623  -0.065  0.00  0.00    +0.083 A 
ATOM      6  C   UNL     1      -0.340  -0.987  -0.354  0.00  0.00    +0.037 A 
ATOM      7  C   UNL     1      -0.081  -1.883  -1.369  0.00  0.00    +0.043 A 
ATOM      8  C   UNL     1      -1.122  -2.427  -2.106  0.00  0.00    +0.042 A 
ATOM      9  C   UNL     1      -2.429  -2.077  -1.833  0.00  0.00    +0.064 A 
ATOM     10  C   UNL     1      -2.710  -1.180  -0.809  0.00  0.00    +0.066 A 
ATOM     11 CL   UNL     1      -3.724  -2.763  -2.763  0.00  0.00    -0.082 Cl
ATOM     12 CL   UNL     1       1.558  -2.333  -1.726  0.00  0.00    -0.083 Cl
BRANCH   5  13
ATOM     13  C   UNL     1      -1.943   0.334   1.018  0.00  0.00    +0.341 C 
ATOM     14  O   UNL     1      -3.082   0.711   1.213  0.00  0.00    -0.245 OA
BRANCH  13  16
ATOM     15  C   UNL     1      -1.288   1.718   2.824  0.00  0.00    +0.280 C 
ATOM     16  O   UNL     1      -0.940   0.792   1.793  0.00  0.00    -0.464 OA
ENDBRANCH  13  16
ENDBRANCH   5  13
ENDBRANCH   1  10
BRANCH   2  17
ATOM     17  C   UNL     1      -6.421  -1.393  -0.251  0.00  0.00    +0.181 C 
BRANCH  17  18
ATOM     18  N   UNL     1      -7.258  -2.601  -0.245  0.00  0.00    -0.278 NA
ATOM     19  C   UNL     1      -7.410  -3.142  -1.599  0.00  0.00    +0.121 C 
ATOM     20  C   UNL     1      -8.348  -4.320  -1.594  0.00  0.00    -0.030 A 
ATOM     21  C   UNL     1      -8.332  -5.182  -2.682  0.00  0.00    +0.005 A 
ATOM     22  C   UNL     1      -9.177  -6.272  -2.721  0.00  0.00    +0.000 A 
ATOM     23  C   UNL     1     -10.046  -6.508  -1.671  0.00  0.00    +0.000 A 
ATOM     24  C   UNL     1     -10.062  -5.653  -0.588  0.00  0.00    +0.004 A 
ATOM     25  C   UNL     1      -9.212  -4.558  -0.546  0.00  0.00    -0.041 A 
ATOM     26  C   UNL     1      -9.257  -3.658   0.661  0.00  0.00    +0.063 C 
ATOM     27  C   UNL     1      -8.578  -2.325   0.345  0.00  0.00    +0.148 C 
BRANCH  27  28
ATOM     28  C   UNL     1      -8.409  -1.529   1.613  0.00  0.00    +0.228 C 
ATOM     29  O   UNL     1      -7.437  -1.707   2.316  0.00  0.00    -0.274 OA
ATOM     30  N   UNL     1      -9.338  -0.619   1.966  0.00  0.00    -0.328 N 
ATOM     31  H   UNL     1     -10.116  -0.476   1.404  0.00  0.00    +0.145 HD
ATOM     32  H   UNL     1      -9.230  -0.106   2.782  0.00  0.00    +0.145 HD
ENDBRANCH  27  28
ENDBRANCH  17  18
ENDBRANCH   2  17
TORSDOF 6
