REMARK  Name = ZINC11692697
REMARK  5 active torsions:
REMARK  status: ('A' for Active; 'I' for Inactive)
REMARK    1  A    between atoms: C_1  and  C_2
REMARK    2  A    between atoms: C_2  and  C_3
REMARK    3  A    between atoms: C_6  and  C_18
REMARK    4  A    between atoms: C_9  and  C_11
REMARK    5  A    between atoms: C_16  and  O_17
REMARK                            x       y       z     vdW  Elec       q    Type
REMARK                         _______ _______ _______ _____ _____    ______ ____
ROOT
ATOM      1  C   UNL     1       3.217   3.515  -2.099  0.00  0.00    +0.235 C 
ATOM      2  O   UNL     1       3.034   2.505  -2.746  0.00  0.00    -0.274 OA
ATOM      3  N   UNL     1       3.526   3.430  -0.790  0.00  0.00    -0.185 N 
ATOM      4  C   UNL     1       3.672   2.182  -0.024  0.00  0.00    +0.137 C 
ATOM      5  C   UNL     1       4.024   2.668   1.396  0.00  0.00    +0.087 C 
ATOM      6  C   UNL     1       4.038   4.175   1.272  0.00  0.00    +0.072 C 
ATOM      7  N   UNL     1       3.759   4.510   0.059  0.00  0.00    -0.181 NA
ENDROOT
BRANCH   6   8
ATOM      8  C   UNL     1       4.327   5.116   2.369  0.00  0.00    +0.039 A 
ATOM      9  C   UNL     1       4.611   4.636   3.649  0.00  0.00    +0.013 A 
ATOM     10  C   UNL     1       4.886   5.521   4.670  0.00  0.00    +0.001 A 
ATOM     11  C   UNL     1       4.869   6.886   4.434  0.00  0.00    +0.004 A 
ATOM     12  C   UNL     1       4.583   7.373   3.173  0.00  0.00    +0.046 A 
ATOM     13  C   UNL     1       4.311   6.498   2.134  0.00  0.00    +0.126 A 
BRANCH  13  14
ATOM     14  O   UNL     1       4.030   6.976   0.895  0.00  0.00    -0.506 OA
ATOM     15  H   UNL     1       3.090   7.139   0.740  0.00  0.00    +0.292 HD
ENDBRANCH  13  14
ENDBRANCH   6   8
BRANCH   4  16
ATOM     16  C   UNL     1       2.377   1.411  -0.015  0.00  0.00    -0.025 A 
ATOM     17  C   UNL     1       1.171   2.086   0.002  0.00  0.00    +0.005 A 
ATOM     18  C   UNL     1      -0.017   1.378   0.010  0.00  0.00    +0.000 A 
ATOM     19  C   UNL     1       0.002  -0.004   0.002  0.00  0.00    +0.000 A 
ATOM     20  C   UNL     1       1.208  -0.679  -0.013  0.00  0.00    +0.000 A 
ATOM     21  C   UNL     1       2.396   0.029  -0.022  0.00  0.00    +0.005 A 
ENDBRANCH   4  16
BRANCH   1  23
ATOM     22  C   UNL     1       2.743   4.680  -4.236  0.00  0.00    +0.013 C 
ATOM     23  C   UNL     1       3.099   4.864  -2.760  0.00  0.00    +0.094 C 
ENDBRANCH   1  23
TORSDOF 4
