REMARK  Name = ZINC11999216
REMARK  8 active torsions:
REMARK  status: ('A' for Active; 'I' for Inactive)
REMARK    1  A    between atoms: C_1  and  C_2
REMARK    2  A    between atoms: C_6  and  C_28
REMARK    3  A    between atoms: C_15  and  C_18
REMARK    4  A    between atoms: N_20  and  C_21
REMARK    5  A    between atoms: C_21  and  C_23
REMARK    6  A    between atoms: C_21  and  C_24
REMARK    7  A    between atoms: C_24  and  O_26
REMARK    8  A    between atoms: O_26  and  C_27
REMARK                            x       y       z     vdW  Elec       q    Type
REMARK                         _______ _______ _______ _____ _____    ______ ____
ROOT
ATOM      1  C   UNL     1      -2.566   3.846   0.047  0.00  0.00    +0.044 C 
ATOM      2  C   UNL     1      -1.235   3.139   0.031  0.00  0.00    -0.048 A 
ATOM      3  C   UNL     1      -1.199   1.746   0.017  0.00  0.00    +0.004 A 
ATOM      4  C   UNL     1      -0.013   1.076   0.008  0.00  0.00    +0.012 A 
ATOM      5  C   UNL     1       1.189   1.799   0.000  0.00  0.00    +0.022 A 
ATOM      6  C   UNL     1       2.444   1.161  -0.016  0.00  0.00    +0.051 A 
ATOM      7  N   UNL     1       3.528   1.909  -0.022  0.00  0.00    -0.219 NA
ATOM      8  C   UNL     1       3.457   3.239  -0.014  0.00  0.00    +0.219 A 
ATOM      9  N   UNL     1       2.311   3.890   0.001  0.00  0.00    -0.214 NA
ATOM     10  C   UNL     1       1.153   3.217   0.008  0.00  0.00    +0.077 A 
ATOM     11  C   UNL     1      -0.086   3.872   0.024  0.00  0.00    +0.032 A 
ATOM     12  N   UNL     1       4.634   3.966  -0.022  0.00  0.00    -0.300 N 
ATOM     13  C   UNL     1       4.688   4.892   1.116  0.00  0.00    +0.108 C 
ATOM     14  C   UNL     1       5.929   5.779   0.996  0.00  0.00    +0.032 C 
ATOM     15  C   UNL     1       7.180   4.896   0.972  0.00  0.00    +0.078 C 
ATOM     16  C   UNL     1       7.077   3.909  -0.194  0.00  0.00    +0.032 C 
ATOM     17  C   UNL     1       5.802   3.076  -0.039  0.00  0.00    +0.108 C 
ATOM     18  C   UNL     1       2.545  -0.342  -0.025  0.00  0.00    +0.066 C 
ENDROOT
BRANCH  15  19
ATOM     19  C   UNL     1       8.402   5.760   0.793  0.00  0.00    +0.217 C 
ATOM     20  O   UNL     1       9.121   5.602  -0.171  0.00  0.00    -0.275 OA
ATOM     21  N   UNL     1       8.697   6.708   1.705  0.00  0.00    -0.302 N 
ATOM     22  H   UNL     1       8.123   6.834   2.476  0.00  0.00    +0.150 HD
BRANCH  21  23
ATOM     23  C   UNL     1       9.885   7.547   1.531  0.00  0.00    +0.179 C 
ATOM     24  C   UNL     1      11.107   6.826   2.102  0.00  0.00    +0.040 C 
BRANCH  23  25
ATOM     25  C   UNL     1       9.688   8.853   2.257  0.00  0.00    +0.327 C 
ATOM     26  O   UNL     1       8.661   9.061   2.858  0.00  0.00    -0.249 OA
BRANCH  25  27
ATOM     27  O   UNL     1      10.654   9.785   2.236  0.00  0.00    -0.467 OA
ATOM     28  C   UNL     1      10.395  11.018   2.957  0.00  0.00    +0.280 C 
ENDBRANCH  25  27
ENDBRANCH  23  25
ENDBRANCH  21  23
ENDBRANCH  15  19
TORSDOF 4
