REMARK  Name = ZINC50034731
REMARK  8 active torsions:
REMARK  status: ('A' for Active; 'I' for Inactive)
REMARK    1  A    between atoms: C_1  and  C_2
REMARK    2  A    between atoms: C_4  and  C_28
REMARK    3  A    between atoms: C_5  and  N_9
REMARK    4  A    between atoms: C_6  and  C_8
REMARK    5  A    between atoms: N_12  and  C_13
REMARK    6  A    between atoms: C_13  and  C_15
REMARK    7  A    between atoms: C_13  and  C_16
REMARK    8  A    between atoms: C_18  and  C_21
REMARK                            x       y       z     vdW  Elec       q    Type
REMARK                         _______ _______ _______ _____ _____    ______ ____
ROOT
ATOM      1  N   UNL     1      -0.088  -4.275  -0.116  0.00  0.00    -0.269 N 
ATOM      2  C   UNL     1       0.310  -4.987   0.957  0.00  0.00    +0.304 C 
ATOM      3  O   UNL     1       0.642  -4.415   1.977  0.00  0.00    -0.252 OA
ATOM      4  N   UNL     1       0.340  -6.333   0.899  0.00  0.00    -0.288 N 
ATOM      5  H   UNL     1      -0.410  -4.732  -0.909  0.00  0.00    +0.156 HD
ATOM      6  H   UNL     1       0.076  -6.790   0.085  0.00  0.00    +0.151 HD
ENDROOT
BRANCH   1  11
ATOM      7  C   UNL     1       0.116   1.393   0.004  0.00  0.00    +0.044 C 
ATOM      8  C   UNL     1       0.062  -0.112  -0.028  0.00  0.00    -0.050 A 
ATOM      9  C   UNL     1       0.775  -0.808  -0.987  0.00  0.00    +0.008 A 
ATOM     10  C   UNL     1       0.727  -2.188  -1.019  0.00  0.00    -0.029 A 
ATOM     11  C   UNL     1      -0.038  -2.877  -0.086  0.00  0.00    +0.041 A 
ATOM     12  C   UNL     1      -0.752  -2.175   0.876  0.00  0.00    -0.029 A 
ATOM     13  C   UNL     1      -0.696  -0.795   0.906  0.00  0.00    +0.008 A 
ATOM     14  C   UNL     1      -1.584  -2.918   1.889  0.00  0.00    +0.045 C 
ATOM     15  C   UNL     1       1.504  -2.946  -2.064  0.00  0.00    +0.045 C 
ENDBRANCH   1  11
BRANCH   4  16
ATOM     16  C   UNL     1       0.773  -7.107   2.065  0.00  0.00    +0.160 C 
ATOM     17  C   UNL     1       2.299  -7.219   2.065  0.00  0.00    +0.038 C 
BRANCH  16  18
ATOM     18  C   UNL     1       0.168  -8.486   2.006  0.00  0.00    +0.248 A 
ATOM     19  N   UNL     1      -0.396  -9.113   2.998  0.00  0.00    -0.190 NA
ATOM     20  C   UNL     1      -0.826 -10.322   2.594  0.00  0.00    +0.202 A 
ATOM     21  N   UNL     1      -0.533 -10.468   1.325  0.00  0.00    -0.056 NA
ATOM     22  O   UNL     1       0.115  -9.271   0.922  0.00  0.00    -0.336 OA
BRANCH  20  23
ATOM     23  C   UNL     1      -1.518 -11.323   3.444  0.00  0.00    +0.023 A 
ATOM     24  C   UNL     1      -1.777 -11.042   4.784  0.00  0.00    +0.014 A 
ATOM     25  C   UNL     1      -2.421 -11.975   5.570  0.00  0.00    +0.039 A 
ATOM     26  C   UNL     1      -2.809 -13.190   5.029  0.00  0.00    +0.123 A 
ATOM     27  C   UNL     1      -2.553 -13.474   3.697  0.00  0.00    +0.039 A 
ATOM     28  C   UNL     1      -1.915 -12.544   2.902  0.00  0.00    +0.014 A 
ATOM     29  F   UNL     1      -3.440 -14.101   5.802  0.00  0.00    -0.205 F 
ENDBRANCH  20  23
ENDBRANCH  16  18
ENDBRANCH   4  16
TORSDOF 4
