REMARK  Name = ZINC19323229
REMARK  16 active torsions:
REMARK  status: ('A' for Active; 'I' for Inactive)
REMARK    1  A    between atoms: C_1  and  C_2
REMARK    2  A    between atoms: C_2  and  C_3
REMARK    3  A    between atoms: C_3  and  C_4
REMARK    4  A    between atoms: C_8  and  C_29
REMARK    5  A    between atoms: C_14  and  C_15
REMARK    6  A    between atoms: C_15  and  C_17
REMARK    7  A    between atoms: C_15  and  O_28
REMARK    8  A    between atoms: C_17  and  C_19
REMARK    9  A    between atoms: C_17  and  O_27
REMARK   10  A    between atoms: C_19  and  C_21
REMARK   11  A    between atoms: C_19  and  O_26
REMARK   12  A    between atoms: C_21  and  C_23
REMARK   13  A    between atoms: C_21  and  O_25
REMARK   14  A    between atoms: C_23  and  O_24
REMARK   15  A    between atoms: C_29  and  C_30
REMARK   16  A    between atoms: C_30  and  C_31
REMARK                            x       y       z     vdW  Elec       q    Type
REMARK                         _______ _______ _______ _____ _____    ______ ____
ROOT
ATOM      1  C   UNL     1      -0.075  -0.750   2.177  0.00  0.00    +0.028 C 
ATOM      2  C   UNL     1       0.796  -1.072   0.951  0.00  0.00    -0.061 C 
ATOM      3  N   UNL     1       2.118  -0.454   1.121  0.00  0.00    +0.393 N 
ATOM      4  C   UNL     1       2.845  -1.006   2.272  0.00  0.00    -0.061 C 
ATOM      5  C   UNL     1       2.073  -0.681   3.562  0.00  0.00    +0.028 C 
ATOM      6  C   UNL     1       0.680  -1.275   3.393  0.00  0.00    +0.144 C 
ATOM      7  O   UNL     1       0.216  -2.089   4.154  0.00  0.00    -0.296 OA
ATOM      8  C   UNL     1       1.898   0.844   3.645  0.00  0.00    +0.095 C 
ATOM      9  N   UNL     1       1.211   1.321   2.438  0.00  0.00    -0.311 NA
ATOM     10  C   UNL     1      -0.149   0.777   2.326  0.00  0.00    +0.095 C 
ATOM     11  C   UNL     1       1.997   1.007   1.234  0.00  0.00    +0.034 C 
ATOM     12  H   UNL     1       2.705  -0.694   0.222  0.00  0.00    -0.079 HD
ENDROOT
BRANCH   1  13
ATOM     13  C   UNL     1      -1.469  -1.371   2.055  0.00  0.00    +0.013 C 
BRANCH  13  15
ATOM     14  C   UNL     1      -3.686  -1.643   3.174  0.00  0.00    +0.004 C 
ATOM     15  C   UNL     1      -2.293  -1.022   3.296  0.00  0.00    -0.002 C 
ENDBRANCH  13  15
ENDBRANCH   1  13
BRANCH  11  16
ATOM     16  C   UNL     1       1.286   1.562  -0.002  0.00  0.00    +0.146 C 
BRANCH  16  17
ATOM     17  O   UNL     1       2.001   1.172  -1.177  0.00  0.00    -0.390 OA
ATOM     18  H   UNL     1       1.638   1.480  -2.168  0.00  0.00    +0.210 HD
ENDBRANCH  16  17
BRANCH  16  19
ATOM     19  C   UNL     1       1.236   3.089   0.081  0.00  0.00    +0.173 C 
BRANCH  19  20
ATOM     20  O   UNL     1       0.521   3.478   1.256  0.00  0.00    -0.387 OA
ATOM     21  H   UNL     1       0.381   4.545   1.486  0.00  0.00    +0.210 HD
ENDBRANCH  19  20
BRANCH  19  22
ATOM     22  C   UNL     1       0.525   3.643  -1.155  0.00  0.00    +0.176 C 
BRANCH  22  23
ATOM     23  O   UNL     1       1.239   3.253  -2.330  0.00  0.00    -0.387 OA
ATOM     24  H   UNL     1       0.877   3.561  -3.322  0.00  0.00    +0.210 HD
ENDBRANCH  22  23
BRANCH  22  25
ATOM     25  C   UNL     1       0.474   5.170  -1.073  0.00  0.00    +0.171 C 
BRANCH  25  26
ATOM     26  O   UNL     1      -0.240   5.560   0.102  0.00  0.00    -0.387 OA
ATOM     27  H   UNL     1      -0.380   6.626   0.332  0.00  0.00    +0.210 HD
ENDBRANCH  25  26
BRANCH  25  28
ATOM     28  C   UNL     1      -0.236   5.724  -2.309  0.00  0.00    +0.189 C 
BRANCH  28  29
ATOM     29  O   UNL     1      -0.181   7.152  -2.290  0.00  0.00    -0.392 OA
ATOM     30  H   UNL     1      -0.642   7.731  -3.103  0.00  0.00    +0.210 HD
ENDBRANCH  28  29
ENDBRANCH  25  28
ENDBRANCH  22  25
ENDBRANCH  19  22
ENDBRANCH  16  19
ENDBRANCH  11  16
BRANCH   5  31
ATOM     31  C   UNL     1       2.787  -1.233   4.798  0.00  0.00    +0.013 C 
BRANCH  31  32
ATOM     32  C   UNL     1       2.935  -2.750   4.666  0.00  0.00    -0.002 C 
ATOM     33  C   UNL     1       3.649  -3.302   5.902  0.00  0.00    +0.004 C 
ENDBRANCH  31  32
ENDBRANCH   5  31
TORSDOF 14
