REMARK  Name = ZINC15598426
REMARK  6 active torsions:
REMARK  status: ('A' for Active; 'I' for Inactive)
REMARK    1  A    between atoms: C_4  and  O_7
REMARK    2  A    between atoms: O_7  and  C_8
REMARK    3  A    between atoms: C_8  and  C_9
REMARK    4  A    between atoms: C_12  and  C_14
REMARK    5  A    between atoms: N_16  and  C_17
REMARK    6  A    between atoms: C_20  and  C_24
REMARK                            x       y       z     vdW  Elec       q    Type
REMARK                         _______ _______ _______ _____ _____    ______ ____
ROOT
ATOM      1  C   UNL     1       0.618   3.542  -0.040  0.00  0.00    +0.143 A 
ATOM      2  C   UNL     1      -0.720   3.561  -0.231  0.00  0.00    +0.049 A 
ATOM      3  C   UNL     1      -1.144   2.225  -0.314  0.00  0.00    +0.055 A 
ATOM      4  C   UNL     1      -0.031   1.449  -0.159  0.00  0.00    +0.190 A 
ATOM      5  O   UNL     1       1.029   2.268   0.004  0.00  0.00    -0.452 OA
ENDROOT
BRANCH   4   6
ATOM      6  C   UNL     1       0.006  -0.016  -0.172  0.00  0.00    +0.284 C 
ATOM      7  O   UNL     1      -1.021  -0.650  -0.328  0.00  0.00    -0.266 OA
ATOM      8  N   UNL     1       1.178  -0.662  -0.012  0.00  0.00    -0.279 N 
ATOM      9  H   UNL     1       2.006  -0.159   0.035  0.00  0.00    +0.155 HD
BRANCH   8  10
ATOM     10  C   UNL     1       1.200  -2.053   0.085  0.00  0.00    +0.035 A 
ATOM     11  C   UNL     1       2.274  -2.768  -0.437  0.00  0.00    +0.024 A 
ATOM     12  C   UNL     1       2.303  -4.141  -0.338  0.00  0.00    +0.022 A 
ATOM     13  C   UNL     1       1.246  -4.818   0.278  0.00  0.00    +0.070 A 
ATOM     14  C   UNL     1       0.165  -4.097   0.796  0.00  0.00    +0.060 A 
ATOM     15  C   UNL     1       0.147  -2.722   0.699  0.00  0.00    +0.044 A 
ATOM     16 CL   UNL     1      -1.150  -4.931   1.562  0.00  0.00    -0.082 Cl
BRANCH  13  17
ATOM     17  C   UNL     1       1.269  -6.246   0.376  0.00  0.00    +0.101 C 
ATOM     18  N   UNL     1       1.288  -7.380   0.455  0.00  0.00    -0.191 NA
ENDBRANCH  13  17
ENDBRANCH   8  10
ENDBRANCH   4   6
BRANCH   1  19
ATOM     19  C   UNL     1       1.501   4.755   0.102  0.00  0.00    +0.303 C 
BRANCH  19  20
ATOM     20  O   UNL     1       1.589   5.122   1.480  0.00  0.00    -0.484 OA
BRANCH  20  24
ATOM     21  C   UNL     1       3.910   8.406   2.398  0.00  0.00    +0.000 A 
ATOM     22  C   UNL     1       3.262   7.716   3.405  0.00  0.00    +0.004 A 
ATOM     23  C   UNL     1       2.484   6.616   3.100  0.00  0.00    +0.045 A 
ATOM     24  C   UNL     1       2.354   6.204   1.782  0.00  0.00    +0.121 A 
ATOM     25  C   UNL     1       3.010   6.894   0.774  0.00  0.00    +0.045 A 
ATOM     26  C   UNL     1       3.782   7.998   1.083  0.00  0.00    +0.004 A 
ENDBRANCH  20  24
ENDBRANCH  19  20
ENDBRANCH   1  19
TORSDOF 6
