REMARK  Name = ZINC13921771
REMARK  5 active torsions:
REMARK  status: ('A' for Active; 'I' for Inactive)
REMARK    1  A    between atoms: C_3  and  O_23
REMARK    2  A    between atoms: C_6  and  C_7
REMARK    3  A    between atoms: N_8  and  N_9
REMARK    4  A    between atoms: C_10  and  C_12
REMARK    5  A    between atoms: N_14  and  C_15
REMARK                            x       y       z     vdW  Elec       q    Type
REMARK                         _______ _______ _______ _____ _____    ______ ____
ROOT
ATOM      1  N   UNL     1      -2.444  -2.779   0.007  0.00  0.00    -0.199 N 
ATOM      2  C   UNL     1      -2.424  -4.126  -0.003  0.00  0.00    +0.318 C 
ATOM      3  O   UNL     1      -1.363  -4.717  -0.025  0.00  0.00    -0.263 OA
ATOM      4  H   UNL     1      -3.292  -2.307   0.025  0.00  0.00    +0.178 HD
ENDROOT
BRANCH   2   5
ATOM      5  C   UNL     1      -3.703  -4.891   0.015  0.00  0.00    +0.305 C 
ATOM      6  O   UNL     1      -4.764  -4.301   0.037  0.00  0.00    -0.265 OA
ATOM      7  N   UNL     1      -3.683  -6.239   0.005  0.00  0.00    -0.278 N 
ATOM      8  H   UNL     1      -2.840  -6.711  -0.080  0.00  0.00    +0.155 HD
BRANCH   7   9
ATOM      9  C   UNL     1      -4.876  -6.957   0.119  0.00  0.00    +0.037 A 
ATOM     10  C   UNL     1      -4.902  -8.159   0.814  0.00  0.00    +0.043 A 
ATOM     11  C   UNL     1      -6.084  -8.867   0.925  0.00  0.00    +0.044 A 
ATOM     12  C   UNL     1      -7.241  -8.378   0.344  0.00  0.00    +0.040 A 
ATOM     13  C   UNL     1      -7.219  -7.181  -0.349  0.00  0.00    +0.044 A 
ATOM     14  C   UNL     1      -6.041  -6.466  -0.459  0.00  0.00    +0.043 A 
ATOM     15 CL   UNL     1      -8.673  -6.572  -1.076  0.00  0.00    -0.083 Cl
ATOM     16 CL   UNL     1      -6.117 -10.370   1.793  0.00  0.00    -0.083 Cl
ENDBRANCH   7   9
ENDBRANCH   2   5
BRANCH   1  18
ATOM     17  C   UNL     1      -1.262  -0.760  -0.000  0.00  0.00    +0.138 C 
ATOM     18  N   UNL     1      -1.242  -2.060  -0.009  0.00  0.00    -0.187 NA
BRANCH  17  24
ATOM     19  C   UNL     1      -0.016   1.393  -0.007  0.00  0.00    +0.013 A 
ATOM     20  C   UNL     1       1.169   2.096  -0.023  0.00  0.00    +0.046 A 
ATOM     21  C   UNL     1       2.381   1.418  -0.048  0.00  0.00    +0.117 A 
ATOM     22  C   UNL     1       2.405   0.029  -0.059  0.00  0.00    +0.046 A 
ATOM     23  C   UNL     1       1.225  -0.682  -0.043  0.00  0.00    +0.013 A 
ATOM     24  C   UNL     1       0.003  -0.004  -0.017  0.00  0.00    -0.005 A 
BRANCH  21  25
ATOM     25  O   UNL     1       3.547   2.115  -0.064  0.00  0.00    -0.507 OA
ATOM     26  H   UNL     1       3.899   2.311   0.815  0.00  0.00    +0.292 HD
ENDBRANCH  21  25
ENDBRANCH  17  24
ENDBRANCH   1  18
TORSDOF 5
