REMARK  Name = ZINC37151521
REMARK  9 active torsions:
REMARK  status: ('A' for Active; 'I' for Inactive)
REMARK    1  A    between atoms: C_1  and  C_2
REMARK    2  A    between atoms: C_2  and  C_3
REMARK    3  A    between atoms: C_3  and  C_5
REMARK    4  A    between atoms: C_3  and  N_13
REMARK    5  A    between atoms: C_10  and  O_11
REMARK    6  A    between atoms: N_13  and  C_14
REMARK    7  A    between atoms: C_14  and  C_16
REMARK    8  A    between atoms: C_14  and  C_17
REMARK    9  A    between atoms: C_21  and  O_23
REMARK                            x       y       z     vdW  Elec       q    Type
REMARK                         _______ _______ _______ _____ _____    ______ ____
ROOT
ATOM      1  N   UNL     1       0.109  -0.197  -2.437  0.00  0.00    +0.388 N 
ATOM      2  H   UNL     1       0.601  -0.713  -3.152  0.00  0.00    -0.084 HD
ATOM      3  H   UNL     1      -0.873  -0.424  -2.474  0.00  0.00    -0.084 HD
ENDROOT
BRANCH   1   4
ATOM      4  C   UNL     1       0.289   1.243  -2.660  0.00  0.00    -0.043 C 
ATOM      5  C   UNL     1       1.782   1.563  -2.755  0.00  0.00    -0.009 C 
BRANCH   4   6
ATOM      6  C   UNL     1      -0.392   1.641  -3.945  0.00  0.00    -0.058 A 
ATOM      7  C   UNL     1      -0.324   0.810  -5.048  0.00  0.00    +0.002 A 
ATOM      8  C   UNL     1      -0.948   1.173  -6.228  0.00  0.00    +0.004 A 
ATOM      9  C   UNL     1      -1.640   2.366  -6.307  0.00  0.00    +0.045 A 
ATOM     10  C   UNL     1      -1.709   3.200  -5.201  0.00  0.00    +0.117 A 
ATOM     11  C   UNL     1      -1.088   2.832  -4.017  0.00  0.00    +0.047 A 
BRANCH  10  12
ATOM     12  O   UNL     1      -2.389   4.375  -5.277  0.00  0.00    -0.507 OA
ATOM     13  H   UNL     1      -3.323   4.305  -5.035  0.00  0.00    +0.292 HD
ENDBRANCH  10  12
ENDBRANCH   4   6
ENDBRANCH   1   4
BRANCH   1  14
ATOM     14  C   UNL     1       0.645  -0.559  -1.118  0.00  0.00    -0.037 C 
BRANCH  14  15
ATOM     15  C   UNL     1       0.594  -2.055  -0.947  0.00  0.00    -0.019 A 
ATOM     16  C   UNL     1      -0.249  -2.812  -1.738  0.00  0.00    +0.020 A 
ATOM     17  C   UNL     1      -0.297  -4.186  -1.582  0.00  0.00    +0.018 A 
ATOM     18  C   UNL     1       0.499  -4.805  -0.634  0.00  0.00    +0.019 A 
ATOM     19  C   UNL     1       1.343  -4.051   0.158  0.00  0.00    +0.047 A 
ATOM     20  C   UNL     1       1.397  -2.674  -0.001  0.00  0.00    +0.119 A 
ATOM     21 BR   UNL     1      -1.452  -5.220  -2.665  0.00  0.00    -0.050 Br
BRANCH  20  22
ATOM     22  O   UNL     1       2.230  -1.931   0.775  0.00  0.00    -0.507 OA
ATOM     23  H   UNL     1       1.831  -1.626   1.601  0.00  0.00    +0.292 HD
ENDBRANCH  20  22
ENDBRANCH  14  15
BRANCH  14  25
ATOM     24  C   UNL     1      -1.653  -0.331  -0.165  0.00  0.00    +0.002 C 
ATOM     25  C   UNL     1      -0.194   0.108  -0.026  0.00  0.00    -0.014 C 
ENDBRANCH  14  25
ENDBRANCH   1  14
TORSDOF 7
