REMARK  Name = ZINC02364496
REMARK  11 active torsions:
REMARK  status: ('A' for Active; 'I' for Inactive)
REMARK    1  A    between atoms: C_1  and  C_2
REMARK    2  A    between atoms: C_2  and  C_3
REMARK    3  A    between atoms: C_3  and  C_4
REMARK    4  A    between atoms: C_10  and  N_14
REMARK    5  A    between atoms: N_14  and  CA_15
REMARK    6  A    between atoms: CA_15  and  C_17
REMARK    7  A    between atoms: CA_15  and  C_19
REMARK    8  A    between atoms: C_17  and  C_18
REMARK    9  A    between atoms: C_19  and  O_20
REMARK   10  A    between atoms: C_25  and  C_28
REMARK   11  A    between atoms: C_25  and  C_29
REMARK                            x       y       z     vdW  Elec       q    Type
REMARK                         _______ _______ _______ _____ _____    ______ ____
ROOT
ATOM      1  C   UNL     1      -5.298   4.003   0.082  0.00  0.00    +0.051 A 
ATOM      2  C   UNL     1      -4.594   5.198   0.079  0.00  0.00    +0.004 A 
ATOM      3  C   UNL     1      -3.216   5.164   0.066  0.00  0.00    -0.023 A 
ATOM      4  C   UNL     1      -2.585   3.921   0.051  0.00  0.00    +0.070 A 
ATOM      5  C   UNL     1      -1.182   3.478   0.033  0.00  0.00    +0.124 A 
ATOM      6  C   UNL     1      -1.231   2.079   0.019  0.00  0.00    +0.196 A 
ATOM      7  C   UNL     1      -0.017   1.382   0.010  0.00  0.00    +0.166 A 
ATOM      8  N   UNL     1       1.118   2.075   0.003  0.00  0.00    -0.217 NA
ATOM      9  C   UNL     1       1.115   3.394   0.009  0.00  0.00    +0.224 A 
ATOM     10  N   UNL     1      -0.002   4.091   0.024  0.00  0.00    -0.231 NA
ATOM     11  O   UNL     1      -2.522   1.690   0.036  0.00  0.00    -0.432 OA
ATOM     12  C   UNL     1      -3.358   2.749   0.052  0.00  0.00    +0.231 A 
ATOM     13  N   UNL     1      -4.681   2.840   0.069  0.00  0.00    -0.217 NA
ATOM     14  C   UNL     1      -2.396   6.425   0.074  0.00  0.00    +0.070 C 
ATOM     15  C   UNL     1      -3.274   7.614  -0.326  0.00  0.00    +0.068 C 
ATOM     16  O   UNL     1      -4.477   7.572   0.450  0.00  0.00    -0.369 OA
ATOM     17  C   UNL     1      -5.347   6.501   0.084  0.00  0.00    +0.197 C 
ATOM     18  C   UNL     1      -2.528   8.920  -0.048  0.00  0.00    +0.041 C 
ATOM     19  C   UNL     1      -3.615   7.523  -1.815  0.00  0.00    +0.041 C 
ENDROOT
BRANCH   7  20
ATOM     20  N   UNL     1       0.002  -0.004   0.002  0.00  0.00    -0.321 N 
ATOM     21  H   UNL     1      -0.831  -0.500   0.007  0.00  0.00    +0.148 HD
BRANCH  20  22
ATOM     22  CA  UNL     1       1.281  -0.719  -0.014  0.00  0.00    +0.097 C 
BRANCH  22  23
ATOM     23  C   UNL     1       1.082  -2.106  -0.629  0.00  0.00    +0.021 C 
ATOM     24  C   UNL     1       0.681  -1.959  -2.099  0.00  0.00    +0.006 C 
ENDBRANCH  22  23
BRANCH  22  25
ATOM     25  C   UNL     1       1.801  -0.866   1.417  0.00  0.00    +0.178 C 
BRANCH  25  26
ATOM     26  O   UNL     1       0.911  -1.699   2.164  0.00  0.00    -0.393 OA
ATOM     27  H   UNL     1       1.179  -1.836   3.083  0.00  0.00    +0.209 HD
ENDBRANCH  25  26
ENDBRANCH  22  25
ENDBRANCH  20  22
ENDBRANCH   7  20
BRANCH   1  28
ATOM     28  C   UNL     1      -6.805   4.036   0.102  0.00  0.00    +0.055 C 
BRANCH  28  30
ATOM     29  C   UNL     1      -8.825   4.075   1.570  0.00  0.00    +0.004 C 
ATOM     30  C   UNL     1      -7.296   4.041   1.550  0.00  0.00    +0.003 C 
ENDBRANCH  28  30
ENDBRANCH   1  28
TORSDOF 7
