REMARK  Name = ZINC48690058
REMARK  4 active torsions:
REMARK  status: ('A' for Active; 'I' for Inactive)
REMARK    1  A    between atoms: C_1  and  C_2
REMARK    2  A    between atoms: C_8  and  N_10
REMARK    3  A    between atoms: C_11  and  C_13
REMARK    4  A    between atoms: N_15  and  C_16
REMARK                            x       y       z     vdW  Elec       q    Type
REMARK                         _______ _______ _______ _____ _____    ______ ____
ROOT
ATOM      1  C   UNL     1       4.197   0.642   2.377  0.00  0.00    +0.303 C 
ATOM      2  O   UNL     1       4.722   0.950   1.327  0.00  0.00    -0.265 OA
ATOM      3  N   UNL     1       4.874   0.776   3.535  0.00  0.00    -0.276 N 
ATOM      4  H   UNL     1       4.429   0.607   4.380  0.00  0.00    +0.155 HD
ENDROOT
BRANCH   3   5
ATOM      5  C   UNL     1       6.219   1.160   3.517  0.00  0.00    +0.056 A 
ATOM      6  C   UNL     1       6.997   0.912   2.392  0.00  0.00    +0.072 A 
ATOM      7  C   UNL     1       8.326   1.292   2.377  0.00  0.00    +0.144 A 
ATOM      8  C   UNL     1       8.883   1.923   3.490  0.00  0.00    +0.077 A 
ATOM      9  C   UNL     1       8.105   2.170   4.610  0.00  0.00    +0.048 A 
ATOM     10  C   UNL     1       6.774   1.795   4.622  0.00  0.00    +0.064 A 
ATOM     11 CL   UNL     1       5.798   2.110   6.022  0.00  0.00    -0.082 Cl
ATOM     12  N   UNL     1      10.233   2.301   3.459  0.00  0.00    -0.280 N 
ATOM     13  C   UNL     1      10.875   2.340   2.271  0.00  0.00    +0.255 C 
ATOM     14  O   UNL     1      12.051   2.635   2.224  0.00  0.00    -0.272 OA
ATOM     15  C   UNL     1      10.125   2.017   1.005  0.00  0.00    +0.325 C 
ATOM     16  O   UNL     1       9.101   1.058   1.285  0.00  0.00    -0.481 OA
ATOM     17  H   UNL     1      10.699   2.531   4.279  0.00  0.00    +0.155 HD
ENDBRANCH   3   5
BRANCH   1  19
ATOM     18  N   UNL     1       2.122  -0.021   1.230  0.00  0.00    -0.304 N 
ATOM     19  C   UNL     1       2.800   0.114   2.387  0.00  0.00    +0.300 C 
ATOM     20  O   UNL     1       2.275  -0.194   3.437  0.00  0.00    -0.265 OA
ATOM     21  H   UNL     1       2.542   0.226   0.391  0.00  0.00    +0.149 HD
BRANCH  18  28
ATOM     22  C   UNL     1      -0.025   1.495   0.013  0.00  0.00    +0.009 C 
ATOM     23  C   UNL     1       0.008  -0.035   0.001  0.00  0.00    +0.006 C 
ATOM     24  C   UNL     1      -1.423  -0.576   0.011  0.00  0.00    +0.005 C 
ATOM     25  C   UNL     1      -1.391  -2.105  -0.000  0.00  0.00    +0.000 C 
ATOM     26  C   UNL     1      -0.646  -2.609   1.238  0.00  0.00    +0.002 C 
ATOM     27  C   UNL     1       0.785  -2.068   1.228  0.00  0.00    +0.022 C 
ATOM     28  C   UNL     1       0.752  -0.538   1.240  0.00  0.00    +0.076 C 
ENDBRANCH  18  28
ENDBRANCH   1  19
TORSDOF 3
