REMARK  Name = ZINC12894462
REMARK  10 active torsions:
REMARK  status: ('A' for Active; 'I' for Inactive)
REMARK    1  A    between atoms: C_1  and  C_2
REMARK    2  A    between atoms: C_2  and  C_4
REMARK    3  A    between atoms: C_2  and  O_19
REMARK    4  A    between atoms: C_16  and  C_17
REMARK    5  A    between atoms: C_16  and  C_18
REMARK    6  A    between atoms: O_19  and  C_20
REMARK    7  A    between atoms: C_20  and  C_22
REMARK    8  A    between atoms: C_22  and  C_23
REMARK    9  A    between atoms: C_23  and  C_25
REMARK   10  A    between atoms: C_23  and  N_32
REMARK                            x       y       z     vdW  Elec       q    Type
REMARK                         _______ _______ _______ _____ _____    ______ ____
ROOT
ATOM      1  O   UNL     1      -1.024   1.360  -3.399  0.00  0.00    -0.452 OA
ENDROOT
BRANCH   1   3
ATOM      2  C   UNL     1      -1.931   3.257  -4.628  0.00  0.00    +0.062 C 
ATOM      3  C   UNL     1      -0.898   2.128  -4.625  0.00  0.00    +0.259 C 
BRANCH   3   4
ATOM      4  C   UNL     1      -1.136   1.227  -5.809  0.00  0.00    +0.261 C 
ATOM      5  O   UNL     1      -1.971   0.349  -5.745  0.00  0.00    -0.271 OA
ATOM      6  N   UNL     1      -0.421   1.396  -6.939  0.00  0.00    -0.252 N 
ATOM      7  C   UNL     1       0.565   2.391  -7.030  0.00  0.00    +0.059 A 
ATOM      8  C   UNL     1       0.466   3.564  -6.303  0.00  0.00    +0.025 A 
ATOM      9  C   UNL     1       1.452   4.527  -6.417  0.00  0.00    +0.002 A 
ATOM     10  C   UNL     1       2.533   4.320  -7.255  0.00  0.00    +0.002 A 
ATOM     11  C   UNL     1       2.644   3.141  -7.981  0.00  0.00    +0.025 A 
ATOM     12  C   UNL     1       1.658   2.173  -7.873  0.00  0.00    +0.055 A 
ATOM     13  N   UNL     1       1.743   0.981  -8.601  0.00  0.00    -0.282 N 
ATOM     14  C   UNL     1       0.675   0.169  -8.720  0.00  0.00    +0.241 C 
ATOM     15  O   UNL     1       0.784  -0.880  -9.318  0.00  0.00    -0.273 OA
ATOM     16  C   UNL     1      -0.653   0.549  -8.118  0.00  0.00    +0.113 C 
ATOM     17  C   UNL     1      -1.405  -0.716  -7.699  0.00  0.00    +0.042 C 
ATOM     18  C   UNL     1      -1.480   1.320  -9.149  0.00  0.00    +0.042 C 
ATOM     19  H   UNL     1       2.581   0.736  -9.024  0.00  0.00    +0.155 HD
ENDBRANCH   3   4
ENDBRANCH   1   3
BRANCH   1  20
ATOM     20  C   UNL     1      -0.288   1.761  -2.351  0.00  0.00    +0.310 C 
ATOM     21  O   UNL     1       0.437   2.722  -2.454  0.00  0.00    -0.251 OA
BRANCH  20  22
ATOM     22  C   UNL     1      -0.366   1.012  -1.045  0.00  0.00    +0.147 C 
BRANCH  22  23
ATOM     23  C   UNL     1       0.564   1.670  -0.024  0.00  0.00    +0.117 C 
BRANCH  23  24
ATOM     24  C   UNL     1       0.395   0.999   1.315  0.00  0.00    -0.008 A 
ATOM     25  C   UNL     1      -0.232  -0.230   1.398  0.00  0.00    +0.007 A 
ATOM     26  C   UNL     1      -0.384  -0.848   2.625  0.00  0.00    +0.000 A 
ATOM     27  C   UNL     1       0.083  -0.232   3.772  0.00  0.00    +0.001 A 
ATOM     28  C   UNL     1       0.705   0.999   3.691  0.00  0.00    +0.020 A 
ATOM     29  C   UNL     1       0.861   1.616   2.462  0.00  0.00    +0.046 A 
ATOM     30 CL   UNL     1       1.642   3.163   2.360  0.00  0.00    -0.083 Cl
ENDBRANCH  23  24
BRANCH  23  31
ATOM     31  N   UNL     1       1.953   1.531  -0.467  0.00  0.00    -0.292 N 
ATOM     32  C   UNL     1       2.462   0.307  -0.713  0.00  0.00    +0.298 C 
ATOM     33  O   UNL     1       1.796  -0.685  -0.490  0.00  0.00    -0.253 OA
ATOM     34  N   UNL     1       3.711   0.184  -1.206  0.00  0.00    -0.313 N 
ATOM     35  H   UNL     1       2.505   2.319  -0.588  0.00  0.00    +0.151 HD
ATOM     36  H   UNL     1       4.242   0.975  -1.385  0.00  0.00    +0.146 HD
ATOM     37  H   UNL     1       4.077  -0.697  -1.383  0.00  0.00    +0.146 HD
ENDBRANCH  23  31
ENDBRANCH  22  23
ENDBRANCH  20  22
ENDBRANCH   1  20
TORSDOF 7
