REMARK  Name = ZINC40724076
REMARK  4 active torsions:
REMARK  status: ('A' for Active; 'I' for Inactive)
REMARK    1  A    between atoms: C_4  and  C_7
REMARK    2  A    between atoms: C_7  and  N_8
REMARK    3  A    between atoms: C_16  and  N_22
REMARK    4  A    between atoms: C_17  and  N_21
REMARK                            x       y       z     vdW  Elec       q    Type
REMARK                         _______ _______ _______ _____ _____    ______ ____
ROOT
ATOM      1  N   UNL     1       4.159  -0.971   1.349  0.00  0.00    -0.264 N 
ATOM      2  C   UNL     1       3.796  -2.150   1.993  0.00  0.00    +0.127 A 
ATOM      3  C   UNL     1       3.006  -3.083   1.329  0.00  0.00    +0.044 A 
ATOM      4  C   UNL     1       2.652  -4.250   1.980  0.00  0.00    +0.005 A 
ATOM      5  C   UNL     1       3.102  -4.446   3.280  0.00  0.00    +0.020 A 
ATOM      6  C   UNL     1       3.883  -3.478   3.878  0.00  0.00    +0.113 A 
ATOM      7  N   UNL     1       4.209  -2.376   3.230  0.00  0.00    -0.240 NA
ATOM      8  C   UNL     1       5.090  -0.118   1.934  0.00  0.00    +0.153 A 
ATOM      9  C   UNL     1       6.441  -0.203   1.595  0.00  0.00    +0.105 A 
ATOM     10  C   UNL     1       7.332   0.678   2.211  0.00  0.00    +0.142 A 
ATOM     11  N   UNL     1       6.862   1.559   3.091  0.00  0.00    -0.219 NA
ATOM     12  C   UNL     1       5.578   1.606   3.383  0.00  0.00    +0.225 A 
ATOM     13  N   UNL     1       4.704   0.797   2.820  0.00  0.00    -0.218 NA
ENDROOT
BRANCH  10  14
ATOM     14  N   UNL     1       8.688   0.635   1.910  0.00  0.00    -0.342 N 
ATOM     15  H   UNL     1       9.022  -0.011   1.268  0.00  0.00    +0.144 HD
ATOM     16  H   UNL     1       9.300   1.250   2.343  0.00  0.00    +0.144 HD
ENDBRANCH  10  14
BRANCH   9  17
ATOM     17  N   UNL     1       6.892  -1.149   0.661  0.00  0.00    -0.353 N 
ATOM     18  H   UNL     1       6.253  -1.700   0.182  0.00  0.00    +0.143 HD
ATOM     19  H   UNL     1       7.842  -1.252   0.495  0.00  0.00    +0.143 HD
ENDBRANCH   9  17
BRANCH   1  20
ATOM     20  C   UNL     1       3.563  -0.629   0.056  0.00  0.00    +0.149 C 
BRANCH  20  24
ATOM     21  C   UNL     1       0.007   1.653   0.684  0.00  0.00    +0.000 A 
ATOM     22  C   UNL     1       1.225   2.293   0.554  0.00  0.00    +0.000 A 
ATOM     23  C   UNL     1       2.376   1.555   0.351  0.00  0.00    +0.005 A 
ATOM     24  C   UNL     1       2.308   0.176   0.278  0.00  0.00    -0.030 A 
ATOM     25  C   UNL     1       1.090  -0.464   0.409  0.00  0.00    +0.005 A 
ATOM     26  C   UNL     1      -0.060   0.275   0.611  0.00  0.00    +0.000 A 
ENDBRANCH  20  24
ENDBRANCH   1  20
TORSDOF 4
