REMARK  Name = ZINC20115370
REMARK  11 active torsions:
REMARK  status: ('A' for Active; 'I' for Inactive)
REMARK    1  A    between atoms: C_1  and  C_2
REMARK    2  A    between atoms: C_5  and  O_9
REMARK    3  A    between atoms: C_7  and  C_8
REMARK    4  A    between atoms: O_9  and  C_10
REMARK    5  A    between atoms: C_10  and  C_12
REMARK    6  A    between atoms: C_10  and  C_13
REMARK    7  A    between atoms: N_15  and  N_16
REMARK    8  A    between atoms: C_17  and  C_18
REMARK    9  A    between atoms: C_17  and  C_19
REMARK   10  A    between atoms: C_21  and  O_26
REMARK   11  A    between atoms: C_24  and  O_25
REMARK                            x       y       z     vdW  Elec       q    Type
REMARK                         _______ _______ _______ _____ _____    ______ ____
ROOT
ATOM      1  C   UNL     1       0.805  -6.038  -1.269  0.00  0.00    +0.273 C 
ATOM      2  O   UNL     1       1.232  -6.454  -0.212  0.00  0.00    -0.270 OA
ATOM      3  N   UNL     1       0.826  -6.828  -2.361  0.00  0.00    -0.204 N 
ATOM      4  H   UNL     1       0.485  -6.495  -3.207  0.00  0.00    +0.177 HD
ENDROOT
BRANCH   3   5
ATOM      5  N   UNL     1       1.339  -8.128  -2.276  0.00  0.00    -0.184 NA
ATOM      6  C   UNL     1       1.454  -8.852  -3.348  0.00  0.00    +0.067 C 
ATOM      7  C   UNL     1       2.097 -10.213  -3.272  0.00  0.00    +0.068 C 
BRANCH   6   8
ATOM      8  C   UNL     1       0.956  -8.343  -4.638  0.00  0.00    +0.042 A 
ATOM      9  C   UNL     1       1.554  -7.228  -5.230  0.00  0.00    +0.058 A 
ATOM     10  C   UNL     1       1.081  -6.756  -6.442  0.00  0.00    +0.118 A 
ATOM     11  C   UNL     1       0.015  -7.388  -7.069  0.00  0.00    +0.049 A 
ATOM     12  C   UNL     1      -0.582  -8.491  -6.489  0.00  0.00    +0.049 A 
ATOM     13  C   UNL     1      -0.116  -8.978  -5.279  0.00  0.00    +0.126 A 
BRANCH  13  14
ATOM     14  O   UNL     1      -0.700 -10.067  -4.713  0.00  0.00    -0.506 OA
ATOM     15  H   UNL     1      -1.483  -9.862  -4.183  0.00  0.00    +0.292 HD
ENDBRANCH  13  14
BRANCH  10  16
ATOM     16  O   UNL     1       1.661  -5.671  -7.020  0.00  0.00    -0.507 OA
ATOM     17  H   UNL     1       2.394  -5.886  -7.613  0.00  0.00    +0.292 HD
ENDBRANCH  10  16
ENDBRANCH   6   8
ENDBRANCH   3   5
BRANCH   1  18
ATOM     18  C   UNL     1       0.253  -4.639  -1.361  0.00  0.00    +0.257 C 
ATOM     19  C   UNL     1      -1.242  -4.701  -1.681  0.00  0.00    +0.062 C 
BRANCH  18  20
ATOM     20  O   UNL     1       0.446  -3.968  -0.114  0.00  0.00    -0.480 OA
BRANCH  20  25
ATOM     21  C   UNL     1       0.526   1.662  -0.226  0.00  0.00    +0.044 C 
ATOM     22  C   UNL     1       0.505   0.156  -0.196  0.00  0.00    -0.047 A 
ATOM     23  C   UNL     1       0.402  -0.557  -1.377  0.00  0.00    +0.007 A 
ATOM     24  C   UNL     1       0.382  -1.938  -1.352  0.00  0.00    +0.046 A 
ATOM     25  C   UNL     1       0.466  -2.610  -0.141  0.00  0.00    +0.122 A 
ATOM     26  C   UNL     1       0.570  -1.893   1.042  0.00  0.00    +0.049 A 
ATOM     27  C   UNL     1       0.594  -0.512   1.012  0.00  0.00    -0.044 A 
ATOM     28  C   UNL     1       0.713   0.268   2.296  0.00  0.00    +0.044 C 
ENDBRANCH  20  25
ENDBRANCH  18  20
ENDBRANCH   1  18
TORSDOF 7
