REMARK  Name = ZINC16655336
REMARK  10 active torsions:
REMARK  status: ('A' for Active; 'I' for Inactive)
REMARK    1  A    between atoms: C_1  and  N_2
REMARK    2  A    between atoms: C_5  and  C_18
REMARK    3  A    between atoms: C_6  and  N_17
REMARK    4  A    between atoms: N_7  and  C_10
REMARK    5  A    between atoms: C_10  and  C_11
REMARK    6  A    between atoms: C_18  and  C_20
REMARK    7  A    between atoms: C_20  and  O_21
REMARK    8  A    between atoms: O_21  and  C_22
REMARK    9  A    between atoms: C_22  and  C_24
REMARK   10  A    between atoms: C_29  and  N_30
REMARK                            x       y       z     vdW  Elec       q    Type
REMARK                         _______ _______ _______ _____ _____    ______ ____
ROOT
ATOM      1  C   UNL     1       3.515   2.362  -0.020  0.00  0.00    +0.157 C 
ATOM      2  N   UNL     1       2.260   1.609   0.030  0.00  0.00    -0.263 N 
ATOM      3  C   UNL     1       2.291   0.261   0.016  0.00  0.00    +0.269 A 
ATOM      4  O   UNL     1       3.351  -0.336  -0.038  0.00  0.00    -0.267 OA
ATOM      5  C   UNL     1       1.020  -0.473   0.067  0.00  0.00    +0.123 A 
ATOM      6  C   UNL     1      -0.169   0.275   0.128  0.00  0.00    +0.116 A 
ATOM      7  N   UNL     1      -0.091   1.639   0.137  0.00  0.00    -0.277 N 
ATOM      8  C   UNL     1       1.092   2.270   0.089  0.00  0.00    +0.333 A 
ATOM      9  O   UNL     1       1.108   3.486   0.099  0.00  0.00    -0.246 OA
ENDROOT
BRANCH   6  10
ATOM     10  N   UNL     1      -1.377  -0.349   0.177  0.00  0.00    -0.344 N 
ATOM     11  H   UNL     1      -2.187   0.171   0.297  0.00  0.00    +0.144 HD
ATOM     12  H   UNL     1      -1.428  -1.314   0.092  0.00  0.00    +0.144 HD
ENDBRANCH   6  10
BRANCH   5  13
ATOM     13  C   UNL     1       0.992  -1.884   0.054  0.00  0.00    +0.209 C 
ATOM     14  O   UNL     1      -0.069  -2.470  -0.011  0.00  0.00    -0.288 OA
BRANCH  13  15
ATOM     15  C   UNL     1       2.280  -2.663   0.121  0.00  0.00    +0.312 C 
BRANCH  15  16
ATOM     16  O   UNL     1       1.988  -4.085   0.094  0.00  0.00    -0.453 OA
BRANCH  16  17
ATOM     17  C   UNL     1       3.039  -4.927   0.147  0.00  0.00    +0.341 C 
ATOM     18  O   UNL     1       4.169  -4.485   0.215  0.00  0.00    -0.245 OA
BRANCH  17  19
ATOM     19  C   UNL     1       2.817  -6.383   0.123  0.00  0.00    +0.081 A 
ATOM     20  C   UNL     1       1.533  -6.897  -0.078  0.00  0.00    +0.032 A 
ATOM     21  C   UNL     1       1.334  -8.260  -0.105  0.00  0.00    +0.019 A 
ATOM     22  C   UNL     1       2.401  -9.127   0.078  0.00  0.00    +0.017 A 
ATOM     23  C   UNL     1       3.673  -8.636   0.283  0.00  0.00    +0.024 A 
ATOM     24  C   UNL     1       3.895  -7.265   0.308  0.00  0.00    +0.039 A 
ATOM     25 BR   UNL     1      -0.404  -8.952  -0.386  0.00  0.00    -0.050 Br
BRANCH  24  26
ATOM     26  N   UNL     1       5.175  -6.768   0.514  0.00  0.00    -0.357 N 
ATOM     27  H   UNL     1       5.297  -5.879   0.883  0.00  0.00    +0.142 HD
ATOM     28  H   UNL     1       5.947  -7.310   0.289  0.00  0.00    +0.142 HD
ENDBRANCH  24  26
ENDBRANCH  17  19
ENDBRANCH  16  17
ENDBRANCH  15  16
ENDBRANCH  13  15
ENDBRANCH   5  13
BRANCH   7  29
ATOM     29  C   UNL     1      -1.324   2.427   0.194  0.00  0.00    +0.163 C 
BRANCH  29  30
ATOM     30  C   UNL     1      -1.690   2.685   1.633  0.00  0.00    -0.028 A 
ATOM     31  C   UNL     1      -2.506   1.797   2.308  0.00  0.00    +0.005 A 
ATOM     32  C   UNL     1      -2.837   2.031   3.630  0.00  0.00    +0.000 A 
ATOM     33  C   UNL     1      -2.360   3.158   4.273  0.00  0.00    +0.000 A 
ATOM     34  C   UNL     1      -1.548   4.048   3.596  0.00  0.00    +0.000 A 
ATOM     35  C   UNL     1      -1.213   3.812   2.276  0.00  0.00    +0.005 A 
ENDBRANCH  29  30
ENDBRANCH   7  29
TORSDOF 9
