REMARK  Name = ZINC05072526
REMARK  7 active torsions:
REMARK  status: ('A' for Active; 'I' for Inactive)
REMARK    1  A    between atoms: C_1  and  O_2
REMARK    2  A    between atoms: O_2  and  C_3
REMARK    3  A    between atoms: C_3  and  C_5
REMARK    4  A    between atoms: C_6  and  C_20
REMARK    5  A    between atoms: C_11  and  C_13
REMARK    6  A    between atoms: C_20  and  S_21
REMARK    7  A    between atoms: S_21  and  C_22
REMARK                            x       y       z     vdW  Elec       q    Type
REMARK                         _______ _______ _______ _____ _____    ______ ____
ROOT
ATOM      1  C   UNL     1      -2.029  -4.346  -1.159  0.00  0.00    +0.079 C 
ATOM      2  C   UNL     1      -1.531  -3.935   0.027  0.00  0.00    +0.034 C 
ATOM      3  N   UNL     1      -2.135  -4.278   1.202  0.00  0.00    -0.272 N 
ATOM      4  C   UNL     1      -3.247  -5.021   1.276  0.00  0.00    +0.304 C 
ATOM      5  O   UNL     1      -3.715  -5.271   2.370  0.00  0.00    -0.252 OA
ATOM      6  N   UNL     1      -3.861  -5.505   0.179  0.00  0.00    -0.288 N 
ATOM      7  C   UNL     1      -3.284  -5.196  -1.141  0.00  0.00    +0.144 C 
ATOM      8  H   UNL     1      -1.740  -3.963   2.030  0.00  0.00    +0.156 HD
ATOM      9  H   UNL     1      -4.663  -6.045   0.256  0.00  0.00    +0.151 HD
ENDROOT
BRANCH   7  10
ATOM     10  C   UNL     1      -4.337  -4.487  -1.953  0.00  0.00    -0.022 A 
ATOM     11  C   UNL     1      -5.057  -3.448  -1.395  0.00  0.00    +0.008 A 
ATOM     12  C   UNL     1      -6.019  -2.794  -2.141  0.00  0.00    +0.038 A 
ATOM     13  C   UNL     1      -6.269  -3.188  -3.445  0.00  0.00    +0.123 A 
ATOM     14  C   UNL     1      -5.551  -4.233  -4.001  0.00  0.00    +0.038 A 
ATOM     15  C   UNL     1      -4.586  -4.881  -3.255  0.00  0.00    +0.008 A 
ATOM     16  F   UNL     1      -7.214  -2.553  -4.173  0.00  0.00    -0.205 F 
ENDBRANCH   7  10
BRANCH   1  17
ATOM     17  C   UNL     1      -1.402  -3.996  -2.377  0.00  0.00    +0.339 C 
ATOM     18  O   UNL     1      -0.483  -3.198  -2.381  0.00  0.00    -0.245 OA
BRANCH  17  20
ATOM     19  C   UNL     1      -1.142  -4.147  -4.728  0.00  0.00    +0.280 C 
ATOM     20  O   UNL     1      -1.821  -4.546  -3.536  0.00  0.00    -0.465 OA
ENDBRANCH  17  20
ENDBRANCH   1  17
BRANCH   2  21
ATOM     21  C   UNL     1      -0.284  -3.089   0.054  0.00  0.00    +0.128 C 
BRANCH  21  22
ATOM     22  S   UNL     1      -0.740  -1.349   0.260  0.00  0.00    -0.082 S 
BRANCH  22  23
ATOM     23  C   UNL     1       0.860  -0.611   0.258  0.00  0.00    +0.168 A 
ATOM     24  N   UNL     1       1.108   0.726   0.386  0.00  0.00    -0.333 N 
ATOM     25  H   UNL     1       0.425   1.448   0.496  0.00  0.00    +0.168 HD
ATOM     26  C   UNL     1       2.482   0.895   0.336  0.00  0.00    +0.067 A 
ATOM     27  C   UNL     1       3.317   1.999   0.410  0.00  0.00    +0.028 A 
ATOM     28  C   UNL     1       4.684   1.833   0.324  0.00  0.00    +0.002 A 
ATOM     29  C   UNL     1       5.229   0.568   0.163  0.00  0.00    +0.002 A 
ATOM     30  C   UNL     1       4.415  -0.540   0.088  0.00  0.00    +0.030 A 
ATOM     31  C   UNL     1       3.028  -0.388   0.173  0.00  0.00    +0.090 A 
ATOM     32  N   UNL     1       1.990  -1.263   0.133  0.00  0.00    -0.222 NA
ENDBRANCH  22  23
ENDBRANCH  21  22
ENDBRANCH   2  21
TORSDOF 6
