REMARK  Name = ZINC08894710
REMARK  10 active torsions:
REMARK  status: ('A' for Active; 'I' for Inactive)
REMARK    1  A    between atoms: C_1  and  N_57
REMARK    2  A    between atoms: C_2  and  N_57
REMARK    3  A    between atoms: C_3  and  C_4
REMARK    4  A    between atoms: C_3  and  N_57
REMARK    5  A    between atoms: C_4  and  C_5
REMARK    6  A    between atoms: C_5  and  N_6
REMARK    7  A    between atoms: C_7  and  C_26
REMARK    8  A    between atoms: C_9  and  C_14
REMARK    9  A    between atoms: C_10  and  O_13
REMARK   10  A    between atoms: C_14  and  C_16
REMARK                            x       y       z     vdW  Elec       q    Type
REMARK                         _______ _______ _______ _____ _____    ______ ____
ROOT
ATOM      1  N   UNL     1      -3.071  -4.118   0.142  0.00  0.00    -0.284 N 
ATOM      2  C   UNL     1      -3.069  -5.408   0.842  0.00  0.00    +0.145 C 
ATOM      3  C   UNL     1      -2.673  -6.444  -0.185  0.00  0.00    +0.071 C 
ATOM      4  C   UNL     1      -2.474  -5.783  -1.349  0.00  0.00    +0.188 C 
ATOM      5  C   UNL     1      -2.728  -4.343  -1.139  0.00  0.00    +0.282 C 
ATOM      6  O   UNL     1      -2.639  -3.487  -1.997  0.00  0.00    -0.267 OA
ENDROOT
BRANCH   2   7
ATOM      7  C   UNL     1      -4.445  -5.708   1.379  0.00  0.00    -0.020 A 
ATOM      8  C   UNL     1      -4.592  -6.231   2.650  0.00  0.00    +0.006 A 
ATOM      9  C   UNL     1      -5.854  -6.506   3.144  0.00  0.00    +0.003 A 
ATOM     10  C   UNL     1      -6.970  -6.260   2.366  0.00  0.00    +0.038 A 
ATOM     11  C   UNL     1      -6.824  -5.738   1.093  0.00  0.00    +0.124 A 
ATOM     12  C   UNL     1      -5.560  -5.457   0.601  0.00  0.00    +0.044 A 
ATOM     13  F   UNL     1      -7.914  -5.497   0.332  0.00  0.00    -0.205 F 
ENDBRANCH   2   7
BRANCH   4  14
ATOM     14  O   UNL     1      -2.105  -6.352  -2.520  0.00  0.00    -0.502 OA
ATOM     15  H   UNL     1      -2.027  -5.646  -3.223  0.00  0.00    +0.292 HD
ENDBRANCH   4  14
BRANCH   3  16
ATOM     16  C   UNL     1      -2.532  -7.886   0.038  0.00  0.00    +0.195 C 
ATOM     17  O   UNL     1      -3.268  -8.666  -0.538  0.00  0.00    -0.287 OA
BRANCH  16  18
ATOM     18  C   UNL     1      -1.497  -8.393   0.960  0.00  0.00    +0.026 A 
ATOM     19  C   UNL     1      -0.571  -7.512   1.527  0.00  0.00    +0.015 A 
ATOM     20  C   UNL     1       0.391  -7.987   2.390  0.00  0.00    +0.050 A 
ATOM     21  C   UNL     1       0.453  -9.343   2.692  0.00  0.00    +0.162 A 
ATOM     22  C   UNL     1      -0.465 -10.227   2.128  0.00  0.00    +0.163 A 
ATOM     23  C   UNL     1      -1.436  -9.756   1.264  0.00  0.00    +0.061 A 
ATOM     24  O   UNL     1      -0.422 -11.556   2.422  0.00  0.00    -0.485 OA
ATOM     25  C   UNL     1       0.791 -12.049   3.000  0.00  0.00    +0.270 C 
ATOM     26  C   UNL     1       1.216 -11.086   4.117  0.00  0.00    +0.270 C 
ATOM     27  O   UNL     1       1.417  -9.791   3.540  0.00  0.00    -0.485 OA
ENDBRANCH  16  18
ENDBRANCH   3  16
BRANCH   1  28
ATOM     28  C   UNL     1      -3.395  -2.817   0.733  0.00  0.00    +0.107 C 
BRANCH  28  29
ATOM     29  C   UNL     1      -2.120  -2.175   1.283  0.00  0.00    +0.000 C 
BRANCH  29  30
ATOM     30  C   UNL     1      -2.458  -0.817   1.900  0.00  0.00    -0.078 C 
BRANCH  30  33
ATOM     31  C   UNL     1      -1.472   1.197   2.814  0.00  0.00    -0.097 C 
ATOM     32  C   UNL     1      -0.701  -0.974   3.558  0.00  0.00    -0.097 C 
ATOM     33  N   UNL     1      -1.214  -0.201   2.408  0.00  0.00    +0.376 N 
ATOM     34  H   UNL     1      -0.510  -0.207   1.661  0.00  0.00    -0.083 HD
ENDBRANCH  30  33
ENDBRANCH  29  30
ENDBRANCH  28  29
ENDBRANCH   1  28
TORSDOF 8
