REMARK  Name = ZINC46958679
REMARK  8 active torsions:
REMARK  status: ('A' for Active; 'I' for Inactive)
REMARK    1  A    between atoms: C_1  and  C_2
REMARK    2  A    between atoms: C_4  and  C_28
REMARK    3  A    between atoms: N_5  and  C_7
REMARK    4  A    between atoms: C_7  and  C_8
REMARK    5  A    between atoms: N_10  and  N_11
REMARK    6  A    between atoms: N_14  and  C_15
REMARK    7  A    between atoms: C_15  and  C_16
REMARK    8  A    between atoms: N_20  and  C_22
REMARK                            x       y       z     vdW  Elec       q    Type
REMARK                         _______ _______ _______ _____ _____    ______ ____
ROOT
ATOM      1  N   UNL     1       3.075  -5.110   2.818  0.00  0.00    -0.218 N 
ATOM      2  C   UNL     1       3.339  -6.179   3.595  0.00  0.00    +0.316 C 
ATOM      3  O   UNL     1       4.491  -6.492   3.827  0.00  0.00    -0.251 OA
ATOM      4  N   UNL     1       2.327  -6.902   4.114  0.00  0.00    -0.298 N 
ATOM      5  H   UNL     1       3.803  -4.590   2.444  0.00  0.00    +0.174 HD
ATOM      6  H   UNL     1       1.408  -6.653   3.928  0.00  0.00    +0.150 HD
ENDROOT
BRANCH   1   9
ATOM      7  C   UNL     1       1.482  -3.682   1.773  0.00  0.00    +0.251 C 
ATOM      8  O   UNL     1       2.393  -3.031   1.306  0.00  0.00    -0.272 OA
ATOM      9  N   UNL     1       1.747  -4.751   2.550  0.00  0.00    -0.232 N 
ATOM     10  H   UNL     1       1.019  -5.271   2.923  0.00  0.00    +0.173 HD
BRANCH   7  11
ATOM     11  C   UNL     1       0.055  -3.295   1.485  0.00  0.00    +0.240 C 
BRANCH  11  16
ATOM     12  C   UNL     1      -0.018   1.503   0.010  0.00  0.00    +0.067 C 
ATOM     13  C   UNL     1       0.002  -0.004   0.002  0.00  0.00    +0.060 A 
ATOM     14  C   UNL     1       0.008  -0.818  -1.135  0.00  0.00    +0.047 A 
ATOM     15  C   UNL     1       0.028  -2.107  -0.725  0.00  0.00    +0.037 A 
ATOM     16  N   UNL     1       0.034  -2.109   0.625  0.00  0.00    -0.259 N 
ATOM     17  N   UNL     1       0.023  -0.777   1.058  0.00  0.00    -0.176 NA
ATOM     18  C   UNL     1       0.040  -3.323  -1.615  0.00  0.00    +0.065 C 
ENDBRANCH  11  16
ENDBRANCH   7  11
ENDBRANCH   1   9
BRANCH   4  19
ATOM     19  C   UNL     1       2.615  -8.065   4.958  0.00  0.00    +0.111 C 
BRANCH  19  20
ATOM     20  C   UNL     1       1.301  -8.702   5.413  0.00  0.00    +0.025 C 
ATOM     21  C   UNL     1       0.567  -9.362   4.216  0.00  0.00    +0.025 C 
ATOM     22  C   UNL     1      -0.267 -10.456   4.928  0.00  0.00    +0.105 C 
ATOM     23  N   UNL     1       0.602 -10.948   6.012  0.00  0.00    -0.330 N 
ATOM     24  C   UNL     1       1.570  -9.893   6.358  0.00  0.00    +0.110 C 
BRANCH  23  25
ATOM     25  C   UNL     1       0.519 -12.204   6.616  0.00  0.00    +0.030 A 
ATOM     26  C   UNL     1       1.397 -12.546   7.637  0.00  0.00    +0.023 A 
ATOM     27  C   UNL     1       1.311 -13.789   8.232  0.00  0.00    +0.002 A 
ATOM     28  C   UNL     1       0.353 -14.694   7.812  0.00  0.00    +0.000 A 
ATOM     29  C   UNL     1      -0.522 -14.357   6.796  0.00  0.00    +0.002 A 
ATOM     30  C   UNL     1      -0.446 -13.114   6.201  0.00  0.00    +0.023 A 
ENDBRANCH  23  25
ENDBRANCH  19  20
ENDBRANCH   4  19
TORSDOF 6
