REMARK  Name = ZINC06725814
REMARK  7 active torsions:
REMARK  status: ('A' for Active; 'I' for Inactive)
REMARK    1  A    between atoms: C_1  and  C_2
REMARK    2  A    between atoms: C_2  and  C_3
REMARK    3  A    between atoms: C_3  and  C_4
REMARK    4  A    between atoms: C_11  and  N_16
REMARK    5  A    between atoms: C_12  and  C_13
REMARK    6  A    between atoms: C_17  and  C_19
REMARK    7  A    between atoms: C_25  and  C_27
REMARK                            x       y       z     vdW  Elec       q    Type
REMARK                         _______ _______ _______ _____ _____    ______ ____
ROOT
ATOM      1  C   UNL     1      -1.703   5.491  -3.486  0.00  0.00    -0.006 C 
ATOM      2  C   UNL     1      -0.836   4.237  -3.634  0.00  0.00    +0.008 C 
ATOM      3  C   UNL     1      -1.262   3.186  -2.607  0.00  0.00    +0.037 C 
ATOM      4  C   UNL     1      -1.271   3.827  -1.225  0.00  0.00    -0.023 A 
ATOM      5  C   UNL     1      -1.307   5.170  -1.081  0.00  0.00    -0.004 A 
ATOM      6  S   UNL     1      -1.295   5.438   0.669  0.00  0.00    -0.077 S 
ATOM      7  C   UNL     1      -1.251   3.791   1.204  0.00  0.00    +0.084 A 
ATOM      8  C   UNL     1      -1.246   3.073   0.017  0.00  0.00    +0.068 A 
ATOM      9  C   UNL     1      -1.344   6.195  -2.172  0.00  0.00    +0.046 C 
ENDROOT
BRANCH   8  10
ATOM     10  C   UNL     1      -1.212   1.607   0.015  0.00  0.00    +0.244 C 
ATOM     11  O   UNL     1      -2.251   0.974   0.024  0.00  0.00    -0.270 OA
ATOM     12  N   UNL     1      -0.029   0.961   0.002  0.00  0.00    -0.325 N 
ATOM     13  H   UNL     1      -0.007  -0.009   0.001  0.00  0.00    +0.145 HD
ATOM     14  H   UNL     1       0.799   1.465  -0.009  0.00  0.00    +0.145 HD
ENDBRANCH   8  10
BRANCH   7  15
ATOM     15  N   UNL     1      -1.226   3.307   2.503  0.00  0.00    -0.279 N 
ATOM     16  C   UNL     1      -1.236   4.166   3.542  0.00  0.00    +0.221 C 
ATOM     17  O   UNL     1      -1.266   5.361   3.341  0.00  0.00    -0.275 OA
ATOM     18  H   UNL     1      -1.202   2.351   2.665  0.00  0.00    +0.155 HD
BRANCH  16  19
ATOM     19  C   UNL     1      -1.209   3.640   4.954  0.00  0.00    +0.078 C 
ATOM     20  C   UNL     1      -2.436   2.756   5.193  0.00  0.00    +0.032 C 
ATOM     21  C   UNL     1      -2.387   2.196   6.618  0.00  0.00    +0.108 C 
ATOM     22  N   UNL     1      -2.257   3.315   7.561  0.00  0.00    -0.302 N 
ATOM     23  C   UNL     1      -1.164   4.277   7.369  0.00  0.00    +0.108 C 
ATOM     24  C   UNL     1      -1.226   4.814   5.936  0.00  0.00    +0.032 C 
ATOM     25  C   UNL     1      -3.124   3.455   8.584  0.00  0.00    +0.212 C 
ATOM     26  O   UNL     1      -4.079   2.713   8.675  0.00  0.00    -0.276 OA
ATOM     27  C   UNL     1      -2.907   4.534   9.613  0.00  0.00    +0.109 C 
ENDBRANCH  16  19
ENDBRANCH   7  15
BRANCH   1  28
ATOM     28  C   UNL     1      -1.445   6.434  -4.663  0.00  0.00    +0.003 C 
BRANCH  28  30
ATOM     29  C   UNL     1      -2.143   8.569  -5.757  0.00  0.00    +0.004 C 
ATOM     30  C   UNL     1      -2.400   7.626  -4.580  0.00  0.00    -0.003 C 
ENDBRANCH  28  30
ENDBRANCH   1  28
TORSDOF 5
