REMARK  Name = ZINC51169300
REMARK  2 active torsions:
REMARK  status: ('A' for Active; 'I' for Inactive)
REMARK    1  A    between atoms: C_11  and  N_12
REMARK    2  A    between atoms: N_12  and  N_13
REMARK                            x       y       z     vdW  Elec       q    Type
REMARK                         _______ _______ _______ _____ _____    ______ ____
ROOT
ATOM      1  C   UNL     1      -0.004   1.389  -0.333  0.00  0.00    +0.002 A 
ATOM      2  C   UNL     1       1.153   2.103  -0.231  0.00  0.00    +0.012 A 
ATOM      3  C   UNL     1       2.376   1.428  -0.129  0.00  0.00    +0.022 A 
ATOM      4  C   UNL     1       2.400   0.013  -0.131  0.00  0.00    +0.062 A 
ATOM      5  C   UNL     1       1.187  -0.690  -0.238  0.00  0.00    +0.037 A 
ATOM      6  C   UNL     1       0.015  -0.003  -0.336  0.00  0.00    +0.016 A 
ATOM      7  I   UNL     1       1.181  -2.784  -0.246  0.00  0.00    -0.042 I 
ATOM      8  N   UNL     1       3.565  -0.630  -0.031  0.00  0.00    -0.357 N 
ATOM      9  C   UNL     1       4.721   0.004   0.069  0.00  0.00    +0.021 A 
ATOM     10  C   UNL     1       4.777   1.387   0.071  0.00  0.00    -0.006 A 
ATOM     11  C   UNL     1       3.601   2.124  -0.025  0.00  0.00    +0.055 A 
ATOM     12  C   UNL     1       6.072   2.150   0.166  0.00  0.00    +0.039 C 
ATOM     13  C   UNL     1       7.190   1.248   0.685  0.00  0.00    +0.005 C 
ATOM     14  C   UNL     1       7.206  -0.033  -0.157  0.00  0.00    +0.006 C 
ATOM     15  C   UNL     1       5.961  -0.849   0.182  0.00  0.00    +0.053 C 
ATOM     16  H   UNL     1       3.563  -1.600  -0.030  0.00  0.00    +0.166 HD
ENDROOT
BRANCH  11  17
ATOM     17  N   UNL     1       3.631   3.510  -0.018  0.00  0.00    -0.282 N 
ATOM     18  H   UNL     1       2.919   4.009   0.414  0.00  0.00    +0.166 HD
BRANCH  17  19
ATOM     19  N   UNL     1       4.662   4.175  -0.618  0.00  0.00    -0.256 NA
ATOM     20  H   UNL     1       4.753   3.903  -1.585  0.00  0.00    +0.140 HD
ATOM     21  H   UNL     1       4.548   5.174  -0.532  0.00  0.00    +0.140 HD
ENDBRANCH  17  19
ENDBRANCH  11  17
TORSDOF 2
