REMARK  Name = ZINC13747738
REMARK  8 active torsions:
REMARK  status: ('A' for Active; 'I' for Inactive)
REMARK    1  A    between atoms: C_1  and  C_2
REMARK    2  A    between atoms: C_2  and  O_3
REMARK    3  A    between atoms: O_3  and  C_4
REMARK    4  A    between atoms: C_6  and  C_15
REMARK    5  A    between atoms: C_9  and  O_10
REMARK    6  A    between atoms: O_10  and  C_11
REMARK    7  A    between atoms: C_11  and  C_13
REMARK    8  A    between atoms: N_16  and  N_17
REMARK                            x       y       z     vdW  Elec       q    Type
REMARK                         _______ _______ _______ _____ _____    ______ ____
ROOT
ATOM      1  C   UNL     1      -1.178  -2.737  -1.056  0.00  0.00    +0.164 A 
ATOM      2  C   UNL     1      -1.161  -4.118  -0.992  0.00  0.00    +0.059 A 
ATOM      3  C   UNL     1       0.059  -4.798  -0.971  0.00  0.00    -0.001 A 
ATOM      4  C   UNL     1       1.256  -4.080  -1.015  0.00  0.00    +0.027 A 
ATOM      5  C   UNL     1       1.232  -2.702  -1.085  0.00  0.00    +0.060 A 
ATOM      6  C   UNL     1       0.019  -2.027  -1.101  0.00  0.00    +0.186 A 
ATOM      7  I   UNL     1       3.028  -1.627  -1.160  0.00  0.00    -0.040 I 
ENDROOT
BRANCH   3   8
ATOM      8  C   UNL     1       0.083  -6.271  -0.903  0.00  0.00    +0.138 C 
ATOM      9  N   UNL     1       1.218  -6.901  -0.883  0.00  0.00    -0.186 NA
BRANCH   9  10
ATOM     10  N   UNL     1       1.240  -8.300  -0.819  0.00  0.00    -0.191 N 
ATOM     11  C   UNL     1       2.419  -8.955  -0.798  0.00  0.00    +0.317 C 
ATOM     12  O   UNL     1       2.439 -10.169  -0.742  0.00  0.00    -0.251 OA
ATOM     13  N   UNL     1       3.575  -8.263  -0.840  0.00  0.00    -0.312 N 
ATOM     14  H   UNL     1       0.409  -8.798  -0.788  0.00  0.00    +0.179 HD
ATOM     15  H   UNL     1       3.559  -7.294  -0.885  0.00  0.00    +0.147 HD
ATOM     16  H   UNL     1       4.422  -8.734  -0.825  0.00  0.00    +0.147 HD
ENDBRANCH   9  10
ENDBRANCH   3   8
BRANCH   1  17
ATOM     17  O   UNL     1      -2.364  -2.072  -1.077  0.00  0.00    -0.489 OA
BRANCH  17  19
ATOM     18  C   UNL     1      -4.778  -1.948  -1.062  0.00  0.00    +0.048 C 
ATOM     19  C   UNL     1      -3.553  -2.865  -1.030  0.00  0.00    +0.226 C 
ENDBRANCH  17  19
ENDBRANCH   1  17
BRANCH   6  20
ATOM     20  O   UNL     1       0.000  -0.669  -1.164  0.00  0.00    -0.421 OA
BRANCH  20  21
ATOM     21  C   UNL     1       0.002  -0.004   0.002  0.00  0.00    +0.309 C 
ATOM     22  O   UNL     1       0.020  -0.614   1.045  0.00  0.00    -0.251 OA
ATOM     23  C   UNL     1      -0.018   1.503   0.010  0.00  0.00    +0.136 C 
ENDBRANCH  20  21
ENDBRANCH   6  20
TORSDOF 6
