REMARK  Name = ZINC09359810
REMARK  8 active torsions:
REMARK  status: ('A' for Active; 'I' for Inactive)
REMARK    1  A    between atoms: C_1  and  C_2
REMARK    2  A    between atoms: C_2  and  C_28
REMARK    3  A    between atoms: N_3  and  N_4
REMARK    4  A    between atoms: C_5  and  C_7
REMARK    5  A    between atoms: C_8  and  C_20
REMARK    6  A    between atoms: C_20  and  S_21
REMARK    7  A    between atoms: S_21  and  C_22
REMARK    8  A    between atoms: C_32  and  O_34
REMARK                            x       y       z     vdW  Elec       q    Type
REMARK                         _______ _______ _______ _____ _____    ______ ____
ROOT
ATOM      1  C   UNL     1      -2.400   9.497   0.071  0.00  0.00    +0.173 A 
ATOM      2  C   UNL     1      -3.517  10.284   0.086  0.00  0.00    +0.089 A 
ATOM      3  N   UNL     1      -3.091  11.567   0.088  0.00  0.00    -0.191 N 
ATOM      4  N   UNL     1      -1.689  11.527   0.074  0.00  0.00    -0.058 NA
ATOM      5  N   UNL     1      -1.317  10.295   0.071  0.00  0.00    -0.124 NA
ATOM      6  C   UNL     1      -3.893  12.713   0.100  0.00  0.00    +0.240 A 
ATOM      7  C   UNL     1      -3.412  14.097   0.102  0.00  0.00    +0.206 A 
ATOM      8  N   UNL     1      -4.447  14.891   0.115  0.00  0.00    -0.032 NA
ATOM      9  O   UNL     1      -5.612  14.085   0.121  0.00  0.00    -0.239 OA
ATOM     10  N   UNL     1      -5.196  12.731   0.107  0.00  0.00    -0.027 NA
ATOM     11  N   UNL     1      -2.080  14.496   0.092  0.00  0.00    -0.337 N 
ATOM     12  H   UNL     1      -1.375  13.830   0.084  0.00  0.00    +0.144 HD
ATOM     13  H   UNL     1      -1.856  15.440   0.095  0.00  0.00    +0.144 HD
ENDROOT
BRANCH   1  15
ATOM     14  N   UNL     1      -1.210   7.361   0.050  0.00  0.00    -0.201 N 
ATOM     15  C   UNL     1      -2.384   8.023   0.064  0.00  0.00    +0.285 C 
ATOM     16  O   UNL     1      -3.431   7.403   0.071  0.00  0.00    -0.267 OA
ATOM     17  H   UNL     1      -0.375   7.855   0.044  0.00  0.00    +0.178 HD
BRANCH  14  20
ATOM     18  C   UNL     1       1.232   6.091   0.021  0.00  0.00    +0.068 C 
ATOM     19  C   UNL     1      -0.065   5.323   0.029  0.00  0.00    +0.063 C 
ATOM     20  N   UNL     1      -1.195   5.960   0.043  0.00  0.00    -0.184 NA
BRANCH  19  21
ATOM     21  C   UNL     1      -0.049   3.849   0.022  0.00  0.00    +0.001 A 
ATOM     22  C   UNL     1       1.167   3.160   0.007  0.00  0.00    +0.010 A 
ATOM     23  C   UNL     1       1.177   1.781   0.000  0.00  0.00    +0.004 A 
ATOM     24  C   UNL     1      -0.013   1.076   0.008  0.00  0.00    +0.045 A 
ATOM     25  C   UNL     1      -1.226   1.751   0.017  0.00  0.00    +0.117 A 
ATOM     26  C   UNL     1      -1.249   3.135   0.030  0.00  0.00    +0.055 A 
BRANCH  25  27
ATOM     27  O   UNL     1      -2.392   1.052   0.019  0.00  0.00    -0.507 OA
ATOM     28  H   UNL     1      -2.725   0.846   0.904  0.00  0.00    +0.292 HD
ENDBRANCH  25  27
ENDBRANCH  19  21
ENDBRANCH  14  20
ENDBRANCH   1  15
BRANCH   2  29
ATOM     29  C   UNL     1      -4.948   9.812   0.096  0.00  0.00    +0.132 C 
BRANCH  29  30
ATOM     30  S   UNL     1      -5.538   9.631  -1.609  0.00  0.00    -0.119 S 
BRANCH  30  31
ATOM     31  C   UNL     1      -7.202   9.082  -1.429  0.00  0.00    +0.008 A 
ATOM     32  C   UNL     1      -7.738   8.889  -0.162  0.00  0.00    +0.015 A 
ATOM     33  C   UNL     1      -9.045   8.465  -0.024  0.00  0.00    +0.001 A 
ATOM     34  C   UNL     1      -9.816   8.219  -1.146  0.00  0.00    +0.000 A 
ATOM     35  C   UNL     1      -9.284   8.404  -2.409  0.00  0.00    +0.001 A 
ATOM     36  C   UNL     1      -7.980   8.834  -2.554  0.00  0.00    +0.015 A 
ENDBRANCH  30  31
ENDBRANCH  29  30
ENDBRANCH   2  29
TORSDOF 7
