REMARK  Name = ZINC23632393
REMARK  11 active torsions:
REMARK  status: ('A' for Active; 'I' for Inactive)
REMARK    1  A    between atoms: C_1  and  C_2
REMARK    2  A    between atoms: C_8  and  N_10
REMARK    3  A    between atoms: C_14  and  C_16
REMARK    4  A    between atoms: C_16  and  S_17
REMARK    5  A    between atoms: S_17  and  C_18
REMARK    6  A    between atoms: C_21  and  C_24
REMARK    7  A    between atoms: N_22  and  N_23
REMARK    8  A    between atoms: C_27  and  C_30
REMARK    9  A    between atoms: C_30  and  C_31
REMARK   10  A    between atoms: C_30  and  C_32
REMARK   11  A    between atoms: C_30  and  C_33
REMARK                            x       y       z     vdW  Elec       q    Type
REMARK                         _______ _______ _______ _____ _____    ______ ____
ROOT
ATOM      1  C   UNL     1       8.514   7.365  -2.975  0.00  0.00    +0.209 A 
ATOM      2  N   UNL     1       9.535   6.684  -2.506  0.00  0.00    -0.121 NA
ATOM      3  N   UNL     1      10.575   7.437  -2.442  0.00  0.00    -0.127 NA
ATOM      4  C   UNL     1      10.279   8.646  -2.856  0.00  0.00    +0.182 A 
ATOM      5  N   UNL     1       8.950   8.638  -3.211  0.00  0.00    -0.224 N 
ENDROOT
BRANCH   4   6
ATOM      6  C   UNL     1      11.200   9.800  -2.929  0.00  0.00    +0.021 A 
ATOM      7  C   UNL     1      12.581   9.600  -2.877  0.00  0.00    +0.012 A 
ATOM      8  C   UNL     1      13.435  10.680  -2.950  0.00  0.00    +0.005 A 
ATOM      9  C   UNL     1      12.926  11.962  -3.064  0.00  0.00    -0.042 A 
ATOM     10  C   UNL     1      11.559  12.168  -3.110  0.00  0.00    +0.005 A 
ATOM     11  C   UNL     1      10.694  11.096  -3.044  0.00  0.00    +0.012 A 
BRANCH   9  12
ATOM     12  C   UNL     1      13.865  13.138  -3.137  0.00  0.00    -0.013 C 
ATOM     13  C   UNL     1      13.592  14.083  -1.965  0.00  0.00    +0.015 C 
ATOM     14  C   UNL     1      15.311  12.642  -3.066  0.00  0.00    +0.015 C 
ATOM     15  C   UNL     1      13.646  13.884  -4.455  0.00  0.00    +0.015 C 
ENDBRANCH   9  12
ENDBRANCH   4   6
BRANCH   5  16
ATOM     16  N   UNL     1       8.219   9.684  -3.697  0.00  0.00    -0.295 N 
ATOM     17  H   UNL     1       8.693  10.666  -3.842  0.00  0.00    +0.163 HD
ATOM     18  H   UNL     1       7.156   9.545  -3.944  0.00  0.00    +0.163 HD
ENDBRANCH   5  16
BRANCH   1  19
ATOM     19  S   UNL     1       6.883   6.753  -3.243  0.00  0.00    -0.075 S 
BRANCH  19  20
ATOM     20  C   UNL     1       7.101   5.037  -2.710  0.00  0.00    +0.173 C 
BRANCH  20  25
ATOM     21  N   UNL     1       4.474   1.031  -2.305  0.00  0.00    -0.296 N 
ATOM     22  C   UNL     1       4.552   2.333  -2.644  0.00  0.00    +0.306 C 
ATOM     23  O   UNL     1       3.569   2.910  -3.068  0.00  0.00    -0.252 OA
ATOM     24  N   UNL     1       5.718   2.995  -2.515  0.00  0.00    -0.239 N 
ATOM     25  C   UNL     1       5.796   4.297  -2.855  0.00  0.00    +0.231 C 
ATOM     26  O   UNL     1       4.816   4.872  -3.277  0.00  0.00    -0.274 OA
ATOM     27  H   UNL     1       5.363   0.509  -1.921  0.00  0.00    +0.151 HD
ATOM     28  H   UNL     1       6.607   2.473  -2.132  0.00  0.00    +0.159 HD
BRANCH  21  35
ATOM     29  C   UNL     1       4.340  -1.410  -3.858  0.00  0.00    +0.009 C 
ATOM     30  C   UNL     1       3.484  -1.184  -2.610  0.00  0.00    +0.006 C 
ATOM     31  C   UNL     1       2.159  -1.936  -2.757  0.00  0.00    +0.005 C 
ATOM     32  C   UNL     1       1.303  -1.710  -1.509  0.00  0.00    +0.000 C 
ATOM     33  C   UNL     1       1.026  -0.215  -1.345  0.00  0.00    +0.002 C 
ATOM     34  C   UNL     1       2.350   0.537  -1.198  0.00  0.00    +0.022 C 
ATOM     35  C   UNL     1       3.206   0.311  -2.446  0.00  0.00    +0.077 C 
ENDBRANCH  21  35
ENDBRANCH  20  25
ENDBRANCH  19  20
ENDBRANCH   1  19
TORSDOF 7
