REMARK  Name = ZINC40452967
REMARK  4 active torsions:
REMARK  status: ('A' for Active; 'I' for Inactive)
REMARK    1  A    between atoms: C_2  and  N_11
REMARK    2  A    between atoms: C_6  and  N_7
REMARK    3  A    between atoms: C_15  and  C_18
REMARK    4  A    between atoms: C_18  and  O_19
REMARK                            x       y       z     vdW  Elec       q    Type
REMARK                         _______ _______ _______ _____ _____    ______ ____
ROOT
ATOM      1  C   UNL     1       2.388   1.406  -0.029  0.00  0.00    +0.056 A 
ATOM      2  C   UNL     1       1.177   2.087   0.002  0.00  0.00    +0.035 A 
ATOM      3  C   UNL     1      -0.015   1.377   0.026  0.00  0.00    +0.061 A 
ATOM      4  C   UNL     1       0.005  -0.006   0.020  0.00  0.00    +0.127 A 
ATOM      5  C   UNL     1       1.214  -0.681  -0.011  0.00  0.00    +0.071 A 
ATOM      6  C   UNL     1       2.402   0.025  -0.036  0.00  0.00    +0.131 A 
ATOM      7  F   UNL     1      -1.155  -0.699   0.044  0.00  0.00    -0.205 F 
ENDROOT
BRANCH   2   8
ATOM      8  N   UNL     1       1.161   3.484   0.009  0.00  0.00    -0.329 N 
ATOM      9  C   UNL     1      -0.109   4.218  -0.079  0.00  0.00    +0.105 C 
ATOM     10  C   UNL     1      -0.192   5.202   1.091  0.00  0.00    +0.019 C 
ATOM     11  C   UNL     1       1.051   6.095   1.091  0.00  0.00    +0.009 C 
ATOM     12  C   UNL     1       2.301   5.231   1.274  0.00  0.00    +0.032 C 
ATOM     13  C   UNL     1       2.412   4.247   0.112  0.00  0.00    +0.110 C 
BRANCH  12  14
ATOM     14  C   UNL     1       3.540   6.128   1.307  0.00  0.00    +0.160 C 
BRANCH  14  15
ATOM     15  O   UNL     1       3.490   6.968   2.462  0.00  0.00    -0.395 OA
ATOM     16  H   UNL     1       4.246   7.565   2.547  0.00  0.00    +0.209 HD
ENDBRANCH  14  15
ENDBRANCH  12  14
ENDBRANCH   2   8
BRANCH   6  17
ATOM     17  N   UNL     1       3.692  -0.700  -0.069  0.00  0.00    +0.057 N 
ATOM     18  O   UNL     1       4.732  -0.084  -0.090  0.00  0.00    -0.126 OA
ATOM     19  O   UNL     1       3.706  -1.909  -0.075  0.00  0.00    -0.126 OA
ENDBRANCH   6  17
TORSDOF 4
