REMARK  Name = ZINC38775709
REMARK  10 active torsions:
REMARK  status: ('A' for Active; 'I' for Inactive)
REMARK    1  A    between atoms: C_1  and  C_2
REMARK    2  A    between atoms: C_7  and  C_8
REMARK    3  A    between atoms: C_8  and  O_9
REMARK    4  A    between atoms: O_9  and  C_10
REMARK    5  A    between atoms: C_13  and  C_17
REMARK    6  A    between atoms: C_14  and  O_16
REMARK    7  A    between atoms: C_19  and  C_24
REMARK    8  A    between atoms: C_20  and  C_23
REMARK    9  A    between atoms: C_29  and  O_30
REMARK   10  A    between atoms: O_30  and  C_31
REMARK                            x       y       z     vdW  Elec       q    Type
REMARK                         _______ _______ _______ _____ _____    ______ ____
ROOT
ATOM      1  C   UNL     1       0.053  -0.377   4.844  0.00  0.00    +0.124 A 
ATOM      2  C   UNL     1       0.031   0.998   5.034  0.00  0.00    +0.046 A 
ATOM      3  C   UNL     1       0.036   1.520   6.313  0.00  0.00    +0.013 A 
ATOM      4  C   UNL     1       0.064   0.675   7.406  0.00  0.00    +0.022 A 
ATOM      5  C   UNL     1       0.086  -0.700   7.222  0.00  0.00    +0.126 A 
ATOM      6  C   UNL     1       0.075  -1.226   5.939  0.00  0.00    +0.091 A 
ENDROOT
BRANCH   4   7
ATOM      7  C   UNL     1       0.070   1.247   8.800  0.00  0.00    +0.164 C 
ATOM      8  C   UNL     1       1.493   1.419   9.305  0.00  0.00    +0.014 C 
ATOM      9  C   UNL     1       1.599   2.754   9.510  0.00  0.00    +0.064 C 
ATOM     10  N   UNL     1       0.453   3.370   9.199  0.00  0.00    -0.182 NA
ATOM     11  N   UNL     1      -0.450   2.625   8.801  0.00  0.00    -0.297 N 
ATOM     12  C   UNL     1       2.836   3.449  10.018  0.00  0.00    +0.068 C 
ATOM     13  H   UNL     1      -1.342   2.897   8.534  0.00  0.00    +0.183 HD
BRANCH   8  14
ATOM     14  C   UNL     1       2.513   0.383   9.519  0.00  0.00    +0.024 A 
ATOM     15  C   UNL     1       2.424  -0.475  10.621  0.00  0.00    +0.012 A 
ATOM     16  C   UNL     1       3.384  -1.445  10.815  0.00  0.00    +0.001 A 
ATOM     17  C   UNL     1       4.437  -1.574   9.925  0.00  0.00    +0.004 A 
ATOM     18  C   UNL     1       4.538  -0.733   8.833  0.00  0.00    +0.046 A 
ATOM     19  C   UNL     1       3.579   0.244   8.617  0.00  0.00    +0.128 A 
BRANCH  19  20
ATOM     20  O   UNL     1       3.674   1.066   7.542  0.00  0.00    -0.495 OA
ATOM     21  C   UNL     1       4.787   0.865   6.667  0.00  0.00    +0.277 C 
ENDBRANCH  19  20
ENDBRANCH   8  14
ENDBRANCH   4   7
BRANCH   5  22
ATOM     22  O   UNL     1       0.114  -1.531   8.297  0.00  0.00    -0.506 OA
ATOM     23  H   UNL     1      -0.761  -1.787   8.619  0.00  0.00    +0.292 HD
ENDBRANCH   5  22
BRANCH   1  24
ATOM     24  O   UNL     1       0.048  -0.889   3.585  0.00  0.00    -0.487 OA
BRANCH  24  25
ATOM     25  C   UNL     1       0.025   0.045   2.504  0.00  0.00    +0.264 C 
BRANCH  25  32
ATOM     26  C   UNL     1      -0.018   1.503   0.010  0.00  0.00    +0.044 C 
ATOM     27  C   UNL     1       0.002  -0.004   0.002  0.00  0.00    -0.044 A 
ATOM     28  C   UNL     1       0.006  -0.689  -1.199  0.00  0.00    +0.004 A 
ATOM     29  C   UNL     1       0.025  -2.071  -1.207  0.00  0.00    +0.000 A 
ATOM     30  C   UNL     1       0.040  -2.768  -0.013  0.00  0.00    +0.000 A 
ATOM     31  C   UNL     1       0.037  -2.084   1.188  0.00  0.00    +0.007 A 
ATOM     32  C   UNL     1       0.023  -0.702   1.195  0.00  0.00    -0.007 A 
ENDBRANCH  25  32
ENDBRANCH  24  25
ENDBRANCH   1  24
TORSDOF 7
