REMARK  Name = ZINC12413229
REMARK  7 active torsions:
REMARK  status: ('A' for Active; 'I' for Inactive)
REMARK    1  A    between atoms: C_1  and  C_2
REMARK    2  A    between atoms: C_2  and  C_3
REMARK    3  A    between atoms: C_6  and  N_9
REMARK    4  A    between atoms: C_15  and  C_16
REMARK    5  A    between atoms: C_19  and  O_23
REMARK    6  A    between atoms: O_23  and  C_24
REMARK    7  A    between atoms: C_24  and  C_25
REMARK                            x       y       z     vdW  Elec       q    Type
REMARK                         _______ _______ _______ _____ _____    ______ ____
ROOT
ATOM      1  N   UNL     1      -1.059   2.095  -0.649  0.00  0.00    -0.226 NA
ATOM      2  C   UNL     1      -0.016   1.310  -0.495  0.00  0.00    +0.166 C 
ATOM      3  N   UNL     1       0.018  -0.065  -0.415  0.00  0.00    -0.260 N 
ATOM      4  C   UNL     1       1.166  -0.703  -0.264  0.00  0.00    +0.256 C 
ATOM      5  O   UNL     1       1.214  -1.917  -0.191  0.00  0.00    -0.269 OA
ATOM      6  C   UNL     1       2.386   0.123  -0.186  0.00  0.00    +0.078 C 
ATOM      7  C   UNL     1       3.679  -0.263  -0.034  0.00  0.00    +0.028 C 
ATOM      8  S   UNL     1       1.704   1.767  -0.347  0.00  0.00    -0.049 S 
ATOM      9  H   UNL     1      -0.809  -0.569  -0.470  0.00  0.00    +0.157 HD
ENDROOT
BRANCH   7  10
ATOM     10  C   UNL     1       4.758   0.726  -0.150  0.00  0.00    -0.021 A 
ATOM     11  C   UNL     1       4.514   1.964  -0.758  0.00  0.00    +0.031 A 
ATOM     12  C   UNL     1       5.529   2.890  -0.860  0.00  0.00    +0.084 A 
ATOM     13  C   UNL     1       6.797   2.593  -0.370  0.00  0.00    +0.153 A 
ATOM     14  C   UNL     1       7.045   1.364   0.230  0.00  0.00    +0.061 A 
ATOM     15  C   UNL     1       6.035   0.432   0.342  0.00  0.00    +0.027 A 
ATOM     16 BR   UNL     1       8.771   0.968   0.893  0.00  0.00    -0.046 Br
ATOM     17 CL   UNL     1       5.228   4.428  -1.607  0.00  0.00    -0.080 Cl
BRANCH  13  18
ATOM     18  O   UNL     1       7.795   3.508  -0.477  0.00  0.00    -0.478 OA
BRANCH  18  19
ATOM     19  C   UNL     1       8.596   3.458  -1.659  0.00  0.00    +0.353 C 
BRANCH  19  20
ATOM     20  C   UNL     1       9.644   4.540  -1.602  0.00  0.00    +0.393 C 
ATOM     21  O   UNL     1       9.700   5.277  -0.646  0.00  0.00    -0.243 OA
ATOM     22  O   UNL     1      10.516   4.684  -2.612  0.00  0.00    -0.243 OA
ENDBRANCH  19  20
ENDBRANCH  18  19
ENDBRANCH  13  18
ENDBRANCH   7  10
BRANCH   1  26
ATOM     23  C   UNL     1      -0.554   6.198  -0.823  0.00  0.00    -0.047 A 
ATOM     24  C   UNL     1      -1.387   5.567  -1.731  0.00  0.00    +0.006 A 
ATOM     25  C   UNL     1      -1.560   4.200  -1.679  0.00  0.00    +0.028 A 
ATOM     26  C   UNL     1      -0.892   3.452  -0.706  0.00  0.00    +0.067 A 
ATOM     27  C   UNL     1      -0.058   4.096   0.210  0.00  0.00    +0.028 A 
ATOM     28  C   UNL     1       0.110   5.463   0.143  0.00  0.00    +0.006 A 
BRANCH  23  30
ATOM     29  C   UNL     1      -1.422   8.373  -0.009  0.00  0.00    +0.009 C 
ATOM     30  C   UNL     1      -0.370   7.692  -0.887  0.00  0.00    +0.032 C 
ENDBRANCH  23  30
ENDBRANCH   1  26
TORSDOF 6
