REMARK  Name = ZINC09066709
REMARK  4 active torsions:
REMARK  status: ('A' for Active; 'I' for Inactive)
REMARK    1  A    between atoms: C_1  and  C_2
REMARK    2  A    between atoms: C_5  and  N_9
REMARK    3  A    between atoms: C_10  and  C_12
REMARK    4  A    between atoms: C_12  and  N_13
REMARK                            x       y       z     vdW  Elec       q    Type
REMARK                         _______ _______ _______ _____ _____    ______ ____
ROOT
ATOM      1  N   UNL     1      -0.226  -6.826  -2.570  0.00  0.00    -0.290 N 
ATOM      2  C   UNL     1      -0.329  -8.147  -2.818  0.00  0.00    +0.307 C 
ATOM      3  O   UNL     1      -0.432  -8.932  -1.895  0.00  0.00    -0.252 OA
ATOM      4  N   UNL     1      -0.317  -8.598  -4.088  0.00  0.00    -0.245 N 
ATOM      5  C   UNL     1      -0.306  -7.664  -5.224  0.00  0.00    +0.211 C 
ATOM      6  C   UNL     1      -1.249  -8.170  -6.285  0.00  0.00    +0.235 C 
ATOM      7  O   UNL     1      -1.799  -7.381  -7.024  0.00  0.00    -0.274 OA
ATOM      8  N   UNL     1      -1.488  -9.488  -6.424  0.00  0.00    -0.283 N 
ATOM      9  C   UNL     1      -0.907 -10.416  -5.553  0.00  0.00    +0.055 A 
ATOM     10  C   UNL     1      -0.310  -9.973  -4.368  0.00  0.00    +0.059 A 
ATOM     11  C   UNL     1       0.270 -10.877  -3.497  0.00  0.00    +0.025 A 
ATOM     12  C   UNL     1       0.265 -12.226  -3.804  0.00  0.00    +0.002 A 
ATOM     13  C   UNL     1      -0.316 -12.670  -4.977  0.00  0.00    +0.002 A 
ATOM     14  C   UNL     1      -0.911 -11.769  -5.853  0.00  0.00    +0.025 A 
ATOM     15  H   UNL     1      -0.216  -6.194  -3.306  0.00  0.00    +0.151 HD
ATOM     16  H   UNL     1      -2.071  -9.797  -7.135  0.00  0.00    +0.155 HD
ENDROOT
BRANCH   1  17
ATOM     17  C   UNL     1      -0.128  -6.345  -1.190  0.00  0.00    +0.202 C 
BRANCH  17  19
ATOM     18  N   UNL     1       0.076  -4.174  -0.022  0.00  0.00    -0.283 N 
ATOM     19  C   UNL     1      -0.024  -4.841  -1.189  0.00  0.00    +0.234 C 
ATOM     20  O   UNL     1      -0.031  -4.232  -2.237  0.00  0.00    -0.274 OA
ATOM     21  H   UNL     1       0.162  -4.663   0.811  0.00  0.00    +0.155 HD
BRANCH  18  26
ATOM     22  C   UNL     1      -0.010   1.500   0.017  0.00  0.00    +0.044 C 
ATOM     23  C   UNL     1       0.013  -0.007   0.007  0.00  0.00    -0.049 A 
ATOM     24  C   UNL     1      -0.579  -0.699  -1.033  0.00  0.00    +0.005 A 
ATOM     25  C   UNL     1      -0.560  -2.080  -1.046  0.00  0.00    +0.025 A 
ATOM     26  C   UNL     1       0.055  -2.774  -0.012  0.00  0.00    +0.052 A 
ATOM     27  C   UNL     1       0.650  -2.076   1.032  0.00  0.00    +0.062 A 
ATOM     28  C   UNL     1       0.632  -0.694   1.035  0.00  0.00    +0.025 A 
ATOM     29 CL   UNL     1       1.421  -2.939   2.326  0.00  0.00    -0.082 Cl
ENDBRANCH  18  26
ENDBRANCH  17  19
ENDBRANCH   1  17
TORSDOF 3
