REMARK  Name = ZINC07268748
REMARK  12 active torsions:
REMARK  status: ('A' for Active; 'I' for Inactive)
REMARK    1  A    between atoms: C_1  and  C_2
REMARK    2  A    between atoms: C_2  and  C_4
REMARK    3  A    between atoms: C_2  and  S_14
REMARK    4  A    between atoms: N_9  and  C_10
REMARK    5  A    between atoms: C_10  and  C_11
REMARK    6  A    between atoms: C_10  and  C_12
REMARK    7  A    between atoms: C_10  and  C_13
REMARK    8  A    between atoms: S_14  and  C_15
REMARK    9  A    between atoms: N_20  and  C_21
REMARK   10  A    between atoms: C_21  and  C_22
REMARK   11  A    between atoms: C_22  and  C_23
REMARK   12  A    between atoms: C_22  and  C_24
REMARK                            x       y       z     vdW  Elec       q    Type
REMARK                         _______ _______ _______ _____ _____    ______ ____
ROOT
ATOM      1  C   UNL     1      -0.019   1.526   0.010  0.00  0.00    +0.029 C 
ATOM      2  C   UNL     1       0.002  -0.004   0.002  0.00  0.00    +0.136 C 
ENDROOT
BRANCH   2   3
ATOM      3  C   UNL     1       0.707  -0.490  -1.238  0.00  0.00    +0.233 C 
ATOM      4  O   UNL     1       1.864  -0.849  -1.176  0.00  0.00    -0.274 OA
ATOM      5  N   UNL     1       0.053  -0.526  -2.415  0.00  0.00    -0.239 N 
ATOM      6  C   UNL     1       0.683  -0.961  -3.524  0.00  0.00    +0.306 C 
ATOM      7  O   UNL     1       1.843  -1.320  -3.462  0.00  0.00    -0.252 OA
ATOM      8  N   UNL     1       0.029  -0.997  -4.702  0.00  0.00    -0.294 N 
ATOM      9  H   UNL     1      -0.873  -0.239  -2.465  0.00  0.00    +0.159 HD
ATOM     10  H   UNL     1      -0.896  -0.710  -4.751  0.00  0.00    +0.151 HD
BRANCH   8  11
ATOM     11  C   UNL     1       0.715  -1.469  -5.907  0.00  0.00    +0.028 C 
ATOM     12  C   UNL     1       1.178  -2.912  -5.698  0.00  0.00    +0.031 C 
ATOM     13  C   UNL     1      -0.246  -1.409  -7.097  0.00  0.00    +0.031 C 
ATOM     14  C   UNL     1       1.927  -0.579  -6.186  0.00  0.00    +0.031 C 
ENDBRANCH   8  11
ENDBRANCH   2   3
BRANCH   2  15
ATOM     15  S   UNL     1       0.879  -0.605   1.472  0.00  0.00    -0.084 S 
BRANCH  15  16
ATOM     16  C   UNL     1      -0.136  -0.087   2.816  0.00  0.00    +0.161 A 
ATOM     17  N   UNL     1      -1.275   0.577   2.795  0.00  0.00    -0.133 NA
ATOM     18  N   UNL     1      -1.911   0.882   3.976  0.00  0.00    -0.125 NA
ATOM     19  C   UNL     1      -1.378   0.510   5.123  0.00  0.00    +0.182 A 
ATOM     20  S   UNL     1       0.100  -0.327   4.570  0.00  0.00    -0.025 S 
ATOM     21  N   UNL     1      -1.844   0.711   6.418  0.00  0.00    -0.322 N 
ATOM     22  H   UNL     1      -1.337   0.376   7.173  0.00  0.00    +0.148 HD
BRANCH  21  23
ATOM     23  C   UNL     1      -3.101   1.430   6.640  0.00  0.00    +0.106 C 
BRANCH  23  24
ATOM     24  C   UNL     1      -3.383   1.512   8.141  0.00  0.00    -0.000 C 
ATOM     25  C   UNL     1      -2.305   2.364   8.816  0.00  0.00    +0.009 C 
ATOM     26  C   UNL     1      -4.754   2.151   8.369  0.00  0.00    +0.009 C 
ENDBRANCH  23  24
ENDBRANCH  21  23
ENDBRANCH  15  16
ENDBRANCH   2  15
TORSDOF 6
