REMARK  Name = ZINC13747784
REMARK  6 active torsions:
REMARK  status: ('A' for Active; 'I' for Inactive)
REMARK    1  A    between atoms: C_1  and  C_2
REMARK    2  A    between atoms: C_2  and  C_3
REMARK    3  A    between atoms: C_2  and  O_4
REMARK    4  A    between atoms: O_4  and  C_5
REMARK    5  A    between atoms: C_6  and  C_13
REMARK    6  A    between atoms: N_14  and  N_15
REMARK                            x       y       z     vdW  Elec       q    Type
REMARK                         _______ _______ _______ _____ _____    ______ ____
ROOT
ATOM      1  C   UNL     1       2.413   1.401   0.015  0.00  0.00    +0.143 A 
ATOM      2  C   UNL     1       1.207   2.096  -0.147  0.00  0.00    +0.038 A 
ATOM      3  C   UNL     1      -0.002   1.398  -0.113  0.00  0.00    +0.028 A 
ATOM      4  C   UNL     1      -0.003   0.031   0.079  0.00  0.00    +0.020 A 
ATOM      5  C   UNL     1       1.192  -0.651   0.239  0.00  0.00    +0.034 A 
ATOM      6  C   UNL     1       2.396   0.029   0.207  0.00  0.00    +0.061 A 
ATOM      7 BR   UNL     1       4.019  -0.915   0.427  0.00  0.00    -0.046 Br
ATOM      8 BR   UNL     1      -1.640  -0.913   0.126  0.00  0.00    -0.050 Br
ENDROOT
BRANCH   2   9
ATOM      9  C   UNL     1       1.215   3.555  -0.353  0.00  0.00    +0.142 C 
ATOM     10  N   UNL     1       0.107   4.180  -0.609  0.00  0.00    -0.186 NA
BRANCH  10  11
ATOM     11  N   UNL     1       0.127   5.549  -0.909  0.00  0.00    -0.191 N 
ATOM     12  C   UNL     1      -1.030   6.220  -1.075  0.00  0.00    +0.317 C 
ATOM     13  O   UNL     1      -1.012   7.386  -1.420  0.00  0.00    -0.251 OA
ATOM     14  N   UNL     1      -2.206   5.598  -0.859  0.00  0.00    -0.312 N 
ATOM     15  H   UNL     1       0.974   6.013  -0.996  0.00  0.00    +0.179 HD
ATOM     16  H   UNL     1      -2.220   4.691  -0.516  0.00  0.00    +0.147 HD
ATOM     17  H   UNL     1      -3.039   6.059  -1.046  0.00  0.00    +0.147 HD
ENDBRANCH  10  11
ENDBRANCH   2   9
BRANCH   1  18
ATOM     18  O   UNL     1       3.595   2.070  -0.015  0.00  0.00    -0.488 OA
BRANCH  18  20
ATOM     19  C   UNL     1       5.029   3.599  -1.219  0.00  0.00    +0.051 C 
ATOM     20  C   UNL     1       4.150   2.349  -1.302  0.00  0.00    +0.167 C 
ATOM     21  C   UNL     1       4.997   1.160  -1.760  0.00  0.00    +0.051 C 
ENDBRANCH  18  20
ENDBRANCH   1  18
TORSDOF 4
