REMARK  Name = ZINC17068808
REMARK  9 active torsions:
REMARK  status: ('A' for Active; 'I' for Inactive)
REMARK    1  A    between atoms: C_1  and  C_2
REMARK    2  A    between atoms: C_5  and  S_9
REMARK    3  A    between atoms: C_6  and  C_8
REMARK    4  A    between atoms: S_9  and  N_12
REMARK    5  A    between atoms: N_12  and  N_13
REMARK    6  A    between atoms: C_14  and  C_15
REMARK    7  A    between atoms: C_14  and  C_16
REMARK    8  A    between atoms: C_18  and  O_23
REMARK    9  A    between atoms: C_20  and  O_22
REMARK                            x       y       z     vdW  Elec       q    Type
REMARK                         _______ _______ _______ _____ _____    ______ ____
ROOT
ATOM      1  N   UNL     1       2.266   5.311   0.108  0.00  0.00    -0.136 N 
ATOM      2  H   UNL     1       2.287   4.353  -0.043  0.00  0.00    +0.197 HD
ENDROOT
BRANCH   1   3
ATOM      3  S   UNL     1       3.678   6.142   0.350  0.00  0.00    +0.087 S 
ATOM      4  O   UNL     1       4.713   5.172   0.422  0.00  0.00    -0.149 OA
ATOM      5  O   UNL     1       3.691   7.202  -0.597  0.00  0.00    -0.149 OA
BRANCH   3  10
ATOM      6  C   UNL     1       3.331   8.705   5.801  0.00  0.00    +0.044 C 
ATOM      7  C   UNL     1       3.417   8.064   4.440  0.00  0.00    -0.050 A 
ATOM      8  C   UNL     1       4.363   7.086   4.195  0.00  0.00    +0.005 A 
ATOM      9  C   UNL     1       4.442   6.499   2.946  0.00  0.00    +0.029 A 
ATOM     10  C   UNL     1       3.576   6.890   1.942  0.00  0.00    +0.113 A 
ATOM     11  C   UNL     1       2.634   7.872   2.185  0.00  0.00    -0.024 A 
ATOM     12  C   UNL     1       2.552   8.456   3.436  0.00  0.00    +0.008 A 
ATOM     13  C   UNL     1       1.694   8.303   1.089  0.00  0.00    +0.046 C 
ENDBRANCH   3  10
ENDBRANCH   1   3
BRANCH   1  14
ATOM     14  N   UNL     1       1.041   5.990   0.123  0.00  0.00    -0.171 NA
ATOM     15  C   UNL     1      -0.053   5.363  -0.183  0.00  0.00    +0.065 C 
ATOM     16  C   UNL     1      -1.386   6.041   0.001  0.00  0.00    +0.068 C 
BRANCH  15  17
ATOM     17  C   UNL     1       0.009   3.988  -0.712  0.00  0.00    +0.004 A 
ATOM     18  C   UNL     1      -0.951   3.048  -0.332  0.00  0.00    +0.055 A 
ATOM     19  C   UNL     1      -0.889   1.758  -0.831  0.00  0.00    +0.121 A 
ATOM     20  C   UNL     1       0.125   1.398  -1.708  0.00  0.00    +0.090 A 
ATOM     21  C   UNL     1       1.085   2.327  -2.083  0.00  0.00    +0.121 A 
ATOM     22  C   UNL     1       1.028   3.621  -1.593  0.00  0.00    +0.055 A 
BRANCH  21  23
ATOM     23  O   UNL     1       2.079   1.968  -2.937  0.00  0.00    -0.507 OA
ATOM     24  H   UNL     1       1.865   2.105  -3.870  0.00  0.00    +0.292 HD
ENDBRANCH  21  23
BRANCH  19  25
ATOM     25  O   UNL     1      -1.823   0.842  -0.463  0.00  0.00    -0.507 OA
ATOM     26  H   UNL     1      -1.589   0.337   0.327  0.00  0.00    +0.292 HD
ENDBRANCH  19  25
ENDBRANCH  15  17
ENDBRANCH   1  14
TORSDOF 6
