REMARK  Name = ZINC01460549
REMARK  7 active torsions:
REMARK  status: ('A' for Active; 'I' for Inactive)
REMARK    1  A    between atoms: C_1  and  C_2
REMARK    2  A    between atoms: C_3  and  C_24
REMARK    3  A    between atoms: C_4  and  C_12
REMARK    4  A    between atoms: C_15  and  O_20
REMARK    5  A    between atoms: C_16  and  O_18
REMARK    6  A    between atoms: O_18  and  C_19
REMARK    7  A    between atoms: O_20  and  C_21
REMARK                            x       y       z     vdW  Elec       q    Type
REMARK                         _______ _______ _______ _____ _____    ______ ____
ROOT
ATOM      1  C   UNL     1       7.342   2.296   2.468  0.00  0.00    +0.061 C 
ATOM      2  C   UNL     1       6.732   2.743   1.165  0.00  0.00    +0.018 C 
ATOM      3  C   UNL     1       5.616   3.486   1.193  0.00  0.00    +0.060 C 
ATOM      4  C   UNL     1       4.921   3.973  -0.050  0.00  0.00    +0.177 C 
ATOM      5  N   UNL     1       5.789   3.766  -1.206  0.00  0.00    -0.221 N 
ATOM      6  C   UNL     1       6.916   3.011  -1.172  0.00  0.00    +0.218 A 
ATOM      7  N   UNL     1       7.447   3.027  -2.364  0.00  0.00    -0.201 NA
ATOM      8  C   UNL     1       6.698   3.780  -3.177  0.00  0.00    +0.247 A 
ATOM      9  N   UNL     1       5.676   4.252  -2.507  0.00  0.00    -0.156 NA
ATOM     10  N   UNL     1       7.337   2.376  -0.012  0.00  0.00    -0.287 N 
ATOM     11  H   UNL     1       8.032   1.699  -0.032  0.00  0.00    +0.155 HD
ENDROOT
BRANCH   4  12
ATOM     12  C   UNL     1       3.638   3.205  -0.242  0.00  0.00    -0.015 A 
ATOM     13  C   UNL     1       3.673   1.832  -0.394  0.00  0.00    +0.010 A 
ATOM     14  C   UNL     1       2.498   1.122  -0.564  0.00  0.00    +0.050 A 
ATOM     15  C   UNL     1       1.284   1.790  -0.595  0.00  0.00    +0.168 A 
ATOM     16  C   UNL     1       1.250   3.172  -0.442  0.00  0.00    +0.162 A 
ATOM     17  C   UNL     1       2.430   3.877  -0.266  0.00  0.00    +0.055 A 
BRANCH  16  18
ATOM     18  O   UNL     1       0.060   3.831  -0.467  0.00  0.00    -0.491 OA
ATOM     19  C   UNL     1       0.101   5.250  -0.304  0.00  0.00    +0.277 C 
ENDBRANCH  16  18
BRANCH  15  20
ATOM     20  O   UNL     1       0.129   1.094  -0.768  0.00  0.00    -0.431 OA
BRANCH  20  21
ATOM     21  C   UNL     1       0.240  -0.323  -0.918  0.00  0.00    +0.541 C 
ATOM     22  F   UNL     1       1.025  -0.613  -2.039  0.00  0.00    -0.166 F 
ATOM     23  F   UNL     1       0.839  -0.867   0.223  0.00  0.00    -0.166 F 
ENDBRANCH  20  21
ENDBRANCH  15  20
ENDBRANCH   4  12
BRANCH   3  24
ATOM     24  C   UNL     1       5.066   3.828   2.451  0.00  0.00    +0.241 C 
ATOM     25  O   UNL     1       5.181   4.963   2.878  0.00  0.00    -0.271 OA
ATOM     26  N   UNL     1       4.414   2.898   3.177  0.00  0.00    -0.325 N 
ATOM     27  H   UNL     1       4.322   1.994   2.837  0.00  0.00    +0.145 HD
ATOM     28  H   UNL     1       4.037   3.133   4.039  0.00  0.00    +0.145 HD
ENDBRANCH   3  24
TORSDOF 5
