REMARK  Name = ZINC13356139
REMARK  6 active torsions:
REMARK  status: ('A' for Active; 'I' for Inactive)
REMARK    1  A    between atoms: C_4  and  C_7
REMARK    2  A    between atoms: C_7  and  C_27
REMARK    3  A    between atoms: N_10  and  C_14
REMARK    4  A    between atoms: C_14  and  C_15
REMARK    5  A    between atoms: N_17  and  C_18
REMARK    6  A    between atoms: C_23  and  C_24
REMARK                            x       y       z     vdW  Elec       q    Type
REMARK                         _______ _______ _______ _____ _____    ______ ____
ROOT
ATOM      1  C   UNL     1      -1.245   2.008   0.170  0.00  0.00    +0.164 C 
ATOM      2  C   UNL     1       0.047   1.217   0.219  0.00  0.00    +0.256 C 
ATOM      3  O   UNL     1       0.166   0.011   0.257  0.00  0.00    -0.272 OA
ATOM      4  N   UNL     1       1.036   2.133   0.206  0.00  0.00    -0.215 N 
ATOM      5  C   UNL     1       0.553   3.380   0.161  0.00  0.00    +0.310 C 
ATOM      6  O   UNL     1       1.251   4.374   0.141  0.00  0.00    -0.252 OA
ATOM      7  N   UNL     1      -0.792   3.410   0.140  0.00  0.00    -0.278 N 
ATOM      8  H   UNL     1      -1.353   4.200   0.107  0.00  0.00    +0.152 HD
ENDROOT
BRANCH   1  12
ATOM      9  C   UNL     1      -3.455   1.060  -3.361  0.00  0.00    +0.000 A 
ATOM     10  C   UNL     1      -3.631   2.284  -2.743  0.00  0.00    +0.000 A 
ATOM     11  C   UNL     1      -2.916   2.591  -1.600  0.00  0.00    +0.006 A 
ATOM     12  C   UNL     1      -2.025   1.674  -1.075  0.00  0.00    -0.011 A 
ATOM     13  C   UNL     1      -1.844   0.452  -1.696  0.00  0.00    +0.006 A 
ATOM     14  C   UNL     1      -2.563   0.143  -2.836  0.00  0.00    +0.000 A 
ENDBRANCH   1  12
BRANCH   1  15
ATOM     15  C   UNL     1      -2.073   1.748   1.402  0.00  0.00    -0.011 A 
ATOM     16  C   UNL     1      -2.928   0.662   1.443  0.00  0.00    +0.006 A 
ATOM     17  C   UNL     1      -3.684   0.420   2.575  0.00  0.00    +0.000 A 
ATOM     18  C   UNL     1      -3.593   1.270   3.661  0.00  0.00    +0.000 A 
ATOM     19  C   UNL     1      -2.743   2.359   3.618  0.00  0.00    +0.000 A 
ATOM     20  C   UNL     1      -1.983   2.598   2.488  0.00  0.00    +0.006 A 
ENDBRANCH   1  15
BRANCH   4  21
ATOM     21  C   UNL     1       2.463   1.803   0.238  0.00  0.00    +0.214 C 
BRANCH  21  22
ATOM     22  C   UNL     1       2.974   1.647  -1.171  0.00  0.00    +0.235 C 
ATOM     23  O   UNL     1       2.220   1.795  -2.110  0.00  0.00    -0.274 OA
ATOM     24  N   UNL     1       4.269   1.341  -1.388  0.00  0.00    -0.283 N 
ATOM     25  H   UNL     1       4.852   1.141  -0.639  0.00  0.00    +0.155 HD
BRANCH  24  26
ATOM     26  C   UNL     1       4.769   1.313  -2.688  0.00  0.00    +0.049 A 
ATOM     27  C   UNL     1       4.164   2.066  -3.684  0.00  0.00    +0.044 A 
ATOM     28  C   UNL     1       4.665   2.041  -4.971  0.00  0.00    +0.043 A 
ATOM     29  C   UNL     1       5.768   1.257  -5.280  0.00  0.00    +0.021 A 
ATOM     30  C   UNL     1       6.377   0.499  -4.305  0.00  0.00    +0.018 A 
ATOM     31  C   UNL     1       5.884   0.519  -2.997  0.00  0.00    +0.084 A 
ATOM     32 CL   UNL     1       3.908   2.991  -6.211  0.00  0.00    -0.083 Cl
BRANCH  31  33
ATOM     33  C   UNL     1       6.532  -0.289  -1.949  0.00  0.00    +0.388 C 
ATOM     34  O   UNL     1       6.045  -0.345  -0.837  0.00  0.00    -0.241 OA
ATOM     35  O   UNL     1       7.664  -0.966  -2.223  0.00  0.00    -0.241 OA
ENDBRANCH  31  33
ENDBRANCH  24  26
ENDBRANCH  21  22
ENDBRANCH   4  21
TORSDOF 6
