REMARK  Name = ZINC12250162
REMARK  11 active torsions:
REMARK  status: ('A' for Active; 'I' for Inactive)
REMARK    1  A    between atoms: C_1  and  C_2
REMARK    2  A    between atoms: C_6  and  C_37
REMARK    3  A    between atoms: C_7  and  N_8
REMARK    4  A    between atoms: C_9  and  C_11
REMARK    5  A    between atoms: C_12  and  C_36
REMARK    6  A    between atoms: C_14  and  S_25
REMARK    7  A    between atoms: C_15  and  C_23
REMARK    8  A    between atoms: C_16  and  C_18
REMARK    9  A    between atoms: S_25  and  C_26
REMARK   10  A    between atoms: C_26  and  C_27
REMARK   11  A    between atoms: N_29  and  C_30
REMARK                            x       y       z     vdW  Elec       q    Type
REMARK                         _______ _______ _______ _____ _____    ______ ____
ROOT
ATOM      1  C   UNL     1      -2.805   4.343   0.401  0.00  0.00    +0.047 C 
ATOM      2  C   UNL     1      -2.886   5.648   0.707  0.00  0.00    +0.015 C 
ATOM      3  N   UNL     1      -4.081   6.312   0.653  0.00  0.00    -0.312 N 
ATOM      4  C   UNL     1      -5.263   5.606   0.654  0.00  0.00    +0.080 C 
ATOM      5  C   UNL     1      -5.277   4.282   0.347  0.00  0.00    +0.072 C 
ATOM      6  C   UNL     1      -4.013   3.552  -0.009  0.00  0.00    +0.134 C 
ATOM      7  C   UNL     1      -1.640   6.395   1.109  0.00  0.00    +0.061 C 
ATOM      8  H   UNL     1      -4.098   7.411   0.610  0.00  0.00    +0.152 HD
ENDROOT
BRANCH   6   9
ATOM      9  C   UNL     1      -3.975   3.326  -1.499  0.00  0.00    +0.118 A 
ATOM     10  C   UNL     1      -3.945   2.129  -2.112  0.00  0.00    +0.045 A 
ATOM     11  C   UNL     1      -3.916   2.382  -3.503  0.00  0.00    +0.041 A 
ATOM     12  C   UNL     1      -3.931   3.719  -3.656  0.00  0.00    +0.195 A 
ATOM     13  O   UNL     1      -3.973   4.285  -2.439  0.00  0.00    -0.467 OA
ENDBRANCH   6   9
BRANCH   1  15
ATOM     14  N   UNL     1      -1.428   2.412   0.082  0.00  0.00    -0.281 N 
ATOM     15  C   UNL     1      -1.548   3.696   0.473  0.00  0.00    +0.247 C 
ATOM     16  O   UNL     1      -0.575   4.299   0.888  0.00  0.00    -0.270 OA
ATOM     17  H   UNL     1      -2.318   1.849  -0.240  0.00  0.00    +0.155 HD
BRANCH  14  24
ATOM     18  C   UNL     1      -1.217  -0.196   1.201  0.00  0.00    +0.045 C 
ATOM     19  C   UNL     1      -0.025   0.522   0.623  0.00  0.00    -0.029 A 
ATOM     20  C   UNL     1       1.216  -0.083   0.629  0.00  0.00    +0.005 A 
ATOM     21  C   UNL     1       2.311   0.576   0.099  0.00  0.00    +0.001 A 
ATOM     22  C   UNL     1       2.166   1.842  -0.439  0.00  0.00    +0.005 A 
ATOM     23  C   UNL     1       0.927   2.453  -0.448  0.00  0.00    -0.029 A 
ATOM     24  C   UNL     1      -0.174   1.794   0.084  0.00  0.00    +0.040 A 
ATOM     25  C   UNL     1       0.770   3.832  -1.034  0.00  0.00    +0.045 C 
ENDBRANCH  14  24
ENDBRANCH   1  15
BRANCH   5  26
ATOM     26  C   UNL     1      -6.519   3.569   0.365  0.00  0.00    +0.098 C 
ATOM     27  N   UNL     1      -7.504   3.003   0.379  0.00  0.00    -0.191 NA
ENDBRANCH   5  26
BRANCH   4  28
ATOM     28  S   UNL     1      -6.771   6.426   1.056  0.00  0.00    -0.100 S 
BRANCH  28  29
ATOM     29  C   UNL     1      -6.148   8.098   1.359  0.00  0.00    +0.171 C 
BRANCH  29  30
ATOM     30  C   UNL     1      -7.295   9.002   1.730  0.00  0.00    +0.227 C 
ATOM     31  O   UNL     1      -8.423   8.559   1.785  0.00  0.00    -0.275 OA
ATOM     32  N   UNL     1      -7.068  10.303   2.001  0.00  0.00    -0.285 N 
ATOM     33  H   UNL     1      -6.062  10.726   1.863  0.00  0.00    +0.155 HD
BRANCH  32  34
ATOM     34  C   UNL     1      -8.112  11.114   2.459  0.00  0.00    +0.033 A 
ATOM     35  C   UNL     1      -8.158  12.456   2.103  0.00  0.00    +0.023 A 
ATOM     36  C   UNL     1      -9.192  13.253   2.552  0.00  0.00    +0.002 A 
ATOM     37  C   UNL     1     -10.176  12.720   3.365  0.00  0.00    +0.000 A 
ATOM     38  C   UNL     1     -10.130  11.386   3.726  0.00  0.00    +0.002 A 
ATOM     39  C   UNL     1      -9.101  10.582   3.275  0.00  0.00    +0.023 A 
ENDBRANCH  32  34
ENDBRANCH  29  30
ENDBRANCH  28  29
ENDBRANCH   4  28
TORSDOF 8
