REMARK  Name = ZINC41710696
REMARK  7 active torsions:
REMARK  status: ('A' for Active; 'I' for Inactive)
REMARK    1  A    between atoms: C_1  and  C_2
REMARK    2  A    between atoms: N_6  and  C_7
REMARK    3  A    between atoms: C_7  and  C_8
REMARK    4  A    between atoms: C_8  and  N_9
REMARK    5  A    between atoms: C_15  and  C_20
REMARK    6  A    between atoms: C_15  and  C_21
REMARK    7  A    between atoms: C_17  and  O_19
REMARK                            x       y       z     vdW  Elec       q    Type
REMARK                         _______ _______ _______ _____ _____    ______ ____
ROOT
ATOM      1  C   UNL     1      -0.018   1.503   0.010  0.00  0.00    +0.063 C 
ATOM      2  C   UNL     1       0.002  -0.004   0.002  0.00  0.00    +0.016 A 
ATOM      3  C   UNL     1       0.008  -0.789  -1.097  0.00  0.00    +0.029 A 
ATOM      4  C   UNL     1       0.028  -2.121  -0.657  0.00  0.00    +0.002 A 
ATOM      5  C   UNL     1       0.035  -2.105   0.695  0.00  0.00    +0.025 A 
ATOM      6  N   UNL     1       0.024  -0.810   1.104  0.00  0.00    -0.346 N 
ATOM      7  C   UNL     1       0.060  -3.346   1.554  0.00  0.00    +0.060 C 
ATOM      8  C   UNL     1       0.489  -4.531   0.680  0.00  0.00    -0.027 C 
ATOM      9  C   UNL     1      -0.354  -4.557  -0.598  0.00  0.00    +0.043 C 
ATOM     10  C   UNL     1       0.039  -3.375  -1.493  0.00  0.00    +0.147 C 
ATOM     11  C   UNL     1       1.967  -4.383   0.312  0.00  0.00    +0.011 C 
ATOM     12  C   UNL     1       0.284  -5.835   1.453  0.00  0.00    +0.011 C 
ENDROOT
BRANCH  10  13
ATOM     13  O   UNL     1      -0.900  -3.249  -2.563  0.00  0.00    -0.387 OA
ATOM     14  H   UNL     1      -0.720  -2.509  -3.159  0.00  0.00    +0.210 HD
ENDBRANCH  10  13
BRANCH   6  15
ATOM     15  C   UNL     1       0.030  -0.353   2.496  0.00  0.00    +0.143 C 
BRANCH  15  16
ATOM     16  C   UNL     1      -1.410  -0.215   2.994  0.00  0.00    +0.144 C 
BRANCH  16  17
ATOM     17  N   UNL     1      -1.404   0.241   4.386  0.00  0.00    -0.335 N 
ATOM     18  C   UNL     1      -1.377  -0.552   5.501  0.00  0.00    +0.107 A 
ATOM     19  C   UNL     1      -1.380   0.272   6.566  0.00  0.00    +0.130 A 
ATOM     20  N   UNL     1      -1.409   1.534   6.114  0.00  0.00    -0.244 NA
ATOM     21  C   UNL     1      -1.418   1.524   4.809  0.00  0.00    +0.199 A 
ENDBRANCH  16  17
ENDBRANCH  15  16
ENDBRANCH   6  15
TORSDOF 4
