REMARK  Name = ZINC04608284
REMARK  2 active torsions:
REMARK  status: ('A' for Active; 'I' for Inactive)
REMARK    1  A    between atoms: C_1  and  C_2
REMARK    2  A    between atoms: C_4  and  N_8
REMARK                            x       y       z     vdW  Elec       q    Type
REMARK                         _______ _______ _______ _____ _____    ______ ____
ROOT
ATOM      1  C   UNL     1       2.484   1.904  -0.011  0.00  0.00    +0.067 C 
ATOM      2  C   UNL     1       1.153   2.611   0.005  0.00  0.00    +0.057 A 
ATOM      3  C   UNL     1      -0.024   1.887   0.012  0.00  0.00    +0.078 A 
ATOM      4  C   UNL     1      -1.233   2.587   0.022  0.00  0.00    +0.134 A 
ATOM      5  N   UNL     1      -1.206   3.916   0.033  0.00  0.00    -0.220 NA
ATOM      6  C   UNL     1      -0.060   4.566   0.026  0.00  0.00    +0.223 A 
ATOM      7  N   UNL     1       1.097   3.936   0.012  0.00  0.00    -0.239 NA
ATOM      8 BR   UNL     1       0.002  -0.004   0.002  0.00  0.00    -0.045 Br
ENDROOT
BRANCH   4   9
ATOM      9  N   UNL     1      -2.440   1.906   0.024  0.00  0.00    -0.342 N 
ATOM     10  H   UNL     1      -2.450   0.936   0.018  0.00  0.00    +0.144 HD
ATOM     11  H   UNL     1      -3.275   2.400   0.030  0.00  0.00    +0.144 HD
ENDBRANCH   4   9
TORSDOF 1
