REMARK  Name = ZINC49531258
REMARK  8 active torsions:
REMARK  status: ('A' for Active; 'I' for Inactive)
REMARK    1  A    between atoms: C_1  and  C_2
REMARK    2  A    between atoms: C_2  and  C_3
REMARK    3  A    between atoms: C_3  and  C_5
REMARK    4  A    between atoms: C_3  and  N_10
REMARK    5  A    between atoms: N_10  and  C_11
REMARK    6  A    between atoms: C_12  and  N_18
REMARK    7  A    between atoms: C_13  and  C_17
REMARK    8  A    between atoms: N_15  and  C_16
REMARK                            x       y       z     vdW  Elec       q    Type
REMARK                         _______ _______ _______ _____ _____    ______ ____
ROOT
ATOM      1  N   UNL     1      -0.206  -0.012  -2.429  0.00  0.00    -0.320 N 
ATOM      2  H   UNL     1      -0.889  -0.585  -2.810  0.00  0.00    +0.148 HD
ENDROOT
BRANCH   1   3
ATOM      3  C   UNL     1       0.090   1.210  -3.027  0.00  0.00    +0.148 A 
ATOM      4  C   UNL     1       1.278   1.872  -2.960  0.00  0.00    +0.188 A 
ATOM      5  C   UNL     1       1.152   3.054  -3.695  0.00  0.00    +0.092 A 
ATOM      6  N   UNL     1      -0.060   3.105  -4.186  0.00  0.00    -0.173 NA
ATOM      7  N   UNL     1      -0.748   1.953  -3.785  0.00  0.00    -0.251 N 
ATOM      8  C   UNL     1      -2.133   1.614  -4.123  0.00  0.00    +0.174 C 
ATOM      9  C   UNL     1       2.227   4.092  -3.889  0.00  0.00    +0.070 C 
BRANCH   4  10
ATOM     10  N   UNL     1       2.489   1.420  -2.236  0.00  0.00    +0.062 N 
ATOM     11  O   UNL     1       3.310   0.736  -2.800  0.00  0.00    -0.126 OA
ATOM     12  O   UNL     1       2.655   1.736  -1.081  0.00  0.00    -0.126 OA
ENDBRANCH   4  10
ENDBRANCH   1   3
BRANCH   1  13
ATOM     13  C   UNL     1       0.515  -0.432  -1.225  0.00  0.00    +0.108 C 
BRANCH  13  14
ATOM     14  C   UNL     1       0.732  -1.923  -1.264  0.00  0.00    +0.010 A 
ATOM     15  C   UNL     1       1.821  -2.637  -0.890  0.00  0.00    +0.013 A 
ATOM     16  C   UNL     1       1.795  -4.014  -1.015  0.00  0.00    +0.008 A 
ATOM     17  C   UNL     1       0.681  -4.608  -1.507  0.00  0.00    +0.045 A 
ATOM     18  S   UNL     1      -0.384  -3.207  -1.806  0.00  0.00    -0.100 S 
ENDBRANCH  13  14
BRANCH  13  20
ATOM     19  C   UNL     1      -0.408   1.455   0.128  0.00  0.00    +0.006 C 
ATOM     20  C   UNL     1      -0.305  -0.068   0.014  0.00  0.00    +0.024 C 
ENDBRANCH  13  20
ENDBRANCH   1  13
TORSDOF 5
