REMARK  Name = ZINC66923142
REMARK  10 active torsions:
REMARK  status: ('A' for Active; 'I' for Inactive)
REMARK    1  A    between atoms: C_1  and  C_2
REMARK    2  A    between atoms: C_2  and  C_4
REMARK    3  A    between atoms: C_2  and  N_11
REMARK    4  A    between atoms: N_6  and  C_7
REMARK    5  A    between atoms: C_7  and  C_8
REMARK    6  A    between atoms: C_7  and  C_9
REMARK    7  A    between atoms: C_7  and  C_10
REMARK    8  A    between atoms: C_12  and  C_14
REMARK    9  A    between atoms: N_16  and  C_23
REMARK   10  A    between atoms: C_17  and  C_20
REMARK                            x       y       z     vdW  Elec       q    Type
REMARK                         _______ _______ _______ _____ _____    ______ ____
ROOT
ATOM      1  C   UNL     1       2.716  -1.059  -2.418  0.00  0.00    +0.123 C 
ATOM      2  N   UNL     1       2.135  -1.391  -3.527  0.00  0.00    -0.178 NA
ATOM      3  N   UNL     1       3.015  -1.808  -4.524  0.00  0.00    -0.212 N 
ATOM      4  C   UNL     1       4.390  -1.744  -4.004  0.00  0.00    +0.189 C 
ATOM      5  C   UNL     1       4.211  -1.227  -2.563  0.00  0.00    +0.096 C 
ENDROOT
BRANCH   3   6
ATOM      6  C   UNL     1       2.651  -2.219  -5.808  0.00  0.00    +0.053 A 
ATOM      7  C   UNL     1       3.626  -2.619  -6.713  0.00  0.00    +0.028 A 
ATOM      8  C   UNL     1       3.264  -3.026  -7.982  0.00  0.00    +0.040 A 
ATOM      9  C   UNL     1       1.929  -3.035  -8.353  0.00  0.00    +0.124 A 
ATOM     10  C   UNL     1       0.955  -2.637  -7.452  0.00  0.00    +0.040 A 
ATOM     11  C   UNL     1       1.312  -2.235  -6.180  0.00  0.00    +0.028 A 
ATOM     12  F   UNL     1       1.577  -3.433  -9.595  0.00  0.00    -0.205 F 
ENDBRANCH   3   6
BRANCH   4  13
ATOM     13  C   UNL     1       5.218  -0.779  -4.812  0.00  0.00    +0.233 C 
ATOM     14  O   UNL     1       4.674   0.051  -5.509  0.00  0.00    -0.274 OA
ATOM     15  N   UNL     1       6.564  -0.838  -4.761  0.00  0.00    -0.328 N 
ATOM     16  H   UNL     1       6.999  -1.502  -4.204  0.00  0.00    +0.145 HD
ATOM     17  H   UNL     1       7.097  -0.217  -5.281  0.00  0.00    +0.145 HD
ENDBRANCH   4  13
BRANCH   1  19
ATOM     18  N   UNL     1       0.688  -0.476  -1.203  0.00  0.00    -0.299 N 
ATOM     19  C   UNL     1       2.031  -0.587  -1.215  0.00  0.00    +0.260 C 
ATOM     20  O   UNL     1       2.674  -0.294  -0.224  0.00  0.00    -0.269 OA
ATOM     21  H   UNL     1       0.175  -0.710  -1.993  0.00  0.00    +0.150 HD
BRANCH  18  23
ATOM     22  C   UNL     1      -0.019   1.526   0.010  0.00  0.00    +0.038 C 
ATOM     23  C   UNL     1       0.002  -0.004   0.002  0.00  0.00    +0.156 C 
BRANCH  23  24
ATOM     24  C   UNL     1      -1.412  -0.526   0.013  0.00  0.00    +0.233 C 
ATOM     25  O   UNL     1      -1.808  -1.223  -0.897  0.00  0.00    -0.274 OA
ATOM     26  N   UNL     1      -2.236  -0.217   1.033  0.00  0.00    -0.309 N 
ATOM     27  H   UNL     1      -1.920   0.341   1.761  0.00  0.00    +0.149 HD
BRANCH  26  28
ATOM     28  C   UNL     1      -3.611  -0.724   1.044  0.00  0.00    +0.026 C 
ATOM     29  C   UNL     1      -3.590  -2.254   1.035  0.00  0.00    +0.031 C 
ATOM     30  C   UNL     1      -4.327  -0.231   2.302  0.00  0.00    +0.031 C 
ATOM     31  C   UNL     1      -4.351  -0.217  -0.196  0.00  0.00    +0.031 C 
ENDBRANCH  26  28
ENDBRANCH  23  24
ENDBRANCH  18  23
ENDBRANCH   1  19
TORSDOF 6
