REMARK  Name = ZINC63730963
REMARK  7 active torsions:
REMARK  status: ('A' for Active; 'I' for Inactive)
REMARK    1  A    between atoms: C_1  and  O_2
REMARK    2  A    between atoms: O_2  and  C_3
REMARK    3  A    between atoms: C_8  and  S_13
REMARK    4  A    between atoms: S_13  and  C_14
REMARK    5  A    between atoms: C_14  and  C_15
REMARK    6  A    between atoms: N_17  and  C_18
REMARK    7  A    between atoms: N_17  and  C_26
REMARK                            x       y       z     vdW  Elec       q    Type
REMARK                         _______ _______ _______ _____ _____    ______ ____
ROOT
ATOM      1  C   UNL     1       5.953  -4.386  -2.039  0.00  0.00    +0.226 C 
ATOM      2  O   UNL     1       4.863  -3.891  -2.234  0.00  0.00    -0.275 OA
ATOM      3  N   UNL     1       6.753  -3.896  -1.072  0.00  0.00    -0.293 N 
ENDROOT
BRANCH   3   4
ATOM      4  C   UNL     1       6.230  -2.917  -0.115  0.00  0.00    +0.099 C 
ATOM      5  C   UNL     1       4.947  -3.461   0.536  0.00  0.00    +0.046 C 
ATOM      6  C   UNL     1       4.218  -2.326   1.295  0.00  0.00    +0.168 C 
ATOM      7  S   UNL     1       4.726  -0.825   0.362  0.00  0.00    -0.029 S 
ATOM      8  O   UNL     1       5.471   0.025   1.223  0.00  0.00    -0.174 OA
ATOM      9  O   UNL     1       3.598  -0.306  -0.329  0.00  0.00    -0.174 OA
ATOM     10  C   UNL     1       5.873  -1.597  -0.857  0.00  0.00    +0.188 C 
ENDBRANCH   3   4
BRANCH   3  11
ATOM     11  C   UNL     1       8.145  -4.342  -0.976  0.00  0.00    +0.076 C 
ATOM     12  C   UNL     1       8.772  -4.358  -2.372  0.00  0.00    +0.022 C 
ATOM     13  C   UNL     1      10.226  -4.824  -2.272  0.00  0.00    +0.002 C 
ATOM     14  C   UNL     1      10.271  -6.232  -1.676  0.00  0.00    +0.000 C 
ATOM     15  C   UNL     1       9.644  -6.216  -0.281  0.00  0.00    +0.002 C 
ATOM     16  C   UNL     1       8.190  -5.750  -0.380  0.00  0.00    +0.022 C 
ENDBRANCH   3  11
BRANCH   1  17
ATOM     17  C   UNL     1       6.413  -5.550  -2.879  0.00  0.00    +0.168 C 
BRANCH  17  18
ATOM     18  S   UNL     1       4.970  -6.397  -3.581  0.00  0.00    -0.106 S 
BRANCH  18  24
ATOM     19  C   UNL     1      10.166  -8.181  -5.531  0.00  0.00    +0.122 A 
ATOM     20  C   UNL     1      10.102  -9.047  -4.361  0.00  0.00    +0.048 A 
ATOM     21  C   UNL     1       8.953  -9.253  -3.691  0.00  0.00    +0.031 A 
ATOM     22  C   UNL     1       7.717  -8.592  -4.138  0.00  0.00    +0.061 A 
ATOM     23  N   UNL     1       6.497  -8.617  -3.685  0.00  0.00    -0.355 N 
ATOM     24  C   UNL     1       5.686  -7.753  -4.550  0.00  0.00    +0.236 C 
ATOM     25  N   UNL     1       6.595  -7.218  -5.572  0.00  0.00    -0.355 N 
ATOM     26  C   UNL     1       7.782  -7.707  -5.333  0.00  0.00    +0.064 A 
ATOM     27  C   UNL     1       9.073  -7.533  -6.001  0.00  0.00    +0.073 A 
ATOM     28  H   UNL     1       6.181  -9.117  -2.916  0.00  0.00    +0.162 HD
ATOM     29  H   UNL     1       6.357  -6.613  -6.292  0.00  0.00    +0.162 HD
BRANCH  19  31
ATOM     30  C   UNL     1      12.478  -8.717  -5.629  0.00  0.00    +0.277 C 
ATOM     31  O   UNL     1      11.354  -8.014  -6.163  0.00  0.00    -0.495 OA
ENDBRANCH  19  31
ENDBRANCH  18  24
ENDBRANCH  17  18
ENDBRANCH   1  17
TORSDOF 6
