REMARK  Name = ZINC15107711
REMARK  11 active torsions:
REMARK  status: ('A' for Active; 'I' for Inactive)
REMARK    1  A    between atoms: C_1  and  C_2
REMARK    2  A    between atoms: C_5  and  N_9
REMARK    3  A    between atoms: C_6  and  C_8
REMARK    4  A    between atoms: C_10  and  C_12
REMARK    5  A    between atoms: C_14  and  C_27
REMARK    6  A    between atoms: C_21  and  O_22
REMARK    7  A    between atoms: C_24  and  C_25
REMARK    8  A    between atoms: C_24  and  O_26
REMARK    9  A    between atoms: C_30  and  C_33
REMARK   10  A    between atoms: C_33  and  O_35
REMARK   11  A    between atoms: O_35  and  C_36
REMARK                            x       y       z     vdW  Elec       q    Type
REMARK                         _______ _______ _______ _____ _____    ______ ____
ROOT
ATOM      1  C   UNL     1      -0.947   8.276  -0.602  0.00  0.00    +0.119 C 
ATOM      2  C   UNL     1      -0.413   8.476   0.822  0.00  0.00    +0.071 C 
ATOM      3  C   UNL     1      -1.319   7.739   1.777  0.00  0.00    +0.044 A 
ATOM      4  C   UNL     1      -2.567   7.307   1.464  0.00  0.00    +0.046 A 
ATOM      5  N   UNL     1      -3.076   6.695   2.546  0.00  0.00    -0.278 N 
ATOM      6  H   UNL     1      -3.981   6.274   2.612  0.00  0.00    +0.189 HD
ATOM      7  N   UNL     1      -2.114   6.750   3.565  0.00  0.00    -0.136 NA
ATOM      8  C   UNL     1      -1.058   7.379   3.101  0.00  0.00    +0.235 A 
ATOM      9  C   UNL     1      -3.218   7.508   0.118  0.00  0.00    +0.090 C 
ATOM     10  C   UNL     1      -2.444   8.596  -0.637  0.00  0.00    +0.081 C 
ATOM     11  C   UNL     1      -2.691   9.951   0.029  0.00  0.00    +0.042 C 
ENDROOT
BRANCH   2  12
ATOM     12  C   UNL     1       0.986   7.924   0.921  0.00  0.00    -0.039 A 
ATOM     13  C   UNL     1       1.180   6.562   1.071  0.00  0.00    +0.005 A 
ATOM     14  C   UNL     1       2.458   6.051   1.158  0.00  0.00    +0.015 A 
ATOM     15  C   UNL     1       3.556   6.911   1.106  0.00  0.00    +0.059 A 
ATOM     16  C   UNL     1       3.353   8.285   0.960  0.00  0.00    +0.015 A 
ATOM     17  C   UNL     1       2.069   8.783   0.869  0.00  0.00    +0.005 A 
BRANCH  15  18
ATOM     18  C   UNL     1       4.928   6.371   1.203  0.00  0.00    +0.339 C 
ATOM     19  O   UNL     1       5.881   7.122   1.157  0.00  0.00    -0.245 OA
BRANCH  18  20
ATOM     20  O   UNL     1       5.121   5.045   1.344  0.00  0.00    -0.464 OA
ATOM     21  C   UNL     1       6.495   4.585   1.433  0.00  0.00    +0.280 C 
ENDBRANCH  18  20
ENDBRANCH  15  18
ENDBRANCH   2  12
BRANCH   1  23
ATOM     22  N   UNL     1      -0.075   6.573  -2.170  0.00  0.00    -0.285 N 
ATOM     23  C   UNL     1      -0.730   6.845  -1.024  0.00  0.00    +0.224 C 
ATOM     24  O   UNL     1      -1.144   5.939  -0.332  0.00  0.00    -0.275 OA
ATOM     25  H   UNL     1       0.332   7.291  -2.678  0.00  0.00    +0.155 HD
BRANCH  22  30
ATOM     26  C   UNL     1       0.302   1.222  -4.018  0.00  0.00    +0.044 C 
ATOM     27  C   UNL     1       0.202   2.644  -3.527  0.00  0.00    -0.050 A 
ATOM     28  C   UNL     1      -0.772   2.989  -2.608  0.00  0.00    +0.005 A 
ATOM     29  C   UNL     1      -0.863   4.289  -2.152  0.00  0.00    +0.024 A 
ATOM     30  C   UNL     1       0.019   5.253  -2.625  0.00  0.00    +0.036 A 
ATOM     31  C   UNL     1       0.992   4.904  -3.551  0.00  0.00    -0.029 A 
ATOM     32  C   UNL     1       1.081   3.600  -3.999  0.00  0.00    +0.008 A 
ATOM     33  C   UNL     1       1.950   5.946  -4.068  0.00  0.00    +0.045 C 
ENDBRANCH  22  30
ENDBRANCH   1  23
BRANCH   8  34
ATOM     34  O   UNL     1       0.087   7.633   3.789  0.00  0.00    -0.491 OA
ATOM     35  H   UNL     1       0.008   7.267   4.716  0.00  0.00    +0.294 HD
ENDBRANCH   8  34
BRANCH  10  36
ATOM     36  O   UNL     1      -2.890   8.643  -1.994  0.00  0.00    -0.388 OA
ATOM     37  H   UNL     1      -3.831   8.842  -2.092  0.00  0.00    +0.210 HD
ENDBRANCH  10  36
TORSDOF 7
