REMARK  Name = ZINC16137638
REMARK  6 active torsions:
REMARK  status: ('A' for Active; 'I' for Inactive)
REMARK    1  A    between atoms: C_3  and  C_24
REMARK    2  A    between atoms: C_6  and  C_9
REMARK    3  A    between atoms: C_9  and  N_10
REMARK    4  A    between atoms: N_13  and  C_14
REMARK    5  A    between atoms: C_24  and  N_25
REMARK    6  A    between atoms: N_28  and  C_29
REMARK                            x       y       z     vdW  Elec       q    Type
REMARK                         _______ _______ _______ _____ _____    ______ ____
ROOT
ATOM      1  C   UNL     1       5.965   7.377  -2.504  0.00  0.00    +0.001 C 
ATOM      2  C   UNL     1       6.226   8.879  -2.373  0.00  0.00    +0.005 C 
ATOM      3  C   UNL     1       5.633   9.387  -1.057  0.00  0.00    +0.006 C 
ATOM      4  C   UNL     1       6.286   8.651   0.114  0.00  0.00    +0.010 C 
ATOM      5  C   UNL     1       6.025   7.149  -0.017  0.00  0.00    +0.006 C 
ATOM      6  C   UNL     1       6.618   6.642  -1.333  0.00  0.00    +0.005 C 
ENDROOT
BRANCH   5   7
ATOM      7  C   UNL     1       4.517   6.891  -0.004  0.00  0.00    +0.109 C 
BRANCH   7   8
ATOM      8  N   UNL     1       4.269   5.447  -0.009  0.00  0.00    -0.299 N 
ATOM      9  C   UNL     1       3.005   4.981   0.000  0.00  0.00    +0.300 C 
ATOM     10  O   UNL     1       2.070   5.758   0.013  0.00  0.00    -0.253 OA
ATOM     11  N   UNL     1       2.776   3.652  -0.005  0.00  0.00    -0.294 N 
ATOM     12  H   UNL     1       5.015   4.827  -0.020  0.00  0.00    +0.150 HD
ATOM     13  H   UNL     1       3.522   3.032  -0.015  0.00  0.00    +0.151 HD
BRANCH  11  14
ATOM     14  C   UNL     1       1.402   3.145   0.006  0.00  0.00    +0.037 C 
ATOM     15  C   UNL     1       1.423   1.615  -0.003  0.00  0.00    +0.029 C 
ATOM     16  C   UNL     1      -0.013   1.086   0.008  0.00  0.00    -0.008 C 
ATOM     17  C   UNL     1      -0.753   1.593  -1.232  0.00  0.00    +0.007 C 
ATOM     18  C   UNL     1      -0.773   3.123  -1.223  0.00  0.00    -0.008 C 
ATOM     19  C   UNL     1       0.662   3.652  -1.234  0.00  0.00    +0.029 C 
ATOM     20  C   UNL     1      -1.490   3.616   0.036  0.00  0.00    +0.007 C 
ATOM     21  C   UNL     1      -0.750   3.109   1.275  0.00  0.00    -0.008 C 
ATOM     22  C   UNL     1      -0.729   1.579   1.267  0.00  0.00    +0.007 C 
ATOM     23  C   UNL     1       0.686   3.639   1.264  0.00  0.00    +0.029 C 
ENDBRANCH  11  14
ENDBRANCH   7   8
ENDBRANCH   5   7
BRANCH   3  24
ATOM     24  C   UNL     1       5.894  10.889  -0.926  0.00  0.00    +0.109 C 
BRANCH  24  25
ATOM     25  N   UNL     1       5.170  11.604  -1.979  0.00  0.00    -0.299 N 
ATOM     26  C   UNL     1       5.252  12.947  -2.061  0.00  0.00    +0.300 C 
ATOM     27  O   UNL     1       5.927  13.564  -1.260  0.00  0.00    -0.253 OA
ATOM     28  N   UNL     1       4.585  13.605  -3.030  0.00  0.00    -0.294 N 
ATOM     29  H   UNL     1       4.631  11.112  -2.618  0.00  0.00    +0.150 HD
ATOM     30  H   UNL     1       4.047  13.113  -3.668  0.00  0.00    +0.151 HD
BRANCH  28  31
ATOM     31  C   UNL     1       4.675  15.065  -3.119  0.00  0.00    +0.037 C 
ATOM     32  C   UNL     1       4.153  15.688  -1.822  0.00  0.00    +0.029 C 
ATOM     33  C   UNL     1       4.246  17.212  -1.915  0.00  0.00    -0.008 C 
ATOM     34  C   UNL     1       3.403  17.704  -3.093  0.00  0.00    +0.007 C 
ATOM     35  C   UNL     1       3.925  17.081  -4.389  0.00  0.00    -0.008 C 
ATOM     36  C   UNL     1       3.832  15.557  -4.296  0.00  0.00    +0.029 C 
ATOM     37  C   UNL     1       5.384  17.491  -4.600  0.00  0.00    +0.007 C 
ATOM     38  C   UNL     1       6.227  16.999  -3.422  0.00  0.00    -0.008 C 
ATOM     39  C   UNL     1       5.705  17.622  -2.126  0.00  0.00    +0.007 C 
ATOM     40  C   UNL     1       6.134  15.475  -3.329  0.00  0.00    +0.029 C 
ENDBRANCH  28  31
ENDBRANCH  24  25
ENDBRANCH   3  24
TORSDOF 6
