REMARK  Name = ZINC15396571
REMARK  5 active torsions:
REMARK  status: ('A' for Active; 'I' for Inactive)
REMARK    1  A    between atoms: C_1  and  C_2
REMARK    2  A    between atoms: C_2  and  C_3
REMARK    3  A    between atoms: C_2  and  C_4
REMARK    4  A    between atoms: N_8  and  C_12
REMARK    5  A    between atoms: C_12  and  C_13
REMARK                            x       y       z     vdW  Elec       q    Type
REMARK                         _______ _______ _______ _____ _____    ______ ____
ROOT
ATOM      1  C   UNL     1      -2.141   1.775  -2.957  0.00  0.00    +0.164 C 
ATOM      2  C   UNL     1      -1.715   0.900  -1.794  0.00  0.00    +0.244 C 
ATOM      3  O   UNL     1      -2.174  -0.177  -1.482  0.00  0.00    -0.273 OA
ATOM      4  N   UNL     1      -0.721   1.571  -1.179  0.00  0.00    -0.220 N 
ATOM      5  C   UNL     1      -0.458   2.732  -1.789  0.00  0.00    +0.309 C 
ATOM      6  O   UNL     1       0.401   3.510  -1.421  0.00  0.00    -0.252 OA
ATOM      7  N   UNL     1      -1.249   2.943  -2.856  0.00  0.00    -0.287 N 
ATOM      8  H   UNL     1      -1.235   3.714  -3.445  0.00  0.00    +0.151 HD
ENDROOT
BRANCH   1  10
ATOM      9  C   UNL     1      -2.259   1.988  -5.444  0.00  0.00    +0.009 C 
ATOM     10  C   UNL     1      -1.926   1.046  -4.285  0.00  0.00    +0.012 C 
ATOM     11  C   UNL     1      -0.465   0.602  -4.392  0.00  0.00    +0.009 C 
ENDBRANCH   1  10
BRANCH   4  12
ATOM     12  C   UNL     1      -0.013   1.086   0.008  0.00  0.00    +0.153 C 
BRANCH  12  13
ATOM     13  C   UNL     1      -0.718   1.572   1.248  0.00  0.00    -0.029 A 
ATOM     14  C   UNL     1      -0.360   2.779   1.819  0.00  0.00    +0.006 A 
ATOM     15  C   UNL     1      -1.010   3.227   2.953  0.00  0.00    +0.015 A 
ATOM     16  C   UNL     1      -2.012   2.463   3.523  0.00  0.00    +0.018 A 
ATOM     17  C   UNL     1      -2.366   1.253   2.955  0.00  0.00    +0.015 A 
ATOM     18  C   UNL     1      -1.719   0.808   1.818  0.00  0.00    +0.006 A 
ATOM     19 BR   UNL     1      -2.897   3.073   5.079  0.00  0.00    -0.050 Br
ENDBRANCH  12  13
ENDBRANCH   4  12
TORSDOF 3
