REMARK  Name = ZINC23062762
REMARK  9 active torsions:
REMARK  status: ('A' for Active; 'I' for Inactive)
REMARK    1  A    between atoms: C_1  and  C_2
REMARK    2  A    between atoms: C_8  and  N_10
REMARK    3  A    between atoms: C_14  and  C_16
REMARK    4  A    between atoms: C_16  and  O_17
REMARK    5  A    between atoms: O_17  and  C_18
REMARK    6  A    between atoms: C_18  and  C_20
REMARK    7  A    between atoms: C_23  and  S_26
REMARK    8  A    between atoms: S_26  and  N_29
REMARK    9  A    between atoms: N_29  and  C_30
REMARK                            x       y       z     vdW  Elec       q    Type
REMARK                         _______ _______ _______ _____ _____    ______ ____
ROOT
ATOM      1  O   UNL     1       0.002  -0.004   0.002  0.00  0.00    -0.452 OA
ENDROOT
BRANCH   1   2
ATOM      2  C   UNL     1      -1.190  -0.632   0.010  0.00  0.00    +0.340 C 
ATOM      3  O   UNL     1      -2.217   0.016   0.023  0.00  0.00    -0.245 OA
BRANCH   2   4
ATOM      4  C   UNL     1      -1.247  -2.108   0.003  0.00  0.00    +0.059 A 
ATOM      5  C   UNL     1      -0.068  -2.856  -0.018  0.00  0.00    +0.017 A 
ATOM      6  C   UNL     1      -0.129  -4.234  -0.020  0.00  0.00    +0.029 A 
ATOM      7  C   UNL     1      -1.355  -4.875  -0.012  0.00  0.00    +0.105 A 
ATOM      8  C   UNL     1      -2.527  -4.141   0.004  0.00  0.00    +0.029 A 
ATOM      9  C   UNL     1      -2.481  -2.762   0.011  0.00  0.00    +0.017 A 
BRANCH   7  10
ATOM     10  S   UNL     1      -1.423  -6.636  -0.021  0.00  0.00    +0.059 S 
ATOM     11  O   UNL     1      -0.189  -7.093   0.516  0.00  0.00    -0.153 OA
ATOM     12  O   UNL     1      -2.678  -6.997   0.539  0.00  0.00    -0.153 OA
BRANCH  10  13
ATOM     13  N   UNL     1      -1.457  -7.116  -1.606  0.00  0.00    -0.187 NA
ATOM     14  H   UNL     1      -2.402  -7.475  -2.038  0.00  0.00    +0.148 HD
BRANCH  13  15
ATOM     15  C   UNL     1      -0.304  -6.860  -2.473  0.00  0.00    +0.077 C 
ATOM     16  C   UNL     1      -0.582  -6.566  -3.949  0.00  0.00    +0.022 C 
ATOM     17  C   UNL     1       0.025  -7.909  -3.538  0.00  0.00    +0.022 C 
ENDBRANCH  13  15
ENDBRANCH  10  13
ENDBRANCH   7  10
ENDBRANCH   2   4
ENDBRANCH   1   2
BRANCH   1  18
ATOM     18  C   UNL     1      -0.018   1.448   0.010  0.00  0.00    +0.328 C 
BRANCH  18  23
ATOM     19  N   UNL     1       3.117   5.093  -0.000  0.00  0.00    -0.296 N 
ATOM     20  C   UNL     1       2.889   3.764  -0.005  0.00  0.00    +0.306 C 
ATOM     21  O   UNL     1       3.823   2.987  -0.018  0.00  0.00    -0.252 OA
ATOM     22  N   UNL     1       1.625   3.298   0.004  0.00  0.00    -0.237 N 
ATOM     23  C   UNL     1       1.396   1.969  -0.001  0.00  0.00    +0.258 C 
ATOM     24  O   UNL     1       2.328   1.194  -0.014  0.00  0.00    -0.272 OA
ATOM     25  H   UNL     1       2.272   5.796   0.011  0.00  0.00    +0.151 HD
ATOM     26  H   UNL     1       0.779   4.001   0.016  0.00  0.00    +0.159 HD
BRANCH  19  33
ATOM     27  C   UNL     1       3.976   6.955  -2.045  0.00  0.00    +0.009 C 
ATOM     28  C   UNL     1       4.512   7.006  -0.613  0.00  0.00    +0.006 C 
ATOM     29  C   UNL     1       3.632   7.934   0.228  0.00  0.00    +0.005 C 
ATOM     30  C   UNL     1       4.168   7.984   1.660  0.00  0.00    +0.000 C 
ATOM     31  C   UNL     1       4.148   6.578   2.262  0.00  0.00    +0.002 C 
ATOM     32  C   UNL     1       5.027   5.650   1.421  0.00  0.00    +0.022 C 
ATOM     33  C   UNL     1       4.492   5.599  -0.011  0.00  0.00    +0.077 C 
ENDBRANCH  19  33
ENDBRANCH  18  23
ENDBRANCH   1  18
TORSDOF 8
