REMARK  Name = ZINC49846703
REMARK  6 active torsions:
REMARK  status: ('A' for Active; 'I' for Inactive)
REMARK    1  A    between atoms: C_1  and  C_2
REMARK    2  A    between atoms: C_3  and  C_10
REMARK    3  A    between atoms: C_13  and  C_16
REMARK    4  A    between atoms: C_16  and  C_17
REMARK    5  A    between atoms: C_16  and  C_18
REMARK    6  A    between atoms: C_16  and  C_19
REMARK                            x       y       z     vdW  Elec       q    Type
REMARK                         _______ _______ _______ _____ _____    ______ ____
ROOT
ATOM      1  C   UNL     1      -0.013   1.086   0.008  0.00  0.00    +0.064 C 
ATOM      2  C   UNL     1      -0.742   1.585  -1.213  0.00  0.00    +0.028 A 
ATOM      3  C   UNL     1      -2.090   1.797  -1.175  0.00  0.00    +0.041 A 
ATOM      4  C   UNL     1      -2.740   2.268  -2.346  0.00  0.00    +0.131 A 
ATOM      5  N   UNL     1      -2.029   2.490  -3.442  0.00  0.00    -0.178 NA
ATOM      6  C   UNL     1      -0.714   2.277  -3.458  0.00  0.00    +0.348 A 
ATOM      7  N   UNL     1      -0.064   1.836  -2.366  0.00  0.00    -0.310 N 
ATOM      8  O   UNL     1      -0.087   2.490  -4.481  0.00  0.00    -0.245 OA
ATOM      9  N   UNL     1      -4.096   2.492  -2.343  0.00  0.00    -0.342 N 
ATOM     10  H   UNL     1      -4.536   2.814  -3.145  0.00  0.00    +0.144 HD
ATOM     11  H   UNL     1      -4.613   2.328  -1.539  0.00  0.00    +0.144 HD
ATOM     12  H   UNL     1       0.895   1.692  -2.402  0.00  0.00    +0.170 HD
ENDROOT
BRANCH   3  13
ATOM     13  C   UNL     1      -2.861   1.540   0.066  0.00  0.00    -0.013 A 
ATOM     14  C   UNL     1      -2.963   0.244   0.570  0.00  0.00    +0.009 A 
ATOM     15  C   UNL     1      -3.682   0.011   1.725  0.00  0.00    +0.005 A 
ATOM     16  C   UNL     1      -4.301   1.059   2.382  0.00  0.00    -0.042 A 
ATOM     17  C   UNL     1      -4.203   2.347   1.886  0.00  0.00    +0.005 A 
ATOM     18  C   UNL     1      -3.482   2.593   0.735  0.00  0.00    +0.009 A 
BRANCH  16  19
ATOM     19  C   UNL     1      -5.084   0.798   3.642  0.00  0.00    -0.013 C 
ATOM     20  C   UNL     1      -4.160   0.190   4.700  0.00  0.00    +0.015 C 
ATOM     21  C   UNL     1      -5.662   2.114   4.166  0.00  0.00    +0.015 C 
ATOM     22  C   UNL     1      -6.225  -0.176   3.341  0.00  0.00    +0.015 C 
ENDBRANCH  16  19
ENDBRANCH   3  13
TORSDOF 2
