REMARK  Name = ZINC01621704
REMARK  5 active torsions:
REMARK  status: ('A' for Active; 'I' for Inactive)
REMARK    1  A    between atoms: C_4  and  N_7
REMARK    2  A    between atoms: C_10  and  C_15
REMARK    3  A    between atoms: C_15  and  C_16
REMARK    4  A    between atoms: C_16  and  C_17
REMARK    5  A    between atoms: C_17  and  N_18
REMARK                            x       y       z     vdW  Elec       q    Type
REMARK                         _______ _______ _______ _____ _____    ______ ____
ROOT
ATOM      1  N   UNL     1      -6.887   0.762  -1.084  0.00  0.00    -0.220 N 
ATOM      2  C   UNL     1      -6.240   1.160   0.029  0.00  0.00    +0.246 C 
ATOM      3  O   UNL     1      -6.638   1.939   0.869  0.00  0.00    -0.273 OA
ATOM      4  C   UNL     1      -4.912   0.430   0.014  0.00  0.00    +0.159 C 
ATOM      5  N   UNL     1      -4.970  -0.369  -1.222  0.00  0.00    -0.315 N 
ATOM      6  C   UNL     1      -6.160  -0.108  -1.793  0.00  0.00    +0.144 C 
ATOM      7  S   UNL     1      -6.685  -0.812  -3.263  0.00  0.00    -0.018 S 
ATOM      8  H   UNL     1      -4.284  -0.967  -1.559  0.00  0.00    +0.149 HD
ENDROOT
BRANCH   1  12
ATOM      9  C   UNL     1     -10.687   2.081  -2.182  0.00  0.00    +0.000 A 
ATOM     10  C   UNL     1      -9.586   2.439  -2.939  0.00  0.00    +0.002 A 
ATOM     11  C   UNL     1      -8.326   2.003  -2.578  0.00  0.00    +0.024 A 
ATOM     12  C   UNL     1      -8.165   1.206  -1.453  0.00  0.00    +0.043 A 
ATOM     13  C   UNL     1      -9.272   0.843  -0.698  0.00  0.00    +0.024 A 
ATOM     14  C   UNL     1     -10.529   1.286  -1.061  0.00  0.00    +0.002 A 
ENDBRANCH   1  12
BRANCH   4  15
ATOM     15  C   UNL     1      -3.751   1.425  -0.043  0.00  0.00    +0.033 C 
BRANCH  15  16
ATOM     16  C   UNL     1      -2.425   0.662  -0.041  0.00  0.00    +0.021 C 
BRANCH  16  17
ATOM     17  C   UNL     1      -1.264   1.658  -0.098  0.00  0.00    +0.106 C 
BRANCH  17  18
ATOM     18  N   UNL     1       0.006   0.927  -0.097  0.00  0.00    -0.300 N 
ATOM     19  C   UNL     1       1.171   1.602  -0.148  0.00  0.00    +0.297 C 
ATOM     20  O   UNL     1       1.169   2.817  -0.190  0.00  0.00    -0.253 OA
ATOM     21  N   UNL     1       2.339   0.930  -0.152  0.00  0.00    -0.313 N 
ATOM     22  H   UNL     1       0.008  -0.042  -0.063  0.00  0.00    +0.150 HD
ATOM     23  H   UNL     1       2.341  -0.039  -0.118  0.00  0.00    +0.146 HD
ATOM     24  H   UNL     1       3.178   1.416  -0.189  0.00  0.00    +0.146 HD
ENDBRANCH  17  18
ENDBRANCH  16  17
ENDBRANCH  15  16
ENDBRANCH   4  15
TORSDOF 5
