REMARK  Name = ZINC59447152
REMARK  11 active torsions:
REMARK  status: ('A' for Active; 'I' for Inactive)
REMARK    1  A    between atoms: C_1  and  C_2
REMARK    2  A    between atoms: C_5  and  N_8
REMARK    3  A    between atoms: C_9  and  C_11
REMARK    4  A    between atoms: C_11  and  N_12
REMARK    5  A    between atoms: N_12  and  C_13
REMARK    6  A    between atoms: C_13  and  C_14
REMARK    7  A    between atoms: C_14  and  C_15
REMARK    8  A    between atoms: C_15  and  N_16
REMARK    9  A    between atoms: N_16  and  C_17
REMARK   10  A    between atoms: C_20  and  C_26
REMARK   11  A    between atoms: C_22  and  N_23
REMARK                            x       y       z     vdW  Elec       q    Type
REMARK                         _______ _______ _______ _____ _____    ______ ____
ROOT
ATOM      1  C   UNL     1       0.451  -8.856   3.915  0.00  0.00    -0.000 C 
ENDROOT
BRANCH   1   2
ATOM      2  C   UNL     1       0.295  -8.348   2.480  0.00  0.00    -0.080 C 
BRANCH   2   3
ATOM      3  N   UNL     1       0.107  -6.891   2.494  0.00  0.00    +0.385 N 
ATOM      4  H   UNL     1       0.909  -6.453   2.921  0.00  0.00    -0.085 HD
ATOM      5  H   UNL     1      -0.722  -6.664   3.024  0.00  0.00    -0.085 HD
BRANCH   3   6
ATOM      6  C   UNL     1      -0.043  -6.404   1.117  0.00  0.00    +0.015 C 
BRANCH   6   8
ATOM      7  N   UNL     1      -0.396  -4.239  -0.027  0.00  0.00    -0.287 N 
ATOM      8  C   UNL     1      -0.236  -4.909   1.132  0.00  0.00    +0.200 C 
ATOM      9  O   UNL     1      -0.247  -4.309   2.186  0.00  0.00    -0.278 OA
ATOM     10  H   UNL     1      -0.463  -4.725  -0.863  0.00  0.00    +0.155 HD
BRANCH   7  15
ATOM     11  C   UNL     1      -0.678   1.427  -0.011  0.00  0.00    +0.044 C 
ATOM     12  C   UNL     1      -0.603  -0.078  -0.015  0.00  0.00    -0.050 A 
ATOM     13  C   UNL     1       0.194  -0.732   0.907  0.00  0.00    +0.005 A 
ATOM     14  C   UNL     1       0.264  -2.111   0.906  0.00  0.00    +0.023 A 
ATOM     15  C   UNL     1      -0.466  -2.841  -0.023  0.00  0.00    +0.033 A 
ATOM     16  C   UNL     1      -1.265  -2.182  -0.947  0.00  0.00    +0.023 A 
ATOM     17  C   UNL     1      -1.336  -0.802  -0.937  0.00  0.00    +0.005 A 
ENDBRANCH   7  15
ENDBRANCH   6   8
ENDBRANCH   3   6
ENDBRANCH   2   3
ENDBRANCH   1   2
BRANCH   1  18
ATOM     18  C   UNL     1       0.647 -10.374   3.900  0.00  0.00    +0.100 C 
BRANCH  18  19
ATOM     19  N   UNL     1       0.797 -10.860   5.274  0.00  0.00    -0.342 N 
ATOM     20  H   UNL     1       0.762 -10.236   6.016  0.00  0.00    +0.146 HD
BRANCH  19  21
ATOM     21  C   UNL     1       0.989 -12.223   5.515  0.00  0.00    +0.058 A 
ATOM     22  C   UNL     1       1.127 -13.105   4.451  0.00  0.00    +0.026 A 
ATOM     23  C   UNL     1       1.317 -14.451   4.693  0.00  0.00    +0.014 A 
ATOM     24  C   UNL     1       1.370 -14.921   5.993  0.00  0.00    +0.057 A 
ATOM     25  C   UNL     1       1.232 -14.045   7.054  0.00  0.00    +0.047 A 
ATOM     26  C   UNL     1       1.047 -12.697   6.819  0.00  0.00    +0.147 A 
BRANCH  24  27
ATOM     27  C   UNL     1       1.577 -16.391   6.254  0.00  0.00    +0.417 C 
ATOM     28  F   UNL     1       1.688 -17.069   5.035  0.00  0.00    -0.166 F 
ATOM     29  F   UNL     1       2.748 -16.572   6.997  0.00  0.00    -0.166 F 
ATOM     30  F   UNL     1       0.487 -16.896   6.971  0.00  0.00    -0.166 F 
ENDBRANCH  24  27
BRANCH  26  31
ATOM     31  N   UNL     1       0.905 -11.759   7.955  0.00  0.00    +0.058 N 
ATOM     32  O   UNL     1       1.400 -10.658   7.896  0.00  0.00    -0.126 OA
ATOM     33  O   UNL     1       0.294 -12.095   8.944  0.00  0.00    -0.126 OA
ENDBRANCH  26  31
ENDBRANCH  19  21
ENDBRANCH  18  19
ENDBRANCH   1  18
TORSDOF 10
