REMARK  Name = ZINC63133427
REMARK  10 active torsions:
REMARK  status: ('A' for Active; 'I' for Inactive)
REMARK    1  A    between atoms: C_1  and  N_2
REMARK    2  A    between atoms: C_4  and  S_26
REMARK    3  A    between atoms: C_7  and  C_8
REMARK    4  A    between atoms: C_8  and  O_10
REMARK    5  A    between atoms: O_10  and  C_11
REMARK    6  A    between atoms: C_11  and  C_12
REMARK    7  A    between atoms: N_14  and  C_15
REMARK    8  A    between atoms: C_15  and  C_16
REMARK    9  A    between atoms: C_16  and  C_17
REMARK   10  A    between atoms: S_26  and  N_29
REMARK                            x       y       z     vdW  Elec       q    Type
REMARK                         _______ _______ _______ _____ _____    ______ ____
ROOT
ATOM      1  O   UNL     1       3.577  -1.068  -0.040  0.00  0.00    -0.451 OA
ENDROOT
BRANCH   1   2
ATOM      2  C   UNL     1       2.514  -0.240  -0.025  0.00  0.00    +0.354 C 
ATOM      3  O   UNL     1       2.682   0.963  -0.020  0.00  0.00    -0.244 OA
BRANCH   2   9
ATOM      4  C   UNL     1      -0.018   1.461   0.010  0.00  0.00    +0.129 C 
ATOM      5  N   UNL     1       0.002  -0.004   0.002  0.00  0.00    -0.325 N 
ATOM      6  C   UNL     1      -1.185  -0.871   0.003  0.00  0.00    +0.137 C 
ATOM      7  C   UNL     1      -0.610  -2.300  -0.008  0.00  0.00    +0.190 C 
ATOM      8  C   UNL     1       0.889  -2.097  -0.014  0.00  0.00    +0.032 C 
ATOM      9  C   UNL     1       1.147  -0.794  -0.014  0.00  0.00    +0.113 C 
BRANCH   7  10
ATOM     10  S   UNL     1      -1.125  -3.203   1.478  0.00  0.00    +0.040 S 
ATOM     11  O   UNL     1      -0.606  -2.571   2.640  0.00  0.00    -0.157 OA
ATOM     12  O   UNL     1      -2.502  -3.542   1.392  0.00  0.00    -0.157 OA
BRANCH  10  13
ATOM     13  N   UNL     1      -0.328  -4.652   1.393  0.00  0.00    -0.181 NA
ATOM     14  C   UNL     1      -0.830  -5.870   0.740  0.00  0.00    +0.109 C 
ATOM     15  C   UNL     1       0.236  -6.968   0.936  0.00  0.00    +0.018 C 
ATOM     16  C   UNL     1       1.026  -6.468   2.175  0.00  0.00    +0.018 C 
ATOM     17  C   UNL     1       1.006  -4.933   1.955  0.00  0.00    +0.109 C 
ENDBRANCH  10  13
ENDBRANCH   7  10
ENDBRANCH   2   9
ENDBRANCH   1   2
BRANCH   1  18
ATOM     18  C   UNL     1       4.871  -0.463  -0.050  0.00  0.00    +0.328 C 
BRANCH  18  19
ATOM     19  C   UNL     1       5.928  -1.536  -0.066  0.00  0.00    +0.251 C 
ATOM     20  O   UNL     1       5.605  -2.705  -0.069  0.00  0.00    -0.272 OA
ATOM     21  N   UNL     1       7.233  -1.198  -0.077  0.00  0.00    -0.312 N 
ATOM     22  H   UNL     1       7.491  -0.263  -0.075  0.00  0.00    +0.149 HD
BRANCH  21  23
ATOM     23  C   UNL     1       8.261  -2.242  -0.093  0.00  0.00    +0.108 C 
BRANCH  23  24
ATOM     24  C   UNL     1       9.646  -1.593  -0.104  0.00  0.00    +0.052 C 
BRANCH  24  25
ATOM     25  C   UNL     1      10.703  -2.667  -0.120  0.00  0.00    -0.040 C 
ATOM     26  C   UNL     1      11.334  -3.171  -1.205  0.00  0.00    -0.001 A 
ATOM     27  C   UNL     1      11.227  -2.883  -2.640  0.00  0.00    +0.010 A 
ATOM     28  C   UNL     1      12.008  -3.568  -3.507  0.00  0.00    +0.001 A 
ATOM     29  C   UNL     1      12.913  -4.544  -3.070  0.00  0.00    +0.002 A 
ATOM     30  C   UNL     1      13.067  -4.865  -1.768  0.00  0.00    +0.026 A 
ATOM     31  C   UNL     1      12.298  -4.207  -0.769  0.00  0.00    +0.043 A 
ATOM     32  N   UNL     1      12.264  -4.338   0.534  0.00  0.00    -0.380 N 
ATOM     33  C   UNL     1      11.279  -3.395   1.074  0.00  0.00    +0.144 C 
ATOM     34  H   UNL     1      12.804  -4.953   1.056  0.00  0.00    +0.160 HD
ENDBRANCH  24  25
ENDBRANCH  23  24
ENDBRANCH  21  23
ENDBRANCH  18  19
ENDBRANCH   1  18
TORSDOF 9
