REMARK  Name = ZINC41672478
REMARK  9 active torsions:
REMARK  status: ('A' for Active; 'I' for Inactive)
REMARK    1  A    between atoms: C_1  and  C_2
REMARK    2  A    between atoms: C_2  and  C_4
REMARK    3  A    between atoms: C_2  and  O_20
REMARK    4  A    between atoms: C_4  and  N_5
REMARK    5  A    between atoms: C_6  and  C_8
REMARK    6  A    between atoms: C_8  and  C_18
REMARK    7  A    between atoms: C_9  and  C_10
REMARK    8  A    between atoms: C_13  and  O_17
REMARK    9  A    between atoms: C_14  and  O_16
REMARK                            x       y       z     vdW  Elec       q    Type
REMARK                         _______ _______ _______ _____ _____    ______ ____
ROOT
ATOM      1  C   UNL     1       1.111  -4.085  -2.427  0.00  0.00    +0.114 C 
ATOM      2  C   UNL     1       1.691  -4.760  -3.479  0.00  0.00    +0.032 C 
ENDROOT
BRANCH   2   3
ATOM      3  C   UNL     1       1.703  -6.224  -3.493  0.00  0.00    -0.020 A 
ATOM      4  C   UNL     1       2.798  -6.914  -4.033  0.00  0.00    +0.012 A 
ATOM      5  C   UNL     1       2.805  -8.290  -4.044  0.00  0.00    +0.050 A 
ATOM      6  C   UNL     1       1.731  -8.999  -3.522  0.00  0.00    +0.158 A 
ATOM      7  C   UNL     1       0.637  -8.321  -2.982  0.00  0.00    +0.159 A 
ATOM      8  C   UNL     1       0.622  -6.941  -2.961  0.00  0.00    +0.057 A 
BRANCH   7   9
ATOM      9  O   UNL     1      -0.412  -9.020  -2.472  0.00  0.00    -0.503 OA
ATOM     10  H   UNL     1      -0.327  -9.227  -1.531  0.00  0.00    +0.292 HD
ENDBRANCH   7   9
BRANCH   6  11
ATOM     11  O   UNL     1       1.745 -10.357  -3.536  0.00  0.00    -0.503 OA
ATOM     12  H   UNL     1       2.138 -10.755  -2.748  0.00  0.00    +0.292 HD
ENDBRANCH   6  11
ENDBRANCH   2   3
BRANCH   1  14
ATOM     13  N   UNL     1       0.381  -1.965  -1.461  0.00  0.00    -0.308 N 
ATOM     14  C   UNL     1       0.949  -2.624  -2.490  0.00  0.00    +0.254 C 
ATOM     15  O   UNL     1       1.327  -2.012  -3.470  0.00  0.00    -0.269 OA
ATOM     16  H   UNL     1       0.079  -2.453  -0.679  0.00  0.00    +0.149 HD
BRANCH  13  17
ATOM     17  C   UNL     1       0.220  -0.510  -1.523  0.00  0.00    +0.135 C 
BRANCH  17  19
ATOM     18  C   UNL     1      -0.728   1.484  -0.353  0.00  0.00    +0.039 C 
ATOM     19  C   UNL     1      -0.446  -0.015  -0.237  0.00  0.00    +0.128 C 
BRANCH  19  20
ATOM     20  O   UNL     1       0.424  -0.252   0.871  0.00  0.00    -0.391 OA
ATOM     21  H   UNL     1       0.065   0.037   1.722  0.00  0.00    +0.210 HD
ENDBRANCH  19  20
ENDBRANCH  17  19
ENDBRANCH  13  17
ENDBRANCH   1  14
BRANCH   1  22
ATOM     22  C   UNL     1       0.665  -4.806  -1.273  0.00  0.00    +0.104 C 
ATOM     23  N   UNL     1       0.312  -5.378  -0.357  0.00  0.00    -0.191 NA
ENDBRANCH   1  22
TORSDOF 8
