REMARK  Name = ZINC37745160
REMARK  6 active torsions:
REMARK  status: ('A' for Active; 'I' for Inactive)
REMARK    1  A    between atoms: C_3  and  C_8
REMARK    2  A    between atoms: C_5  and  C_6
REMARK    3  A    between atoms: C_6  and  N_7
REMARK    4  A    between atoms: C_11  and  N_13
REMARK    5  A    between atoms: N_13  and  S_14
REMARK    6  A    between atoms: S_14  and  C_17
REMARK                            x       y       z     vdW  Elec       q    Type
REMARK                         _______ _______ _______ _____ _____    ______ ____
ROOT
ATOM      1  C   UNL     1       3.575   0.619  -0.029  0.00  0.00    +0.115 A 
ATOM      2  C   UNL     1       4.238  -0.578  -0.047  0.00  0.00    +0.080 A 
ATOM      3  S   UNL     1       5.936  -0.018  -0.058  0.00  0.00    -0.057 S 
ATOM      4  C   UNL     1       5.596   1.736  -0.038  0.00  0.00    +0.202 A 
ATOM      5  N   UNL     1       4.276   1.751  -0.031  0.00  0.00    -0.219 NA
ENDROOT
BRANCH   1   8
ATOM      6  C   UNL     1      -0.016   1.342   0.009  0.00  0.00    +0.043 A 
ATOM      7  C   UNL     1       1.326   1.774  -0.001  0.00  0.00    +0.051 A 
ATOM      8  C   UNL     1       2.098   0.654  -0.015  0.00  0.00    +0.154 A 
ATOM      9  O   UNL     1       1.281  -0.417  -0.012  0.00  0.00    -0.460 OA
ATOM     10  C   UNL     1       0.002  -0.004   0.002  0.00  0.00    +0.089 A 
BRANCH  10  11
ATOM     11  C   UNL     1      -1.210  -0.899   0.009  0.00  0.00    -0.011 C 
BRANCH  11  12
ATOM     12  N   UNL     1      -1.617  -1.183  -1.374  0.00  0.00    +0.383 N 
ATOM     13  H   UNL     1      -2.429  -1.782  -1.369  0.00  0.00    -0.089 HD
ATOM     14  H   UNL     1      -1.841  -0.318  -1.843  0.00  0.00    -0.089 HD
ATOM     15  H   UNL     1      -0.862  -1.643  -1.859  0.00  0.00    -0.089 HD
ENDBRANCH  11  12
ENDBRANCH  10  11
ENDBRANCH   1   8
BRANCH   4  16
ATOM     16  N   UNL     1       6.484   2.800  -0.037  0.00  0.00    -0.070 NA
BRANCH  16  17
ATOM     17  S   UNL     1       8.115   2.517  -0.056  0.00  0.00    +0.096 S 
ATOM     18  O   UNL     1       8.434   1.893   1.180  0.00  0.00    -0.148 OA
ATOM     19  O   UNL     1       8.409   1.917  -1.310  0.00  0.00    -0.148 OA
BRANCH  17  20
ATOM     20  C   UNL     1       8.916   4.087  -0.048  0.00  0.00    +0.147 A 
ATOM     21  C   UNL     1       9.262   4.809  -1.139  0.00  0.00    +0.133 A 
ATOM     22  N   UNL     1       9.851   5.945  -0.710  0.00  0.00    -0.283 N 
ATOM     23  H   UNL     1      10.201   6.654  -1.272  0.00  0.00    +0.188 HD
ATOM     24  N   UNL     1       9.867   5.920   0.691  0.00  0.00    -0.180 NA
ATOM     25  C   UNL     1       9.301   4.809   1.086  0.00  0.00    +0.163 A 
ENDBRANCH  17  20
ENDBRANCH  16  17
ENDBRANCH   4  16
TORSDOF 6
