REMARK  Name = ZINC49861562
REMARK  7 active torsions:
REMARK  status: ('A' for Active; 'I' for Inactive)
REMARK    1  A    between atoms: C_1  and  C_2
REMARK    2  A    between atoms: C_2  and  C_3
REMARK    3  A    between atoms: C_2  and  C_4
REMARK    4  A    between atoms: C_7  and  C_10
REMARK    5  A    between atoms: C_13  and  C_18
REMARK    6  A    between atoms: C_14  and  N_16
REMARK    7  A    between atoms: N_16  and  C_17
REMARK                            x       y       z     vdW  Elec       q    Type
REMARK                         _______ _______ _______ _____ _____    ______ ____
ROOT
ATOM      1  C   UNL     1      -5.393  -2.053  -0.098  0.00  0.00    +0.048 A 
ATOM      2  C   UNL     1      -6.121  -1.636   1.018  0.00  0.00    +0.027 A 
ATOM      3  C   UNL     1      -7.425  -2.058   1.174  0.00  0.00    +0.020 A 
ATOM      4  C   UNL     1      -7.977  -2.898   0.195  0.00  0.00    +0.101 A 
ATOM      5  C   UNL     1      -7.183  -3.278  -0.904  0.00  0.00    +0.111 A 
ATOM      6  N   UNL     1      -5.938  -2.844  -1.013  0.00  0.00    -0.342 N 
ATOM      7  H   UNL     1      -5.409  -3.114  -1.779  0.00  0.00    +0.167 HD
ENDROOT
BRANCH   1  11
ATOM      8  C   UNL     1      -1.374  -0.754  -0.579  0.00  0.00    -0.045 A 
ATOM      9  C   UNL     1      -2.101  -0.349   0.526  0.00  0.00    +0.004 A 
ATOM     10  C   UNL     1      -3.406  -0.768   0.688  0.00  0.00    +0.010 A 
ATOM     11  C   UNL     1      -3.992  -1.600  -0.266  0.00  0.00    -0.002 A 
ATOM     12  C   UNL     1      -3.254  -2.004  -1.378  0.00  0.00    +0.010 A 
ATOM     13  C   UNL     1      -1.952  -1.575  -1.532  0.00  0.00    +0.004 A 
BRANCH   8  15
ATOM     14  C   UNL     1       0.088   1.235  -0.813  0.00  0.00    +0.012 C 
ATOM     15  C   UNL     1       0.050  -0.293  -0.750  0.00  0.00    +0.013 C 
ATOM     16  C   UNL     1       0.888  -0.776   0.436  0.00  0.00    +0.012 C 
ENDBRANCH   8  15
ENDBRANCH   1  11
BRANCH   5  17
ATOM     17  N   UNL     1      -7.708  -4.105  -1.877  0.00  0.00    -0.333 N 
ATOM     18  C   UNL     1      -6.851  -4.604  -2.956  0.00  0.00    +0.127 C 
ATOM     19  H   UNL     1      -8.645  -4.356  -1.846  0.00  0.00    +0.147 HD
ENDBRANCH   5  17
BRANCH   4  20
ATOM     20  C   UNL     1      -9.361  -3.375   0.315  0.00  0.00    +0.390 C 
ATOM     21  O   UNL     1     -10.007  -3.130   1.325  0.00  0.00    -0.240 OA
ATOM     22  O   UNL     1      -9.868  -4.017  -0.595  0.00  0.00    -0.240 OA
ENDBRANCH   4  20
TORSDOF 4
