REMARK  Name = ZINC42026520
REMARK  3 active torsions:
REMARK  status: ('A' for Active; 'I' for Inactive)
REMARK    1  A    between atoms: C_3  and  C_9
REMARK    2  A    between atoms: C_6  and  N_7
REMARK    3  A    between atoms: N_13  and  C_14
REMARK                            x       y       z     vdW  Elec       q    Type
REMARK                         _______ _______ _______ _____ _____    ______ ____
ROOT
ATOM      1  C   UNL     1       3.688   2.159  -0.257  0.00  0.00    +0.188 A 
ATOM      2  N   UNL     1       3.807   3.471  -0.238  0.00  0.00    -0.108 NA
ATOM      3  N   UNL     1       5.009   3.810   0.060  0.00  0.00    -0.022 NA
ATOM      4  N   UNL     1       5.740   2.766   0.251  0.00  0.00    -0.039 NA
ATOM      5  N   UNL     1       4.913   1.646   0.059  0.00  0.00    -0.192 N 
ENDROOT
BRANCH   5   6
ATOM      6  C   UNL     1       5.268   0.294   0.166  0.00  0.00    +0.075 A 
ATOM      7  C   UNL     1       4.415  -0.601   0.797  0.00  0.00    +0.066 A 
ATOM      8  C   UNL     1       4.768  -1.935   0.901  0.00  0.00    +0.128 A 
ATOM      9  C   UNL     1       5.971  -2.377   0.377  0.00  0.00    +0.076 A 
ATOM     10  C   UNL     1       6.824  -1.485  -0.252  0.00  0.00    +0.128 A 
ATOM     11  C   UNL     1       6.472  -0.151  -0.363  0.00  0.00    +0.066 A 
ATOM     12  F   UNL     1       7.997  -1.918  -0.762  0.00  0.00    -0.205 F 
ATOM     13  F   UNL     1       3.938  -2.807   1.515  0.00  0.00    -0.205 F 
ENDBRANCH   5   6
BRANCH   1  16
ATOM     14  C   UNL     1       1.361  -0.386  -1.740  0.00  0.00    +0.023 A 
ATOM     15  C   UNL     1       2.506   0.329  -1.462  0.00  0.00    +0.015 A 
ATOM     16  C   UNL     1       2.462   1.390  -0.557  0.00  0.00    +0.039 A 
ATOM     17  C   UNL     1       1.256   1.724   0.066  0.00  0.00    +0.053 A 
ATOM     18  C   UNL     1       0.114   1.005  -0.216  0.00  0.00    +0.043 A 
ATOM     19  C   UNL     1       0.162  -0.052  -1.119  0.00  0.00    +0.026 A 
ATOM     20 CL   UNL     1       1.196   3.043   1.193  0.00  0.00    -0.083 Cl
BRANCH  19  21
ATOM     21  N   UNL     1      -0.994  -0.777  -1.403  0.00  0.00    -0.358 N 
ATOM     22  H   UNL     1      -0.962  -1.514  -2.033  0.00  0.00    +0.142 HD
ATOM     23  H   UNL     1      -1.831  -0.545  -0.970  0.00  0.00    +0.142 HD
ENDBRANCH  19  21
ENDBRANCH   1  16
TORSDOF 3
