REMARK  Name = ZINC04026792
REMARK  6 active torsions:
REMARK  status: ('A' for Active; 'I' for Inactive)
REMARK    1  A    between atoms: C_1  and  C_2
REMARK    2  A    between atoms: N_4  and  C_5
REMARK    3  A    between atoms: C_7  and  O_31
REMARK    4  A    between atoms: C_12  and  C_30
REMARK    5  A    between atoms: C_22  and  C_29
REMARK    6  A    between atoms: C_25  and  O_28
REMARK                            x       y       z     vdW  Elec       q    Type
REMARK                         _______ _______ _______ _____ _____    ______ ____
ROOT
ATOM      1  C   UNL     1      -1.834   2.088   0.687  0.00  0.00    +0.108 C 
ATOM      2  C   UNL     1      -0.429   1.470   0.909  0.00  0.00    +0.135 C 
ATOM      3  C   UNL     1       0.061   0.978  -0.480  0.00  0.00    +0.037 C 
ATOM      4  C   UNL     1      -0.928   1.633  -1.455  0.00  0.00    +0.003 C 
ATOM      5  C   UNL     1      -2.259   1.525  -0.687  0.00  0.00    -0.008 C 
ATOM      6  C   UNL     1      -3.368   2.276  -1.374  0.00  0.00    +0.009 C 
ATOM      7  C   UNL     1      -3.204   2.230  -2.902  0.00  0.00    +0.005 C 
ATOM      8  C   UNL     1      -2.443   0.982  -3.325  0.00  0.00    +0.003 C 
ATOM      9  C   UNL     1      -0.989   1.080  -2.845  0.00  0.00    +0.000 C 
ATOM     10  C   UNL     1      -0.360  -0.307  -2.987  0.00  0.00    +0.031 C 
ATOM     11  C   UNL     1      -0.509  -0.733  -4.424  0.00  0.00    -0.027 C 
ATOM     12  C   UNL     1      -1.392  -0.237  -5.234  0.00  0.00    -0.065 C 
ATOM     13  C   UNL     1      -2.460   0.749  -4.828  0.00  0.00    -0.008 C 
ATOM     14  C   UNL     1      -2.259   2.042  -5.610  0.00  0.00    +0.014 C 
ATOM     15  C   UNL     1      -1.173   1.857  -6.670  0.00  0.00    +0.032 C 
ATOM     16  C   UNL     1      -1.430   0.632  -7.540  0.00  0.00    +0.119 C 
ATOM     17  C   UNL     1      -1.364  -0.646  -6.697  0.00  0.00    +0.062 C 
ATOM     18  C   UNL     1      -3.827   0.160  -5.197  0.00  0.00    +0.016 C 
ATOM     19  C   UNL     1      -2.668   0.067  -0.439  0.00  0.00    +0.013 C 
ENDROOT
BRANCH   1  23
ATOM     20  C   UNL     1      -1.799   5.761   1.748  0.00  0.00    +0.109 C 
ATOM     21  C   UNL     1      -1.890   4.257   1.785  0.00  0.00    +0.210 C 
ATOM     22  O   UNL     1      -2.095   3.688   2.837  0.00  0.00    -0.276 OA
ATOM     23  N   UNL     1      -1.745   3.544   0.651  0.00  0.00    -0.310 N 
ATOM     24  H   UNL     1      -1.581   3.999  -0.190  0.00  0.00    +0.149 HD
ENDBRANCH   1  23
BRANCH  16  25
ATOM     25  O   UNL     1      -2.713   0.738  -8.161  0.00  0.00    -0.391 OA
ATOM     26  H   UNL     1      -2.927   0.001  -8.749  0.00  0.00    +0.210 HD
ENDBRANCH  16  25
BRANCH   2  27
ATOM     27  O   UNL     1       0.464   2.460   1.421  0.00  0.00    -0.390 OA
ATOM     28  H   UNL     1       1.367   2.142   1.559  0.00  0.00    +0.210 HD
ENDBRANCH   2  27
TORSDOF 3
