REMARK  Name = ZINC44783388
REMARK  4 active torsions:
REMARK  status: ('A' for Active; 'I' for Inactive)
REMARK    1  A    between atoms: C_4  and  C_6
REMARK    2  A    between atoms: C_4  and  C_10
REMARK    3  A    between atoms: N_7  and  O_8
REMARK    4  A    between atoms: N_12  and  C_13
REMARK                            x       y       z     vdW  Elec       q    Type
REMARK                         _______ _______ _______ _____ _____    ______ ____
ROOT
ATOM      1  C   UNL     1      -0.107   1.288  -0.110  0.00  0.00    +0.001 C 
ATOM      2  C   UNL     1       1.377   1.725  -0.033  0.00  0.00    +0.001 C 
ATOM      3  C   UNL     1       2.084   0.701  -0.956  0.00  0.00    +0.024 C 
ATOM      4  C   UNL     1       1.347  -0.626  -0.681  0.00  0.00    +0.105 C 
ATOM      5  C   UNL     1      -0.046  -0.253  -0.144  0.00  0.00    +0.024 C 
ENDROOT
BRANCH   4   6
ATOM      6  C   UNL     1       1.213  -1.416  -1.958  0.00  0.00    +0.147 C 
ATOM      7  N   UNL     1       0.477  -0.968  -2.920  0.00  0.00    -0.076 NA
ATOM      8  N   UNL     1       1.875  -2.615  -2.098  0.00  0.00    -0.343 N 
ATOM      9  H   UNL     1       2.494  -2.911  -1.412  0.00  0.00    +0.144 HD
ATOM     10  H   UNL     1       1.723  -3.164  -2.884  0.00  0.00    +0.144 HD
BRANCH   7  11
ATOM     11  O   UNL     1      -0.102   0.321  -2.828  0.00  0.00    -0.408 OA
ATOM     12  H   UNL     1      -0.635   0.569  -3.595  0.00  0.00    +0.328 HD
ENDBRANCH   7  11
ENDBRANCH   4   6
BRANCH   4  13
ATOM     13  C   UNL     1       2.099  -1.431   0.348  0.00  0.00    +0.227 C 
ATOM     14  O   UNL     1       3.099  -0.976   0.861  0.00  0.00    -0.275 OA
ATOM     15  N   UNL     1       1.660  -2.656   0.697  0.00  0.00    -0.312 N 
ATOM     16  H   UNL     1       0.903  -3.050   0.235  0.00  0.00    +0.149 HD
BRANCH  15  17
ATOM     17  C   UNL     1       2.326  -3.394   1.773  0.00  0.00    +0.073 C 
ATOM     18  C   UNL     1       2.602  -4.881   1.545  0.00  0.00    +0.024 C 
ATOM     19  C   UNL     1       1.506  -4.447   2.521  0.00  0.00    +0.024 C 
ENDBRANCH  15  17
ENDBRANCH   4  13
TORSDOF 4
