REMARK  Name = ZINC07549902
REMARK  13 active torsions:
REMARK  status: ('A' for Active; 'I' for Inactive)
REMARK    1  A    between atoms: C_1  and  C_2
REMARK    2  A    between atoms: C_3  and  C_26
REMARK    3  A    between atoms: C_4  and  C_25
REMARK    4  A    between atoms: C_7  and  C_8
REMARK    5  A    between atoms: C_8  and  C_10
REMARK    6  A    between atoms: C_10  and  C_12
REMARK    7  A    between atoms: C_10  and  O_13
REMARK    8  A    between atoms: O_13  and  C_14
REMARK    9  A    between atoms: C_14  and  C_16
REMARK   10  A    between atoms: C_19  and  C_22
REMARK   11  A    between atoms: C_22  and  C_23
REMARK   12  A    between atoms: C_22  and  C_24
REMARK   13  A    between atoms: C_26  and  C_28
REMARK                            x       y       z     vdW  Elec       q    Type
REMARK                         _______ _______ _______ _____ _____    ______ ____
ROOT
ATOM      1  C   UNL     1      -2.708   4.419   0.575  0.00  0.00    +0.246 C 
ATOM      2  C   UNL     1      -3.328   4.796   1.923  0.00  0.00    +0.061 C 
ENDROOT
BRANCH   1   3
ATOM      3  C   UNL     1      -2.585   5.651  -0.284  0.00  0.00    +0.219 C 
ATOM      4  O   UNL     1      -1.500   6.170  -0.451  0.00  0.00    -0.287 OA
BRANCH   3  11
ATOM      5  C   UNL     1      -2.589   8.178  -2.093  0.00  0.00    +0.047 C 
ATOM      6  C   UNL     1      -3.765   7.321  -1.701  0.00  0.00    -0.012 A 
ATOM      7  C   UNL     1      -5.111   7.510  -2.089  0.00  0.00    +0.041 A 
ATOM      8  C   UNL     1      -5.851   6.495  -1.502  0.00  0.00    +0.024 A 
ATOM      9  N   UNL     1      -5.023   5.715  -0.795  0.00  0.00    -0.355 N 
ATOM     10  H   UNL     1      -5.286   4.930  -0.289  0.00  0.00    +0.166 HD
ATOM     11  C   UNL     1      -3.736   6.204  -0.896  0.00  0.00    +0.090 A 
ATOM     12  C   UNL     1      -7.339   6.298  -1.641  0.00  0.00    +0.064 C 
BRANCH   7  13
ATOM     13  C   UNL     1      -5.628   8.578  -2.951  0.00  0.00    +0.162 C 
ATOM     14  O   UNL     1      -5.965   9.639  -2.468  0.00  0.00    -0.292 OA
ATOM     15  C   UNL     1      -5.740   8.358  -4.438  0.00  0.00    +0.091 C 
ENDBRANCH   7  13
ENDBRANCH   3  11
ENDBRANCH   1   3
BRANCH   1  16
ATOM     16  O   UNL     1      -1.391   3.847   0.791  0.00  0.00    -0.450 OA
BRANCH  16  17
ATOM     17  C   UNL     1      -1.324   2.513   0.964  0.00  0.00    +0.340 C 
ATOM     18  O   UNL     1      -2.339   1.845   0.934  0.00  0.00    -0.245 OA
BRANCH  17  19
ATOM     19  C   UNL     1      -0.018   1.861   1.189  0.00  0.00    +0.059 A 
ATOM     20  C   UNL     1       1.151   2.625   1.218  0.00  0.00    +0.015 A 
ATOM     21  C   UNL     1       2.368   2.009   1.423  0.00  0.00    +0.005 A 
ATOM     22  C   UNL     1       2.433   0.638   1.599  0.00  0.00    -0.045 A 
ATOM     23  C   UNL     1       1.279  -0.124   1.572  0.00  0.00    +0.005 A 
ATOM     24  C   UNL     1       0.055   0.478   1.368  0.00  0.00    +0.015 A 
BRANCH  22  25
ATOM     25  C   UNL     1       3.767  -0.027   1.822  0.00  0.00    +0.013 C 
ATOM     26  C   UNL     1       4.675   0.236   0.620  0.00  0.00    +0.012 C 
ATOM     27  C   UNL     1       4.415   0.542   3.086  0.00  0.00    +0.012 C 
ENDBRANCH  22  25
ENDBRANCH  17  19
ENDBRANCH  16  17
ENDBRANCH   1  16
TORSDOF 7
