REMARK  Name = ZINC60162534
REMARK  10 active torsions:
REMARK  status: ('A' for Active; 'I' for Inactive)
REMARK    1  A    between atoms: C_1  and  C_2
REMARK    2  A    between atoms: C_3  and  C_9
REMARK    3  A    between atoms: C_4  and  C_8
REMARK    4  A    between atoms: N_5  and  C_7
REMARK    5  A    between atoms: C_9  and  C_11
REMARK    6  A    between atoms: C_9  and  N_12
REMARK    7  A    between atoms: N_15  and  C_16
REMARK    8  A    between atoms: C_16  and  C_17
REMARK    9  A    between atoms: C_17  and  C_19
REMARK   10  A    between atoms: C_17  and  N_24
REMARK                            x       y       z     vdW  Elec       q    Type
REMARK                         _______ _______ _______ _____ _____    ______ ____
ROOT
ATOM      1  N   UNL     1       0.160   1.375  -3.172  0.00  0.00    -0.293 N 
ATOM      2  C   UNL     1       0.788   1.647  -4.333  0.00  0.00    +0.300 C 
ATOM      3  O   UNL     1       0.313   1.264  -5.385  0.00  0.00    -0.253 OA
ATOM      4  N   UNL     1       1.942   2.342  -4.328  0.00  0.00    -0.301 N 
ATOM      5  H   UNL     1       0.538   1.680  -2.333  0.00  0.00    +0.151 HD
ATOM      6  H   UNL     1       2.321   2.647  -3.488  0.00  0.00    +0.150 HD
ENDROOT
BRANCH   1   7
ATOM      7  C   UNL     1      -1.095   0.619  -3.177  0.00  0.00    +0.105 C 
ATOM      8  C   UNL     1      -2.266   1.575  -3.417  0.00  0.00    +0.033 C 
BRANCH   7  11
ATOM      9  C   UNL     1      -0.622   1.921  -0.327  0.00  0.00    +0.068 C 
ATOM     10  C   UNL     1      -1.065   0.505  -0.590  0.00  0.00    +0.065 A 
ATOM     11  C   UNL     1      -1.273  -0.069  -1.849  0.00  0.00    +0.016 A 
ATOM     12  C   UNL     1      -1.663  -1.351  -1.662  0.00  0.00    +0.041 A 
ATOM     13  N   UNL     1      -1.700  -1.580  -0.332  0.00  0.00    -0.271 N 
ATOM     14  N   UNL     1      -1.316  -0.402   0.319  0.00  0.00    -0.176 NA
ATOM     15  C   UNL     1      -2.072  -2.841   0.315  0.00  0.00    +0.172 C 
ATOM     16  C   UNL     1      -1.997  -2.345  -2.744  0.00  0.00    +0.065 C 
ENDBRANCH   7  11
ENDBRANCH   1   7
BRANCH   4  17
ATOM     17  C   UNL     1       2.625   2.638  -5.590  0.00  0.00    +0.098 C 
BRANCH  17  18
ATOM     18  C   UNL     1       3.829   3.542  -5.319  0.00  0.00    +0.016 C 
BRANCH  18  19
ATOM     19  N   UNL     1       3.381   4.762  -4.634  0.00  0.00    +0.387 N 
ATOM     20  C   UNL     1       2.334   5.412  -5.432  0.00  0.00    -0.078 C 
ATOM     21  C   UNL     1       1.807   6.639  -4.684  0.00  0.00    -0.019 C 
ATOM     22  C   UNL     1       2.958   7.622  -4.451  0.00  0.00    -0.004 C 
ATOM     23  C   UNL     1       4.075   6.910  -3.683  0.00  0.00    -0.019 C 
ATOM     24  C   UNL     1       4.519   5.674  -4.467  0.00  0.00    -0.078 C 
ATOM     25  H   UNL     1       3.009   4.520  -3.728  0.00  0.00    -0.081 HD
ENDBRANCH  18  19
BRANCH  18  26
ATOM     26  C   UNL     1       4.484   3.911  -6.625  0.00  0.00    +0.093 A 
ATOM     27  C   UNL     1       5.671   3.457  -7.065  0.00  0.00    +0.043 A 
ATOM     28  C   UNL     1       5.897   4.056  -8.325  0.00  0.00    +0.041 A 
ATOM     29  C   UNL     1       4.834   4.841  -8.580  0.00  0.00    +0.195 A 
ATOM     30  O   UNL     1       3.979   4.744  -7.549  0.00  0.00    -0.469 OA
ENDBRANCH  18  26
ENDBRANCH  17  18
ENDBRANCH   4  17
TORSDOF 6
