REMARK  Name = ZINC64220706
REMARK  6 active torsions:
REMARK  status: ('A' for Active; 'I' for Inactive)
REMARK    1  A    between atoms: C_1  and  C_2
REMARK    2  A    between atoms: C_4  and  C_25
REMARK    3  A    between atoms: C_8  and  C_12
REMARK    4  A    between atoms: C_12  and  C_14
REMARK    5  A    between atoms: C_12  and  N_15
REMARK    6  A    between atoms: N_15  and  C_16
REMARK                            x       y       z     vdW  Elec       q    Type
REMARK                         _______ _______ _______ _____ _____    ______ ____
ROOT
ATOM      1  C   UNL     1      -0.019   1.526   0.010  0.00  0.00    +0.024 C 
ATOM      2  C   UNL     1       0.002  -0.004   0.002  0.00  0.00    +0.076 C 
ATOM      3  C   UNL     1      -1.399  -0.565   0.089  0.00  0.00    -0.045 C 
ATOM      4  C   UNL     1      -1.704  -1.321   1.155  0.00  0.00    +0.071 C 
ATOM      5  C   UNL     1      -0.645  -1.546   2.162  0.00  0.00    +0.112 C 
ATOM      6  N   UNL     1      -0.881  -2.276   3.226  0.00  0.00    -0.226 NA
ATOM      7  C   UNL     1      -2.066  -2.829   3.432  0.00  0.00    +0.143 C 
ATOM      8  N   UNL     1      -3.079  -2.698   2.609  0.00  0.00    -0.159 NA
ATOM      9  C   UNL     1      -3.005  -1.988   1.478  0.00  0.00    +0.271 C 
ATOM     10  O   UNL     1      -3.966  -1.886   0.735  0.00  0.00    -0.268 OA
ATOM     11  S   UNL     1       0.764  -0.661   1.541  0.00  0.00    -0.098 S 
ATOM     12  C   UNL     1      -2.419  -0.284  -0.984  0.00  0.00    +0.041 C 
ENDROOT
BRANCH   7  13
ATOM     13  C   UNL     1      -2.262  -3.654   4.678  0.00  0.00    +0.133 C 
ATOM     14  C   UNL     1      -1.196  -4.750   4.737  0.00  0.00    +0.036 C 
BRANCH  13  15
ATOM     15  N   UNL     1      -3.592  -4.268   4.654  0.00  0.00    -0.334 N 
ATOM     16  H   UNL     1      -4.038  -4.425   3.808  0.00  0.00    +0.147 HD
BRANCH  15  17
ATOM     17  C   UNL     1      -4.218  -4.626   5.852  0.00  0.00    +0.029 A 
ATOM     18  C   UNL     1      -3.582  -4.396   7.065  0.00  0.00    +0.026 A 
ATOM     19  C   UNL     1      -4.202  -4.751   8.247  0.00  0.00    +0.041 A 
ATOM     20  C   UNL     1      -5.457  -5.337   8.224  0.00  0.00    +0.142 A 
ATOM     21  C   UNL     1      -6.093  -5.567   7.015  0.00  0.00    +0.078 A 
ATOM     22  C   UNL     1      -5.479  -5.208   5.830  0.00  0.00    +0.045 A 
ATOM     23 CL   UNL     1      -7.666  -6.302   6.989  0.00  0.00    -0.081 Cl
ATOM     24  F   UNL     1      -6.061  -5.684   9.381  0.00  0.00    -0.204 F 
ENDBRANCH  15  17
ENDBRANCH  13  15
ENDBRANCH   7  13
TORSDOF 3
