REMARK  Name = ZINC09158107
REMARK  6 active torsions:
REMARK  status: ('A' for Active; 'I' for Inactive)
REMARK    1  A    between atoms: C_5  and  C_7
REMARK    2  A    between atoms: C_7  and  N_8
REMARK    3  A    between atoms: C_9  and  N_10
REMARK    4  A    between atoms: C_11  and  C_24
REMARK    5  A    between atoms: N_26  and  C_27
REMARK    6  A    between atoms: C_27  and  C_28
REMARK                            x       y       z     vdW  Elec       q    Type
REMARK                         _______ _______ _______ _____ _____    ______ ____
ROOT
ATOM      1  N   UNL     1      10.749  -2.156  -0.634  0.00  0.00    -0.309 N 
ATOM      2  C   UNL     1       9.626  -1.923   0.130  0.00  0.00    +0.110 A 
ATOM      3  C   UNL     1       8.300  -1.912  -0.509  0.00  0.00    +0.075 A 
ATOM      4  C   UNL     1       8.209  -2.125  -1.877  0.00  0.00    +0.033 A 
ATOM      5  C   UNL     1       9.378  -2.352  -2.619  0.00  0.00    +0.083 A 
ATOM      6  C   UNL     1      10.643  -2.365  -1.987  0.00  0.00    +0.150 A 
ATOM      7  N   UNL     1      11.730  -2.583  -2.715  0.00  0.00    -0.211 NA
ATOM      8  C   UNL     1      11.661  -2.790  -4.030  0.00  0.00    +0.143 A 
ATOM      9  C   UNL     1      12.851  -3.014  -4.748  0.00  0.00    +0.047 A 
ATOM     10  C   UNL     1      12.794  -3.227  -6.093  0.00  0.00    +0.005 A 
ATOM     11  C   UNL     1      11.553  -3.219  -6.744  0.00  0.00    +0.018 A 
ATOM     12  C   UNL     1      10.420  -3.001  -6.039  0.00  0.00    +0.096 A 
ATOM     13  N   UNL     1      10.466  -2.787  -4.693  0.00  0.00    -0.268 N 
ATOM     14  C   UNL     1       9.314  -2.572  -4.019  0.00  0.00    +0.268 A 
ATOM     15  O   UNL     1       8.244  -2.568  -4.601  0.00  0.00    -0.267 OA
ENDROOT
BRANCH   3  16
ATOM     16  C   UNL     1       7.092  -1.673   0.289  0.00  0.00    +0.248 C 
ATOM     17  O   UNL     1       7.169  -1.593   1.501  0.00  0.00    -0.270 OA
ATOM     18  N   UNL     1       5.897  -1.542  -0.321  0.00  0.00    -0.307 N 
ATOM     19  H   UNL     1       5.828  -1.614  -1.416  0.00  0.00    +0.149 HD
BRANCH  18  20
ATOM     20  C   UNL     1       4.691  -1.303   0.476  0.00  0.00    +0.140 C 
BRANCH  20  21
ATOM     21  C   UNL     1       3.498  -1.196  -0.439  0.00  0.00    -0.027 A 
ATOM     22  C   UNL     1       2.777  -2.328  -0.768  0.00  0.00    +0.009 A 
ATOM     23  C   UNL     1       1.683  -2.235  -1.607  0.00  0.00    +0.050 A 
ATOM     24  C   UNL     1       1.305  -1.004  -2.120  0.00  0.00    +0.166 A 
ATOM     25  C   UNL     1       2.031   0.137  -1.788  0.00  0.00    +0.167 A 
ATOM     26  C   UNL     1       3.127   0.036  -0.946  0.00  0.00    +0.054 A 
ATOM     27  O   UNL     1       1.466   1.211  -2.413  0.00  0.00    -0.453 OA
ATOM     28  C   UNL     1       0.148   0.780  -2.801  0.00  0.00    +0.466 C 
ATOM     29  O   UNL     1       0.285  -0.645  -2.953  0.00  0.00    -0.453 OA
ENDBRANCH  20  21
ENDBRANCH  18  20
ENDBRANCH   3  16
BRANCH   2  30
ATOM     30  N   UNL     1       9.737  -1.719   1.418  0.00  0.00    -0.344 N 
ATOM     31  H   UNL     1       8.838  -1.533   2.025  0.00  0.00    +0.144 HD
ATOM     32  H   UNL     1      10.728  -1.734   1.894  0.00  0.00    +0.144 HD
ENDBRANCH   2  30
BRANCH   1  33
ATOM     33  C   UNL     1      12.069  -2.174   0.002  0.00  0.00    +0.161 C 
BRANCH  33  38
ATOM     34  C   UNL     1      13.454  -5.673  -0.310  0.00  0.00    +0.000 A 
ATOM     35  C   UNL     1      13.148  -6.203   0.930  0.00  0.00    +0.001 A 
ATOM     36  C   UNL     1      12.493  -5.430   1.870  0.00  0.00    +0.020 A 
ATOM     37  C   UNL     1      12.148  -4.123   1.572  0.00  0.00    +0.046 A 
ATOM     38  C   UNL     1      12.450  -3.595   0.330  0.00  0.00    -0.009 A 
ATOM     39  C   UNL     1      13.105  -4.369  -0.610  0.00  0.00    +0.007 A 
ATOM     40 CL   UNL     1      11.332  -3.149   2.755  0.00  0.00    -0.083 Cl
ENDBRANCH  33  38
ENDBRANCH   1  33
TORSDOF 6
