REMARK  Name = ZINC66233105
REMARK  8 active torsions:
REMARK  status: ('A' for Active; 'I' for Inactive)
REMARK    1  A    between atoms: C_1  and  N_2
REMARK    2  A    between atoms: C_6  and  C_7
REMARK    3  A    between atoms: C_7  and  C_8
REMARK    4  A    between atoms: C_8  and  N_9
REMARK    5  A    between atoms: N_12  and  N_13
REMARK    6  A    between atoms: C_14  and  C_16
REMARK    7  A    between atoms: C_16  and  S_17
REMARK    8  A    between atoms: S_17  and  C_18
REMARK                            x       y       z     vdW  Elec       q    Type
REMARK                         _______ _______ _______ _____ _____    ______ ____
ROOT
ATOM      1  N   UNL     1       1.477   0.145   4.428  0.00  0.00    -0.298 N 
ATOM      2  C   UNL     1       2.645   0.268   5.090  0.00  0.00    +0.316 C 
ATOM      3  O   UNL     1       3.692   0.012   4.529  0.00  0.00    -0.251 OA
ATOM      4  N   UNL     1       2.651   0.677   6.375  0.00  0.00    -0.218 N 
ATOM      5  H   UNL     1       0.642   0.350   4.875  0.00  0.00    +0.150 HD
ATOM      6  H   UNL     1       3.490   0.766   6.851  0.00  0.00    +0.174 HD
ENDROOT
BRANCH   4   7
ATOM      7  N   UNL     1       1.443   0.973   7.021  0.00  0.00    -0.233 N 
ATOM      8  C   UNL     1       1.449   1.381   8.305  0.00  0.00    +0.239 C 
ATOM      9  O   UNL     1       2.500   1.493   8.902  0.00  0.00    -0.273 OA
ATOM     10  H   UNL     1       0.603   0.884   6.544  0.00  0.00    +0.173 HD
BRANCH   8  11
ATOM     11  C   UNL     1       0.151   1.700   9.001  0.00  0.00    +0.171 C 
BRANCH  11  12
ATOM     12  S   UNL     1       0.489   2.217  10.706  0.00  0.00    -0.116 S 
BRANCH  12  13
ATOM     13  C   UNL     1      -1.107   2.550  11.375  0.00  0.00    +0.008 A 
ATOM     14  C   UNL     1      -2.240   2.378  10.590  0.00  0.00    +0.016 A 
ATOM     15  C   UNL     1      -3.489   2.640  11.118  0.00  0.00    +0.021 A 
ATOM     16  C   UNL     1      -3.613   3.072  12.427  0.00  0.00    +0.041 A 
ATOM     17  C   UNL     1      -2.486   3.243  13.211  0.00  0.00    +0.021 A 
ATOM     18  C   UNL     1      -1.234   2.978  12.691  0.00  0.00    +0.016 A 
ATOM     19 CL   UNL     1      -5.185   3.400  13.086  0.00  0.00    -0.084 Cl
ENDBRANCH  12  13
ENDBRANCH  11  12
ENDBRANCH   8  11
ENDBRANCH   4   7
BRANCH   1  20
ATOM     20  C   UNL     1       1.471  -0.299   3.032  0.00  0.00    +0.113 C 
BRANCH  20  21
ATOM     21  C   UNL     1       0.030  -0.354   2.521  0.00  0.00    +0.091 C 
BRANCH  21  27
ATOM     22  C   UNL     1      -0.018   1.461   0.010  0.00  0.00    +0.150 C 
ATOM     23  N   UNL     1       0.002  -0.004   0.002  0.00  0.00    -0.339 N 
ATOM     24  C   UNL     1       0.009  -0.810  -1.104  0.00  0.00    +0.104 A 
ATOM     25  C   UNL     1       0.029  -2.081  -0.660  0.00  0.00    +0.101 A 
ATOM     26  N   UNL     1       0.034  -2.052   0.681  0.00  0.00    -0.350 N 
ATOM     27  C   UNL     1       0.023  -0.811   1.085  0.00  0.00    +0.088 A 
ATOM     28  H   UNL     1       0.048  -2.831   1.260  0.00  0.00    +0.166 HD
ENDBRANCH  21  27
ENDBRANCH  20  21
ENDBRANCH   1  20
TORSDOF 7
