REMARK  Name = ZINC67317349
REMARK  3 active torsions:
REMARK  status: ('A' for Active; 'I' for Inactive)
REMARK    1  A    between atoms: C_11  and  C_13
REMARK    2  A    between atoms: C_13  and  N_14
REMARK    3  A    between atoms: C_21  and  C_24
REMARK                            x       y       z     vdW  Elec       q    Type
REMARK                         _______ _______ _______ _____ _____    ______ ____
ROOT
ATOM      1  N   UNL     1       6.044   1.947  -1.105  0.00  0.00    +0.386 N 
ATOM      2  C   UNL     1       6.916   1.902   0.075  0.00  0.00    -0.073 C 
ATOM      3  C   UNL     1       8.340   2.300  -0.324  0.00  0.00    +0.053 C 
ATOM      4  C   UNL     1       8.323   3.708  -0.913  0.00  0.00    +0.201 C 
ATOM      5  C   UNL     1       7.346   3.778  -2.084  0.00  0.00    +0.053 C 
ATOM      6  C   UNL     1       5.962   3.321  -1.614  0.00  0.00    -0.073 C 
ATOM      7  N   UNL     1       7.958   4.688   0.117  0.00  0.00    -0.286 N 
ATOM      8  C   UNL     1       9.032   5.554   0.237  0.00  0.00    +0.186 C 
ATOM      9  N   UNL     1       9.986   5.230  -0.574  0.00  0.00    -0.065 NA
ATOM     10  O   UNL     1       9.637   4.088  -1.335  0.00  0.00    -0.366 OA
ATOM     11  H   UNL     1       7.127   4.723   0.615  0.00  0.00    +0.151 HD
ATOM     12  H   UNL     1       6.422   1.346  -1.822  0.00  0.00    -0.081 HD
ENDROOT
BRANCH   8  13
ATOM     13  C   UNL     1       9.082   6.702   1.172  0.00  0.00    +0.107 A 
ATOM     14  C   UNL     1      10.213   7.515   1.209  0.00  0.00    +0.031 A 
ATOM     15  C   UNL     1      10.244   8.584   2.088  0.00  0.00    +0.004 A 
ATOM     16  C   UNL     1       9.142   8.805   2.902  0.00  0.00    +0.020 A 
ATOM     17  C   UNL     1       8.053   7.957   2.813  0.00  0.00    +0.111 A 
ATOM     18  N   UNL     1       8.047   6.950   1.965  0.00  0.00    -0.252 NA
ENDBRANCH   8  13
BRANCH   1  19
ATOM     19  C   UNL     1       4.700   1.482  -0.737  0.00  0.00    +0.019 C 
BRANCH  19  30
ATOM     20  C   UNL     1       3.742  -4.673   0.934  0.00  0.00    +0.000 A 
ATOM     21  C   UNL     1       4.738  -4.091   0.171  0.00  0.00    +0.002 A 
ATOM     22  C   UNL     1       4.709  -2.734  -0.081  0.00  0.00    +0.024 A 
ATOM     23  C   UNL     1       3.679  -1.954   0.431  0.00  0.00    +0.039 A 
ATOM     24  C   UNL     1       2.678  -2.537   1.192  0.00  0.00    -0.026 A 
ATOM     25  C   UNL     1       2.716  -3.899   1.442  0.00  0.00    +0.005 A 
ATOM     26  C   UNL     1       1.541  -1.725   1.753  0.00  0.00    +0.038 C 
ATOM     27  C   UNL     1       1.920  -0.245   1.816  0.00  0.00    +0.024 C 
ATOM     28  C   UNL     1       2.448   0.191   0.443  0.00  0.00    +0.114 C 
ATOM     29  N   UNL     1       3.670  -0.577   0.168  0.00  0.00    -0.273 N 
ATOM     30  C   UNL     1       4.764   0.033  -0.330  0.00  0.00    +0.203 C 
ATOM     31  O   UNL     1       5.801  -0.586  -0.450  0.00  0.00    -0.277 OA
ENDBRANCH  19  30
ENDBRANCH   1  19
TORSDOF 3
