REMARK  Name = ZINC04724666
REMARK  7 active torsions:
REMARK  status: ('A' for Active; 'I' for Inactive)
REMARK    1  A    between atoms: C_1  and  C_2
REMARK    2  A    between atoms: C_5  and  O_8
REMARK    3  A    between atoms: O_8  and  C_9
REMARK    4  A    between atoms: C_9  and  C_10
REMARK    5  A    between atoms: N_12  and  N_13
REMARK    6  A    between atoms: C_14  and  C_15
REMARK    7  A    between atoms: C_18  and  C_20
REMARK                            x       y       z     vdW  Elec       q    Type
REMARK                         _______ _______ _______ _____ _____    ______ ____
ROOT
ATOM      1  N   UNL     1      -0.460  -5.269   2.259  0.00  0.00    -0.185 NA
ATOM      2  C   UNL     1       0.144  -5.434   1.117  0.00  0.00    +0.176 C 
ENDROOT
BRANCH   2   3
ATOM      3  C   UNL     1       0.304  -4.301   0.203  0.00  0.00    +0.148 A 
ATOM      4  C   UNL     1       1.021  -4.307  -0.973  0.00  0.00    +0.051 A 
ATOM      5  C   UNL     1       0.903  -3.024  -1.524  0.00  0.00    +0.050 A 
ATOM      6  C   UNL     1       0.134  -2.290  -0.670  0.00  0.00    +0.138 A 
ATOM      7  O   UNL     1      -0.224  -3.071   0.367  0.00  0.00    -0.454 OA
BRANCH   6   8
ATOM      8  C   UNL     1      -0.248  -0.876  -0.854  0.00  0.00    +0.052 A 
ATOM      9  C   UNL     1      -1.584  -0.489  -0.736  0.00  0.00    +0.014 A 
ATOM     10  C   UNL     1      -1.934   0.833  -0.910  0.00  0.00    +0.001 A 
ATOM     11  C   UNL     1      -0.965   1.778  -1.201  0.00  0.00    +0.003 A 
ATOM     12  C   UNL     1       0.361   1.404  -1.320  0.00  0.00    +0.039 A 
ATOM     13  C   UNL     1       0.728   0.082  -1.148  0.00  0.00    +0.134 A 
ATOM     14  F   UNL     1       2.023  -0.282  -1.264  0.00  0.00    -0.205 F 
ENDBRANCH   6   8
ENDBRANCH   2   3
BRANCH   1  17
ATOM     15  C   UNL     1      -1.510  -3.818   3.828  0.00  0.00    +0.270 C 
ATOM     16  O   UNL     1      -1.812  -4.784   4.497  0.00  0.00    -0.270 OA
ATOM     17  N   UNL     1      -0.824  -3.983   2.679  0.00  0.00    -0.204 N 
ATOM     18  H   UNL     1      -0.582  -3.211   2.144  0.00  0.00    +0.177 HD
BRANCH  15  19
ATOM     19  C   UNL     1      -1.901  -2.435   4.280  0.00  0.00    +0.326 C 
BRANCH  19  20
ATOM     20  O   UNL     1      -2.614  -2.522   5.515  0.00  0.00    -0.483 OA
BRANCH  20  25
ATOM     21  C   UNL     1      -4.387   2.317   7.789  0.00  0.00    +0.044 C 
ATOM     22  C   UNL     1      -3.913   1.022   7.180  0.00  0.00    -0.050 A 
ATOM     23  C   UNL     1      -4.175  -0.177   7.817  0.00  0.00    +0.007 A 
ATOM     24  C   UNL     1      -3.741  -1.365   7.262  0.00  0.00    +0.046 A 
ATOM     25  C   UNL     1      -3.042  -1.354   6.064  0.00  0.00    +0.121 A 
ATOM     26  C   UNL     1      -2.776  -0.150   5.429  0.00  0.00    +0.046 A 
ATOM     27  C   UNL     1      -3.217   1.035   5.986  0.00  0.00    +0.007 A 
ENDBRANCH  20  25
ENDBRANCH  19  20
ENDBRANCH  15  19
ENDBRANCH   1  17
TORSDOF 6
