REMARK  Name = ZINC57634479
REMARK  5 active torsions:
REMARK  status: ('A' for Active; 'I' for Inactive)
REMARK    1  A    between atoms: C_1  and  C_2
REMARK    2  A    between atoms: C_2  and  C_3
REMARK    3  A    between atoms: N_11  and  C_15
REMARK    4  A    between atoms: C_15  and  C_16
REMARK    5  A    between atoms: N_18  and  C_19
REMARK                            x       y       z     vdW  Elec       q    Type
REMARK                         _______ _______ _______ _____ _____    ______ ____
ROOT
ATOM      1  C   UNL     1       0.718  -0.497  -1.257  0.00  0.00    -0.011 C 
ATOM      2  C   UNL     1      -0.089  -0.096  -2.493  0.00  0.00    +0.006 C 
ATOM      3  C   UNL     1       0.635  -0.580  -3.752  0.00  0.00    +0.035 C 
ATOM      4  C   UNL     1       0.795  -2.095  -3.700  0.00  0.00    +0.113 C 
ATOM      5  C   UNL     1       1.577  -2.512  -2.459  0.00  0.00    +0.035 C 
ATOM      6  C   UNL     1       0.849  -2.021  -1.205  0.00  0.00    +0.006 C 
ATOM      7  C   UNL     1      -0.556  -2.771  -3.725  0.00  0.00    +0.247 C 
ATOM      8  O   UNL     1      -1.447  -2.660  -2.910  0.00  0.00    -0.273 OA
ATOM      9  N   UNL     1      -0.562  -3.523  -4.845  0.00  0.00    -0.215 N 
ATOM     10  C   UNL     1       0.589  -3.413  -5.519  0.00  0.00    +0.310 C 
ATOM     11  O   UNL     1       0.821  -3.996  -6.559  0.00  0.00    -0.252 OA
ATOM     12  N   UNL     1       1.461  -2.583  -4.914  0.00  0.00    -0.285 N 
ATOM     13  H   UNL     1       2.352  -2.354  -5.221  0.00  0.00    +0.151 HD
ENDROOT
BRANCH   1  15
ATOM     14  C   UNL     1      -0.019   1.526   0.010  0.00  0.00    +0.004 C 
ATOM     15  C   UNL     1       0.002  -0.004   0.002  0.00  0.00    -0.000 C 
ENDBRANCH   1  15
BRANCH   9  16
ATOM     16  C   UNL     1      -1.689  -4.357  -5.270  0.00  0.00    +0.213 C 
BRANCH  16  17
ATOM     17  C   UNL     1      -2.610  -3.550  -6.148  0.00  0.00    +0.231 C 
ATOM     18  O   UNL     1      -2.350  -2.391  -6.394  0.00  0.00    -0.274 OA
ATOM     19  N   UNL     1      -3.721  -4.115  -6.659  0.00  0.00    -0.307 N 
ATOM     20  H   UNL     1      -3.929  -5.042  -6.462  0.00  0.00    +0.149 HD
BRANCH  19  21
ATOM     21  C   UNL     1      -4.616  -3.329  -7.512  0.00  0.00    +0.110 C 
ATOM     22  C   UNL     1      -5.395  -4.270  -8.436  0.00  0.00    +0.068 C 
ATOM     23  C   UNL     1      -6.522  -3.469  -9.099  0.00  0.00    +0.231 C 
ATOM     24  O   UNL     1      -7.434  -3.048  -8.083  0.00  0.00    -0.492 OA
ATOM     25  C   UNL     1      -6.919  -2.451  -6.977  0.00  0.00    +0.125 A 
ATOM     26  C   UNL     1      -5.579  -2.554  -6.650  0.00  0.00    +0.014 A 
ATOM     27  C   UNL     1      -5.100  -1.932  -5.509  0.00  0.00    +0.009 A 
ATOM     28  C   UNL     1      -5.953  -1.210  -4.697  0.00  0.00    +0.001 A 
ATOM     29  C   UNL     1      -7.293  -1.105  -5.024  0.00  0.00    +0.004 A 
ATOM     30  C   UNL     1      -7.775  -1.721  -6.158  0.00  0.00    +0.046 A 
ENDBRANCH  19  21
ENDBRANCH  16  17
ENDBRANCH   9  16
TORSDOF 4
