REMARK  Name = ZINC32072616
REMARK  9 active torsions:
REMARK  status: ('A' for Active; 'I' for Inactive)
REMARK    1  A    between atoms: C_1  and  C_2
REMARK    2  A    between atoms: C_14  and  O_31
REMARK    3  A    between atoms: C_17  and  C_19
REMARK    4  A    between atoms: C_22  and  O_29
REMARK    5  A    between atoms: C_23  and  O_25
REMARK    6  A    between atoms: O_25  and  C_26
REMARK    7  A    between atoms: C_26  and  C_27
REMARK    8  A    between atoms: C_26  and  C_28
REMARK    9  A    between atoms: O_29  and  C_30
REMARK                            x       y       z     vdW  Elec       q    Type
REMARK                         _______ _______ _______ _____ _____    ______ ____
ROOT
ATOM      1  C   UNL     1       0.608   1.678  -0.498  0.00  0.00    +0.068 C 
ATOM      2  C   UNL     1       0.642   0.176  -0.384  0.00  0.00    +0.067 A 
ATOM      3  C   UNL     1       0.217  -0.728  -1.376  0.00  0.00    +0.037 A 
ATOM      4  C   UNL     1       0.404  -1.995  -0.892  0.00  0.00    +0.167 A 
ATOM      5  N   UNL     1       0.943  -1.857   0.375  0.00  0.00    -0.179 N 
ATOM      6  N   UNL     1       1.074  -0.495   0.645  0.00  0.00    -0.167 NA
ATOM      7  C   UNL     1       1.298  -2.899   1.230  0.00  0.00    +0.253 A 
ATOM      8  N   UNL     1       1.125  -4.149   0.831  0.00  0.00    -0.219 NA
ATOM      9  C   UNL     1       1.452  -5.161   1.617  0.00  0.00    +0.116 A 
ATOM     10  C   UNL     1       1.980  -4.899   2.872  0.00  0.00    +0.039 A 
ATOM     11  C   UNL     1       2.148  -3.578   3.257  0.00  0.00    +0.116 A 
ATOM     12  N   UNL     1       1.805  -2.614   2.418  0.00  0.00    -0.219 NA
ATOM     13  N   UNL     1       0.154  -3.203  -1.420  0.00  0.00    -0.197 NA
ATOM     14  C   UNL     1      -0.315  -3.648  -2.494  0.00  0.00    +0.199 C 
ATOM     15  C   UNL     1      -0.754  -2.926  -3.707  0.00  0.00    +0.165 C 
ATOM     16  S   UNL     1      -1.590  -1.377  -3.344  0.00  0.00    -0.138 S 
ATOM     17  C   UNL     1      -0.326  -0.277  -2.698  0.00  0.00    +0.112 C 
ENDROOT
BRANCH  17  18
ATOM     18  C   UNL     1      -0.916   1.101  -2.537  0.00  0.00    -0.026 A 
ATOM     19  C   UNL     1      -2.103   1.266  -1.848  0.00  0.00    +0.009 A 
ATOM     20  C   UNL     1      -2.648   2.527  -1.697  0.00  0.00    +0.050 A 
ATOM     21  C   UNL     1      -2.005   3.630  -2.236  0.00  0.00    +0.162 A 
ATOM     22  C   UNL     1      -0.809   3.463  -2.929  0.00  0.00    +0.163 A 
ATOM     23  C   UNL     1      -0.266   2.197  -3.073  0.00  0.00    +0.054 A 
BRANCH  21  24
ATOM     24  O   UNL     1      -2.540   4.871  -2.089  0.00  0.00    -0.491 OA
ATOM     25  C   UNL     1      -3.769   4.966  -1.366  0.00  0.00    +0.277 C 
ENDBRANCH  21  24
BRANCH  22  26
ATOM     26  O   UNL     1      -0.174   4.542  -3.460  0.00  0.00    -0.486 OA
BRANCH  26  27
ATOM     27  C   UNL     1       1.022   4.290  -4.201  0.00  0.00    +0.167 C 
ATOM     28  C   UNL     1       0.661   3.913  -5.639  0.00  0.00    +0.051 C 
ATOM     29  C   UNL     1       1.893   5.548  -4.207  0.00  0.00    +0.051 C 
ENDBRANCH  26  27
ENDBRANCH  22  26
ENDBRANCH  17  18
BRANCH  14  30
ATOM     30  O   UNL     1      -0.436  -4.990  -2.552  0.00  0.00    -0.495 OA
ATOM     31  H   UNL     1      -0.145  -5.446  -1.751  0.00  0.00    +0.293 HD
ENDBRANCH  14  30
TORSDOF 5
