REMARK  Name = ZINC19685073
REMARK  5 active torsions:
REMARK  status: ('A' for Active; 'I' for Inactive)
REMARK    1  A    between atoms: C_4  and  C_7
REMARK    2  A    between atoms: C_11  and  C_19
REMARK    3  A    between atoms: C_19  and  CA_20
REMARK    4  A    between atoms: CA_20  and  C_22
REMARK    5  A    between atoms: CA_20  and  N_25
REMARK                            x       y       z     vdW  Elec       q    Type
REMARK                         _______ _______ _______ _____ _____    ______ ____
ROOT
ATOM      1  C   UNL     1      -0.018   1.462   0.010  0.00  0.00    +0.047 A 
ATOM      2  C   UNL     1       1.163   2.149   0.003  0.00  0.00    +0.023 A 
ATOM      3  C   UNL     1       2.384   1.429  -0.013  0.00  0.00    -0.001 A 
ATOM      4  C   UNL     1       3.609   2.112  -0.022  0.00  0.00    +0.013 A 
ATOM      5  C   UNL     1       4.779   1.409  -0.037  0.00  0.00    -0.048 A 
ATOM      6  C   UNL     1       4.769   0.020  -0.043  0.00  0.00    +0.005 A 
ATOM      7  C   UNL     1       3.578  -0.672  -0.036  0.00  0.00    +0.026 A 
ATOM      8  C   UNL     1       2.371   0.022  -0.021  0.00  0.00    +0.049 A 
ATOM      9  N   UNL     1       1.175  -0.665  -0.013  0.00  0.00    -0.322 N 
ATOM     10  H   UNL     1       1.173  -1.765  -0.018  0.00  0.00    +0.169 HD
ATOM     11  C   UNL     1       0.002  -0.004   0.002  0.00  0.00    +0.257 A 
ATOM     12  O   UNL     1      -1.046  -0.626   0.008  0.00  0.00    -0.267 OA
ENDROOT
BRANCH   1  16
ATOM     13  C   UNL     1      -3.717   3.554   0.039  0.00  0.00    +0.000 A 
ATOM     14  C   UNL     1      -3.372   2.780  -1.054  0.00  0.00    +0.001 A 
ATOM     15  C   UNL     1      -2.173   2.098  -1.069  0.00  0.00    +0.009 A 
ATOM     16  C   UNL     1      -1.307   2.191   0.020  0.00  0.00    -0.013 A 
ATOM     17  C   UNL     1      -1.663   2.969   1.122  0.00  0.00    +0.009 A 
ATOM     18  C   UNL     1      -2.863   3.651   1.123  0.00  0.00    +0.001 A 
ENDBRANCH   1  16
BRANCH   5  19
ATOM     19  C   UNL     1       6.094   2.146  -0.046  0.00  0.00    +0.030 C 
BRANCH  19  20
ATOM     20  CA  UNL     1       6.553   2.388   1.393  0.00  0.00    +0.045 C 
BRANCH  20  21
ATOM     21  N   UNL     1       6.834   1.100   2.041  0.00  0.00    +0.387 N 
ATOM     22  H1  UNL     1       7.164   1.274   3.076  0.00  0.00    -0.089 HD
ATOM     23  H2  UNL     1       7.627   0.576   1.486  0.00  0.00    -0.089 HD
ATOM     24  H3  UNL     1       5.922   0.485   2.045  0.00  0.00    -0.089 HD
ENDBRANCH  20  21
BRANCH  20  25
ATOM     25  C   UNL     1       7.802   3.231   1.387  0.00  0.00    +0.342 C 
ATOM     26  O   UNL     1       8.883   2.709   1.526  0.00  0.00    -0.248 OA
ATOM     27  OXT UNL     1       7.714   4.561   1.227  0.00  0.00    -0.248 OA
ENDBRANCH  20  25
ENDBRANCH  19  20
ENDBRANCH   5  19
TORSDOF 5
