REMARK  Name = ZINC58948575
REMARK  12 active torsions:
REMARK  status: ('A' for Active; 'I' for Inactive)
REMARK    1  A    between atoms: C_1  and  C_2
REMARK    2  A    between atoms: C_2  and  O_3
REMARK    3  A    between atoms: O_3  and  C_4
REMARK    4  A    between atoms: C_4  and  C_6
REMARK    5  A    between atoms: C_7  and  C_28
REMARK    6  A    between atoms: C_9  and  N_27
REMARK    7  A    between atoms: C_10  and  C_24
REMARK    8  A    between atoms: C_11  and  C_13
REMARK    9  A    between atoms: C_16  and  O_21
REMARK   10  A    between atoms: C_18  and  O_19
REMARK   11  A    between atoms: O_19  and  C_20
REMARK   12  A    between atoms: O_21  and  C_22
REMARK                            x       y       z     vdW  Elec       q    Type
REMARK                         _______ _______ _______ _____ _____    ______ ____
ROOT
ATOM      1  C   UNL     1       1.711  -2.347   2.322  0.00  0.00    +0.086 C 
ATOM      2  C   UNL     1       1.475  -3.638   2.587  0.00  0.00    +0.115 C 
ATOM      3  O   UNL     1       1.858  -4.207   3.741  0.00  0.00    -0.446 OA
ATOM      4  C   UNL     1       2.149  -3.437   4.805  0.00  0.00    +0.193 C 
ATOM      5  C   UNL     1       2.429  -2.116   4.667  0.00  0.00    +0.083 C 
ATOM      6  C   UNL     1       2.428  -1.467   3.308  0.00  0.00    +0.103 C 
ATOM      7  C   UNL     1       0.758  -4.477   1.561  0.00  0.00    +0.087 C 
ENDROOT
BRANCH   6   8
ATOM      8  C   UNL     1       3.848  -1.254   2.850  0.00  0.00    +0.008 A 
ATOM      9  C   UNL     1       4.690  -2.338   2.685  0.00  0.00    +0.027 A 
ATOM     10  C   UNL     1       5.993  -2.146   2.265  0.00  0.00    +0.060 A 
ATOM     11  C   UNL     1       6.458  -0.863   2.006  0.00  0.00    +0.137 A 
ATOM     12  C   UNL     1       5.614   0.225   2.170  0.00  0.00    +0.092 A 
ATOM     13  C   UNL     1       4.306   0.029   2.587  0.00  0.00    +0.128 A 
ATOM     14 BR   UNL     1       7.142  -3.631   2.042  0.00  0.00    -0.047 Br
BRANCH  13  15
ATOM     15  O   UNL     1       3.476   1.093   2.744  0.00  0.00    -0.495 OA
ATOM     16  C   UNL     1       4.015   2.384   2.455  0.00  0.00    +0.277 C 
ENDBRANCH  13  15
BRANCH  11  17
ATOM     17  O   UNL     1       7.739  -0.674   1.594  0.00  0.00    -0.494 OA
ATOM     18  C   UNL     1       8.149   0.672   1.346  0.00  0.00    +0.277 C 
ENDBRANCH  11  17
ENDBRANCH   6   8
BRANCH   5  19
ATOM     19  C   UNL     1       2.726  -1.347   5.806  0.00  0.00    +0.243 C 
ATOM     20  O   UNL     1       1.870  -0.635   6.301  0.00  0.00    -0.271 OA
ATOM     21  N   UNL     1       3.958  -1.397   6.350  0.00  0.00    -0.325 N 
ATOM     22  H   UNL     1       4.640  -1.964   5.956  0.00  0.00    +0.145 HD
ATOM     23  H   UNL     1       4.164  -0.866   7.135  0.00  0.00    +0.145 HD
ENDBRANCH   5  19
BRANCH   4  24
ATOM     24  N   UNL     1       2.163  -3.998   6.055  0.00  0.00    -0.329 N 
ATOM     25  H   UNL     1       2.061  -4.957   6.157  0.00  0.00    +0.145 HD
ATOM     26  H   UNL     1       2.273  -3.436   6.837  0.00  0.00    +0.145 HD
ENDBRANCH   4  24
BRANCH   1  27
ATOM     27  C   UNL     1       1.282  -1.802   1.086  0.00  0.00    +0.339 C 
ATOM     28  O   UNL     1       0.307  -1.076   1.048  0.00  0.00    -0.245 OA
BRANCH  27  29
ATOM     29  O   UNL     1       1.956  -2.087  -0.047  0.00  0.00    -0.462 OA
BRANCH  29  31
ATOM     30  C   UNL     1       2.353  -1.938  -2.426  0.00  0.00    +0.048 C 
ATOM     31  C   UNL     1       1.468  -1.503  -1.256  0.00  0.00    +0.229 C 
ENDBRANCH  29  31
ENDBRANCH  27  29
ENDBRANCH   1  27
TORSDOF 8
