REMARK  Name = ZINC39578409
REMARK  6 active torsions:
REMARK  status: ('A' for Active; 'I' for Inactive)
REMARK    1  A    between atoms: C_5  and  N_9
REMARK    2  A    between atoms: C_10  and  C_12
REMARK    3  A    between atoms: C_12  and  S_13
REMARK    4  A    between atoms: S_13  and  C_14
REMARK    5  A    between atoms: C_17  and  C_20
REMARK    6  A    between atoms: N_18  and  N_19
REMARK                            x       y       z     vdW  Elec       q    Type
REMARK                         _______ _______ _______ _____ _____    ______ ____
ROOT
ATOM      1  S   UNL     1       7.806  -1.451   1.061  0.00  0.00    -0.075 S 
ENDROOT
BRANCH   1   2
ATOM      2  C   UNL     1       9.271  -2.197   0.425  0.00  0.00    +0.209 A 
ATOM      3  N   UNL     1       9.456  -2.634  -0.799  0.00  0.00    -0.121 NA
ATOM      4  N   UNL     1      10.641  -3.118  -0.915  0.00  0.00    -0.132 NA
ATOM      5  C   UNL     1      11.277  -3.020   0.218  0.00  0.00    +0.154 A 
ATOM      6  N   UNL     1      10.429  -2.425   1.111  0.00  0.00    -0.228 N 
BRANCH   5   7
ATOM      7  C   UNL     1      12.688  -3.473   0.492  0.00  0.00    +0.059 C 
ATOM      8  C   UNL     1      13.652  -2.728  -0.434  0.00  0.00    +0.011 C 
ATOM      9  C   UNL     1      15.084  -3.188  -0.155  0.00  0.00    +0.001 C 
ATOM     10  C   UNL     1      15.195  -4.693  -0.409  0.00  0.00    +0.000 C 
ATOM     11  C   UNL     1      14.231  -5.438   0.516  0.00  0.00    +0.001 C 
ATOM     12  C   UNL     1      12.799  -4.978   0.238  0.00  0.00    +0.011 C 
ENDBRANCH   5   7
BRANCH   6  13
ATOM     13  N   UNL     1      10.687  -2.124   2.418  0.00  0.00    -0.295 N 
ATOM     14  H   UNL     1      10.436  -2.892   3.022  0.00  0.00    +0.163 HD
ATOM     15  H   UNL     1      11.654  -1.864   2.546  0.00  0.00    +0.163 HD
ENDBRANCH   6  13
ENDBRANCH   1   2
BRANCH   1  16
ATOM     16  C   UNL     1       6.666  -1.451  -0.349  0.00  0.00    +0.173 C 
BRANCH  16  18
ATOM     17  N   UNL     1       4.350  -0.724  -0.827  0.00  0.00    -0.312 N 
ATOM     18  C   UNL     1       5.356  -0.832   0.064  0.00  0.00    +0.224 C 
ATOM     19  O   UNL     1       5.206  -0.430   1.198  0.00  0.00    -0.275 OA
ATOM     20  H   UNL     1       4.470  -1.046  -1.734  0.00  0.00    +0.149 HD
BRANCH  17  25
ATOM     21  C   UNL     1      -0.019   1.526   0.010  0.00  0.00    +0.000 C 
ATOM     22  C   UNL     1       1.417   2.055  -0.000  0.00  0.00    +0.000 C 
ATOM     23  C   UNL     1       2.003   1.911  -1.406  0.00  0.00    +0.002 C 
ATOM     24  C   UNL     1       2.370   0.447  -1.657  0.00  0.00    +0.022 C 
ATOM     25  C   UNL     1       3.077  -0.122  -0.425  0.00  0.00    +0.073 C 
ATOM     26  C   UNL     1       2.191  -1.187   0.225  0.00  0.00    +0.022 C 
ATOM     27  C   UNL     1       1.056  -0.506   0.991  0.00  0.00    +0.002 C 
ATOM     28  C   UNL     1       0.002  -0.004   0.002  0.00  0.00    +0.000 C 
ENDBRANCH  17  25
ENDBRANCH  16  18
ENDBRANCH   1  16
TORSDOF 6
