REMARK  Name = ZINC16104100
REMARK  4 active torsions:
REMARK  status: ('A' for Active; 'I' for Inactive)
REMARK    1  A    between atoms: C_1  and  C_2
REMARK    2  A    between atoms: C_2  and  C_4
REMARK    3  A    between atoms: C_2  and  N_18
REMARK    4  A    between atoms: N_6  and  C_7
REMARK                            x       y       z     vdW  Elec       q    Type
REMARK                         _______ _______ _______ _____ _____    ______ ____
ROOT
ATOM      1  C   UNL     1       6.244   3.322   1.394  0.00  0.00    +0.038 C 
ATOM      2  C   UNL     1       5.931   2.892  -0.041  0.00  0.00    +0.155 C 
ENDROOT
BRANCH   2   3
ATOM      3  N   UNL     1       4.824   1.933  -0.033  0.00  0.00    -0.316 N 
ATOM      4  C   UNL     1       3.522   2.384  -0.025  0.00  0.00    +0.150 C 
ATOM      5  N   UNL     1       3.269   3.654  -0.025  0.00  0.00    -0.113 NA
ATOM      6  S   UNL     1       1.601   3.788  -0.014  0.00  0.00    +0.101 S 
ATOM      7  O   UNL     1       1.218   4.336   1.240  0.00  0.00    -0.146 OA
ATOM      8  O   UNL     1       1.202   4.335  -1.263  0.00  0.00    -0.146 OA
ATOM      9  C   UNL     1       1.159   2.072  -0.011  0.00  0.00    +0.123 A 
ATOM     10  C   UNL     1       2.404   1.428  -0.018  0.00  0.00    +0.043 A 
ATOM     11  C   UNL     1       2.405   0.025  -0.016  0.00  0.00    +0.013 A 
ATOM     12  C   UNL     1       1.217  -0.671  -0.007  0.00  0.00    +0.001 A 
ATOM     13  C   UNL     1       0.003  -0.008   0.001  0.00  0.00    +0.002 A 
ATOM     14  C   UNL     1      -0.017   1.380  -0.001  0.00  0.00    +0.030 A 
ATOM     15  H   UNL     1       5.008   0.980  -0.033  0.00  0.00    +0.148 HD
ENDBRANCH   2   3
BRANCH   2  16
ATOM     16  C   UNL     1       7.151   2.247  -0.648  0.00  0.00    +0.237 C 
ATOM     17  O   UNL     1       7.099   1.099  -1.036  0.00  0.00    -0.273 OA
ATOM     18  N   UNL     1       8.298   2.946  -0.760  0.00  0.00    -0.284 N 
ATOM     19  H   UNL     1       8.321   3.883  -0.512  0.00  0.00    +0.155 HD
BRANCH  18  20
ATOM     20  C   UNL     1       9.457   2.318  -1.234  0.00  0.00    +0.037 A 
ATOM     21  C   UNL     1       9.365   1.339  -2.214  0.00  0.00    +0.027 A 
ATOM     22  C   UNL     1      10.507   0.719  -2.683  0.00  0.00    +0.051 A 
ATOM     23  C   UNL     1      11.747   1.073  -2.178  0.00  0.00    +0.173 A 
ATOM     24  C   UNL     1      11.843   2.054  -1.194  0.00  0.00    +0.174 A 
ATOM     25  C   UNL     1      10.698   2.679  -0.729  0.00  0.00    +0.073 A 
ATOM     26  O   UNL     1      13.158   2.218  -0.867  0.00  0.00    -0.395 OA
ATOM     27  C   UNL     1      13.900   1.621  -1.948  0.00  0.00    +0.589 C 
ATOM     28  O   UNL     1      13.004   0.621  -2.467  0.00  0.00    -0.395 OA
ATOM     29  F   UNL     1      14.194   2.575  -2.928  0.00  0.00    -0.125 F 
ATOM     30  F   UNL     1      15.076   1.032  -1.470  0.00  0.00    -0.125 F 
ENDBRANCH  18  20
ENDBRANCH   2  16
TORSDOF 3
