REMARK  Name = ZINC65526293
REMARK  4 active torsions:
REMARK  status: ('A' for Active; 'I' for Inactive)
REMARK    1  A    between atoms: C_1  and  C_2
REMARK    2  A    between atoms: C_6  and  C_8
REMARK    3  A    between atoms: C_8  and  N_9
REMARK    4  A    between atoms: C_17  and  C_22
REMARK                            x       y       z     vdW  Elec       q    Type
REMARK                         _______ _______ _______ _____ _____    ______ ____
ROOT
ATOM      1  N   UNL     1      -4.490   3.881  -1.993  0.00  0.00    -0.294 NA
ATOM      2  C   UNL     1      -3.947   4.451  -0.753  0.00  0.00    +0.104 C 
ATOM      3  C   UNL     1      -4.098   5.976  -0.787  0.00  0.00    +0.122 C 
ATOM      4  N   UNL     1      -5.508   6.300  -1.054  0.00  0.00    -0.313 N 
ATOM      5  C   UNL     1      -6.163   5.657  -2.204  0.00  0.00    +0.122 C 
ATOM      6  C   UNL     1      -5.930   4.146  -2.114  0.00  0.00    +0.104 C 
ATOM      7  C   UNL     1      -6.199   7.186  -0.245  0.00  0.00    +0.127 A 
ATOM      8  C   UNL     1      -5.541   7.875   0.776  0.00  0.00    +0.064 A 
ATOM      9  C   UNL     1      -6.270   8.749   1.558  0.00  0.00    +0.019 A 
ATOM     10  N   UNL     1      -7.564   8.909   1.318  0.00  0.00    -0.332 N 
ATOM     11  C   UNL     1      -8.163   8.242   0.342  0.00  0.00    +0.192 A 
ATOM     12  N   UNL     1      -7.498   7.398  -0.433  0.00  0.00    -0.201 NA
ATOM     13  N   UNL     1      -9.515   8.436   0.124  0.00  0.00    -0.329 N 
ATOM     14  C   UNL     1      -5.603   9.514   2.671  0.00  0.00    +0.063 C 
ATOM     15  H   UNL     1     -10.013   9.053   0.682  0.00  0.00    +0.145 HD
ATOM     16  H   UNL     1      -9.966   7.954  -0.587  0.00  0.00    +0.145 HD
ATOM     17  H   UNL     1      -8.079   9.522   1.864  0.00  0.00    +0.168 HD
ENDROOT
BRANCH   1  18
ATOM     18  C   UNL     1      -4.211   2.442  -2.078  0.00  0.00    +0.141 C 
BRANCH  18  24
ATOM     19  C   UNL     1      -0.013   1.086   0.008  0.00  0.00    +0.063 C 
ATOM     20  C   UNL     1      -0.742   1.585  -1.213  0.00  0.00    +0.013 A 
ATOM     21  C   UNL     1      -0.037   1.823  -2.378  0.00  0.00    +0.024 A 
ATOM     22  C   UNL     1      -0.714   2.282  -3.496  0.00  0.00    +0.054 A 
ATOM     23  C   UNL     1      -2.087   2.486  -3.401  0.00  0.00    +0.199 A 
ATOM     24  C   UNL     1      -2.724   2.225  -2.197  0.00  0.00    +0.078 A 
ATOM     25  N   UNL     1      -2.044   1.784  -1.157  0.00  0.00    -0.358 N 
ATOM     26  O   UNL     1      -2.793   2.936  -4.471  0.00  0.00    -0.286 OA
ATOM     27  H   UNL     1      -2.513   1.605  -0.327  0.00  0.00    +0.165 HD
ENDBRANCH  18  24
ENDBRANCH   1  18
TORSDOF 2
