REMARK  Name = ZINC39587027
REMARK  8 active torsions:
REMARK  status: ('A' for Active; 'I' for Inactive)
REMARK    1  A    between atoms: C_1  and  C_2
REMARK    2  A    between atoms: C_7  and  C_8
REMARK    3  A    between atoms: C_11  and  C_14
REMARK    4  A    between atoms: C_17  and  C_20
REMARK    5  A    between atoms: C_23  and  O_28
REMARK    6  A    between atoms: C_25  and  O_26
REMARK    7  A    between atoms: O_26  and  C_27
REMARK    8  A    between atoms: O_28  and  C_29
REMARK                            x       y       z     vdW  Elec       q    Type
REMARK                         _______ _______ _______ _____ _____    ______ ____
ROOT
ATOM      1  C   UNL     1       1.883   0.546   5.391  0.00  0.00    +0.215 C 
ATOM      2  C   UNL     1       1.897   1.592   6.491  0.00  0.00    +0.037 C 
ATOM      3  C   UNL     1       2.140   0.881   7.610  0.00  0.00    +0.095 C 
ATOM      4  N   UNL     1       2.270  -0.439   7.313  0.00  0.00    -0.153 NA
ATOM      5  N   UNL     1       2.145  -0.710   6.113  0.00  0.00    -0.174 NA
ENDROOT
BRANCH   1   9
ATOM      6  C   UNL     1       0.242   0.024   2.481  0.00  0.00    +0.168 C 
ATOM      7  N   UNL     1       0.137   1.307   2.602  0.00  0.00    -0.067 NA
ATOM      8  O   UNL     1       0.292   1.702   3.952  0.00  0.00    -0.367 OA
ATOM      9  C   UNL     1       0.515   0.501   4.707  0.00  0.00    +0.322 C 
ATOM     10  N   UNL     1       0.469  -0.577   3.706  0.00  0.00    -0.287 N 
ATOM     11  H   UNL     1       0.579  -1.526   3.873  0.00  0.00    +0.151 HD
BRANCH   6  18
ATOM     12  C   UNL     1      -0.502   1.454   0.079  0.00  0.00    +0.044 C 
ATOM     13  C   UNL     1      -0.230  -0.027   0.035  0.00  0.00    -0.040 A 
ATOM     14  C   UNL     1      -0.329  -0.714  -1.158  0.00  0.00    +0.004 A 
ATOM     15  C   UNL     1      -0.079  -2.073  -1.200  0.00  0.00    +0.000 A 
ATOM     16  C   UNL     1       0.272  -2.754  -0.048  0.00  0.00    +0.001 A 
ATOM     17  C   UNL     1       0.373  -2.079   1.151  0.00  0.00    +0.012 A 
ATOM     18  C   UNL     1       0.128  -0.707   1.199  0.00  0.00    +0.021 A 
ENDBRANCH   6  18
ENDBRANCH   1   9
BRANCH   3  19
ATOM     19  C   UNL     1       2.251   1.457   8.972  0.00  0.00    +0.044 A 
ATOM     20  C   UNL     1       2.511   0.629  10.062  0.00  0.00    +0.017 A 
ATOM     21  C   UNL     1       2.613   1.167  11.327  0.00  0.00    +0.046 A 
ATOM     22  C   UNL     1       2.457   2.534  11.519  0.00  0.00    +0.124 A 
ATOM     23  C   UNL     1       2.198   3.365  10.440  0.00  0.00    +0.092 A 
ATOM     24  C   UNL     1       2.100   2.834   9.165  0.00  0.00    +0.133 A 
BRANCH  24  25
ATOM     25  O   UNL     1       1.851   3.648   8.106  0.00  0.00    -0.494 OA
ATOM     26  C   UNL     1       1.709   5.043   8.379  0.00  0.00    +0.277 C 
ENDBRANCH  24  25
BRANCH  22  27
ATOM     27  O   UNL     1       2.558   3.058  12.769  0.00  0.00    -0.495 OA
ATOM     28  C   UNL     1       2.825   2.146  13.835  0.00  0.00    +0.277 C 
ENDBRANCH  22  27
ENDBRANCH   3  19
TORSDOF 5
