REMARK  Name = ZINC47730114
REMARK  7 active torsions:
REMARK  status: ('A' for Active; 'I' for Inactive)
REMARK    1  A    between atoms: C_1  and  C_2
REMARK    2  A    between atoms: N_14  and  C_15
REMARK    3  A    between atoms: C_18  and  C_21
REMARK    4  A    between atoms: N_23  and  C_24
REMARK    5  A    between atoms: C_24  and  C_25
REMARK    6  A    between atoms: C_25  and  C_26
REMARK    7  A    between atoms: C_25  and  C_27
REMARK                            x       y       z     vdW  Elec       q    Type
REMARK                         _______ _______ _______ _____ _____    ______ ____
ROOT
ATOM      1  C   UNL     1      -1.250   1.149   1.601  0.00  0.00    +0.033 C 
ATOM      2  C   UNL     1      -0.846  -0.220   1.048  0.00  0.00    +0.105 C 
ATOM      3  C   UNL     1      -1.906  -1.258   1.412  0.00  0.00    -0.017 A 
ATOM      4  C   UNL     1      -3.272  -1.049   1.232  0.00  0.00    +0.013 A 
ATOM      5  C   UNL     1      -4.155  -2.016   1.573  0.00  0.00    +0.046 A 
ATOM      6  S   UNL     1      -3.075  -3.302   2.181  0.00  0.00    -0.101 S 
ATOM      7  C   UNL     1      -1.535  -2.457   1.939  0.00  0.00    -0.004 A 
ATOM      8  C   UNL     1      -0.153  -2.938   2.242  0.00  0.00    +0.062 C 
ATOM      9  C   UNL     1       0.854  -2.043   1.504  0.00  0.00    +0.115 C 
ATOM     10  N   UNL     1       0.425  -0.644   1.651  0.00  0.00    -0.278 N 
ATOM     11  C   UNL     1       1.187   0.236   2.330  0.00  0.00    +0.307 C 
ATOM     12  O   UNL     1       0.786   1.368   2.518  0.00  0.00    -0.252 OA
ATOM     13  N   UNL     1       2.393  -0.139   2.800  0.00  0.00    -0.269 N 
ATOM     14  H   UNL     1       2.743  -1.019   2.591  0.00  0.00    +0.156 HD
ENDROOT
BRANCH  13  15
ATOM     15  C   UNL     1       3.139   0.739   3.586  0.00  0.00    +0.035 A 
ATOM     16  C   UNL     1       3.132   2.101   3.303  0.00  0.00    +0.024 A 
ATOM     17  C   UNL     1       3.867   2.970   4.077  0.00  0.00    +0.015 A 
ATOM     18  C   UNL     1       4.620   2.483   5.148  0.00  0.00    +0.037 A 
ATOM     19  C   UNL     1       4.625   1.115   5.430  0.00  0.00    +0.015 A 
ATOM     20  C   UNL     1       3.884   0.251   4.655  0.00  0.00    +0.024 A 
BRANCH  18  21
ATOM     21  C   UNL     1       5.410   3.412   5.980  0.00  0.00    +0.244 C 
ATOM     22  O   UNL     1       5.405   4.603   5.734  0.00  0.00    -0.270 OA
ATOM     23  N   UNL     1       6.136   2.941   7.013  0.00  0.00    -0.311 N 
ATOM     24  H   UNL     1       6.139   1.991   7.210  0.00  0.00    +0.149 HD
BRANCH  23  25
ATOM     25  C   UNL     1       6.919   3.863   7.839  0.00  0.00    +0.107 C 
BRANCH  25  26
ATOM     26  C   UNL     1       7.644   3.078   8.934  0.00  0.00    -0.000 C 
ATOM     27  C   UNL     1       8.668   2.137   8.294  0.00  0.00    +0.009 C 
ATOM     28  C   UNL     1       8.361   4.051   9.870  0.00  0.00    +0.009 C 
ENDBRANCH  25  26
ENDBRANCH  23  25
ENDBRANCH  18  21
ENDBRANCH  13  15
TORSDOF 4
