REMARK  Name = ZINC12543002
REMARK  11 active torsions:
REMARK  status: ('A' for Active; 'I' for Inactive)
REMARK    1  A    between atoms: C_1  and  C_2
REMARK    2  A    between atoms: C_5  and  N_9
REMARK    3  A    between atoms: C_6  and  C_8
REMARK    4  A    between atoms: C_13  and  S_14
REMARK    5  A    between atoms: S_14  and  C_15
REMARK    6  A    between atoms: C_15  and  C_16
REMARK    7  A    between atoms: N_18  and  N_19
REMARK    8  A    between atoms: C_22  and  C_26
REMARK    9  A    between atoms: C_22  and  C_27
REMARK   10  A    between atoms: C_27  and  C_28
REMARK   11  A    between atoms: C_28  and  C_29
REMARK                            x       y       z     vdW  Elec       q    Type
REMARK                         _______ _______ _______ _____ _____    ______ ____
ROOT
ATOM      1  C   UNL     1       1.554   5.128   2.872  0.00  0.00    +0.240 C 
ATOM      2  O   UNL     1       2.431   4.454   2.373  0.00  0.00    -0.273 OA
ATOM      3  N   UNL     1       0.303   4.637   2.975  0.00  0.00    -0.223 N 
ATOM      4  H   UNL     1      -0.398   5.176   3.373  0.00  0.00    +0.174 HD
ENDROOT
BRANCH   3   5
ATOM      5  N   UNL     1       0.015   3.349   2.506  0.00  0.00    -0.137 N 
ATOM      6  C   UNL     1      -0.654   3.090   1.365  0.00  0.00    +0.263 C 
ATOM      7  O   UNL     1      -1.103   3.898   0.580  0.00  0.00    -0.271 OA
ATOM      8  C   UNL     1      -0.729   1.579   1.267  0.00  0.00    +0.112 C 
ATOM      9  N   UNL     1      -0.026   1.119   2.477  0.00  0.00    -0.284 N 
ATOM     10  C   UNL     1       0.371   2.223   3.135  0.00  0.00    +0.326 C 
ATOM     11  O   UNL     1       0.984   2.200   4.184  0.00  0.00    -0.251 OA
ATOM     12  C   UNL     1      -0.013   1.086   0.008  0.00  0.00    +0.041 C 
ATOM     13  H   UNL     1       0.121   0.199   2.746  0.00  0.00    +0.151 HD
BRANCH   8  14
ATOM     14  C   UNL     1      -2.184   1.107   1.276  0.00  0.00    +0.040 C 
BRANCH  14  15
ATOM     15  C   UNL     1      -2.224  -0.420   1.358  0.00  0.00    +0.038 C 
BRANCH  15  16
ATOM     16  C   UNL     1      -3.657  -0.886   1.367  0.00  0.00    -0.047 A 
ATOM     17  C   UNL     1      -4.326  -1.041   2.567  0.00  0.00    +0.003 A 
ATOM     18  C   UNL     1      -5.642  -1.463   2.576  0.00  0.00    +0.000 A 
ATOM     19  C   UNL     1      -6.287  -1.740   1.385  0.00  0.00    +0.000 A 
ATOM     20  C   UNL     1      -5.617  -1.590   0.185  0.00  0.00    +0.000 A 
ATOM     21  C   UNL     1      -4.302  -1.163   0.176  0.00  0.00    +0.003 A 
ENDBRANCH  15  16
ENDBRANCH  14  15
ENDBRANCH   8  14
ENDBRANCH   3   5
BRANCH   1  22
ATOM     22  C   UNL     1       1.864   6.514   3.376  0.00  0.00    +0.174 C 
BRANCH  22  23
ATOM     23  S   UNL     1       3.614   6.880   3.098  0.00  0.00    -0.076 S 
BRANCH  23  28
ATOM     24  N   UNL     1       4.804   9.308   3.828  0.00  0.00    -0.277 N 
ATOM     25  C   UNL     1       4.386  10.474   4.413  0.00  0.00    +0.230 A 
ATOM     26  N   UNL     1       3.116  10.343   4.673  0.00  0.00    -0.137 NA
ATOM     27  N   UNL     1       2.703   9.188   4.291  0.00  0.00    -0.122 NA
ATOM     28  C   UNL     1       3.695   8.510   3.761  0.00  0.00    +0.196 A 
BRANCH  24  33
ATOM     29  C   UNL     1      10.044   8.053   2.041  0.00  0.00    +0.044 C 
ATOM     30  C   UNL     1       8.652   8.386   2.515  0.00  0.00    -0.050 A 
ATOM     31  C   UNL     1       8.412   8.584   3.863  0.00  0.00    +0.005 A 
ATOM     32  C   UNL     1       7.138   8.890   4.300  0.00  0.00    +0.027 A 
ATOM     33  C   UNL     1       6.099   8.998   3.386  0.00  0.00    +0.053 A 
ATOM     34  C   UNL     1       6.342   8.792   2.035  0.00  0.00    -0.026 A 
ATOM     35  C   UNL     1       7.619   8.492   1.603  0.00  0.00    +0.008 A 
ATOM     36  C   UNL     1       5.215   8.902   1.041  0.00  0.00    +0.046 C 
ENDBRANCH  24  33
ENDBRANCH  23  28
ENDBRANCH  22  23
ENDBRANCH   1  22
TORSDOF 8
