REMARK  Name = ZINC33128798
REMARK  11 active torsions:
REMARK  status: ('A' for Active; 'I' for Inactive)
REMARK    1  A    between atoms: C_1  and  C_2
REMARK    2  A    between atoms: C_5  and  N_8
REMARK    3  A    between atoms: N_11  and  C_12
REMARK    4  A    between atoms: N_11  and  C_13
REMARK    5  A    between atoms: C_13  and  C_14
REMARK    6  A    between atoms: C_14  and  C_15
REMARK    7  A    between atoms: C_17  and  C_20
REMARK    8  A    between atoms: C_23  and  C_26
REMARK    9  A    between atoms: N_28  and  C_29
REMARK   10  A    between atoms: C_29  and  C_30
REMARK   11  A    between atoms: C_33  and  C_35
REMARK                            x       y       z     vdW  Elec       q    Type
REMARK                         _______ _______ _______ _____ _____    ______ ____
ROOT
ATOM      1  C   UNL     1      -0.040   1.117  -2.469  0.00  0.00    +0.174 A 
ATOM      2  N   UNL     1      -0.289  -0.027  -3.125  0.00  0.00    -0.192 NA
ATOM      3  C   UNL     1       0.554  -0.043  -4.141  0.00  0.00    +0.258 A 
ATOM      4  O   UNL     1       1.276   1.085  -4.060  0.00  0.00    -0.333 OA
ATOM      5  N   UNL     1       0.915   1.733  -3.100  0.00  0.00    -0.061 NA
ENDROOT
BRANCH   3   6
ATOM      6  C   UNL     1       0.680  -1.099  -5.168  0.00  0.00    +0.039 A 
ATOM      7  C   UNL     1      -0.144  -2.225  -5.116  0.00  0.00    +0.014 A 
ATOM      8  C   UNL     1      -0.031  -3.207  -6.076  0.00  0.00    +0.014 A 
ATOM      9  C   UNL     1       0.915  -3.080  -7.095  0.00  0.00    +0.037 A 
ATOM     10  C   UNL     1       1.742  -1.956  -7.145  0.00  0.00    +0.014 A 
ATOM     11  C   UNL     1       1.626  -0.973  -6.188  0.00  0.00    +0.014 A 
BRANCH   9  12
ATOM     12  C   UNL     1       1.040  -4.136  -8.122  0.00  0.00    +0.244 C 
ATOM     13  O   UNL     1       1.864  -4.027  -9.010  0.00  0.00    -0.270 OA
ATOM     14  N   UNL     1       0.242  -5.221  -8.075  0.00  0.00    -0.304 N 
ATOM     15  H   UNL     1      -0.503  -5.321  -7.272  0.00  0.00    +0.149 HD
BRANCH  14  16
ATOM     16  C   UNL     1       0.366  -6.268  -9.092  0.00  0.00    +0.179 C 
BRANCH  16  17
ATOM     17  C   UNL     1      -0.633  -7.361  -8.813  0.00  0.00    +0.122 A 
ATOM     18  C   UNL     1      -1.890  -7.417  -9.287  0.00  0.00    +0.046 A 
ATOM     19  C   UNL     1      -2.467  -8.603  -8.779  0.00  0.00    +0.045 A 
ATOM     20  C   UNL     1      -1.528  -9.202  -8.025  0.00  0.00    +0.102 A 
ATOM     21  O   UNL     1      -0.416  -8.447  -8.054  0.00  0.00    -0.463 OA
ATOM     22  C   UNL     1      -1.692 -10.501  -7.279  0.00  0.00    +0.086 C 
ENDBRANCH  16  17
ENDBRANCH  14  16
ENDBRANCH   9  12
ENDBRANCH   3   6
BRANCH   1  23
ATOM     23  C   UNL     1      -0.744   1.601  -1.228  0.00  0.00    +0.099 C 
BRANCH  23  24
ATOM     24  C   UNL     1      -0.009   1.084   0.011  0.00  0.00    +0.117 C 
BRANCH  24  28
ATOM     25  N   UNL     1      -2.305   1.248   2.878  0.00  0.00    -0.269 N 
ATOM     26  C   UNL     1      -1.676   0.815   1.768  0.00  0.00    +0.306 C 
ATOM     27  O   UNL     1      -1.994  -0.245   1.263  0.00  0.00    -0.252 OA
ATOM     28  N   UNL     1      -0.694   1.555   1.217  0.00  0.00    -0.288 N 
ATOM     29  C   UNL     1      -0.311   2.832   1.825  0.00  0.00    +0.133 C 
ATOM     30  H   UNL     1      -1.968   2.168   3.377  0.00  0.00    +0.156 HD
BRANCH  25  35
ATOM     31  C   UNL     1      -6.695  -1.672   4.974  0.00  0.00    +0.044 C 
ATOM     32  C   UNL     1      -5.529  -0.896   4.417  0.00  0.00    -0.050 A 
ATOM     33  C   UNL     1      -4.472  -1.567   3.828  0.00  0.00    +0.005 A 
ATOM     34  C   UNL     1      -3.402  -0.859   3.317  0.00  0.00    +0.023 A 
ATOM     35  C   UNL     1      -3.388   0.528   3.395  0.00  0.00    +0.035 A 
ATOM     36  C   UNL     1      -4.448   1.198   3.992  0.00  0.00    +0.023 A 
ATOM     37  C   UNL     1      -5.518   0.484   4.497  0.00  0.00    +0.005 A 
ENDBRANCH  25  35
ENDBRANCH  24  28
ENDBRANCH  23  24
ENDBRANCH   1  23
TORSDOF 8
