REMARK  Name = ZINC41107331
REMARK  8 active torsions:
REMARK  status: ('A' for Active; 'I' for Inactive)
REMARK    1  A    between atoms: C_1  and  C_2
REMARK    2  A    between atoms: C_6  and  C_8
REMARK    3  A    between atoms: C_10  and  C_17
REMARK    4  A    between atoms: C_11  and  C_16
REMARK    5  A    between atoms: C_17  and  O_19
REMARK    6  A    between atoms: O_19  and  C_20
REMARK    7  A    between atoms: C_20  and  C_21
REMARK    8  A    between atoms: C_20  and  C_22
REMARK                            x       y       z     vdW  Elec       q    Type
REMARK                         _______ _______ _______ _____ _____    ______ ____
ROOT
ATOM      1  C   UNL     1      -0.029  -2.878   2.242  0.00  0.00    +0.141 C 
ATOM      2  C   UNL     1      -1.432  -3.295   2.635  0.00  0.00    +0.078 C 
ATOM      3  C   UNL     1      -1.619  -4.571   3.037  0.00  0.00    +0.019 C 
ATOM      4  N   UNL     1      -0.580  -5.454   3.087  0.00  0.00    -0.300 N 
ATOM      5  C   UNL     1       0.678  -5.140   2.751  0.00  0.00    +0.135 C 
ATOM      6  S   UNL     1       1.889  -6.345   2.859  0.00  0.00    -0.019 S 
ATOM      7  N   UNL     1       1.021  -3.907   2.330  0.00  0.00    -0.315 N 
ATOM      8  C   UNL     1      -2.999  -5.028   3.437  0.00  0.00    +0.061 C 
ATOM      9  H   UNL     1      -0.762  -6.359   3.382  0.00  0.00    +0.154 HD
ATOM     10  H   UNL     1       1.938  -3.701   2.091  0.00  0.00    +0.149 HD
ENDROOT
BRANCH   1  16
ATOM     11  C   UNL     1      -0.342   0.906  -1.019  0.00  0.00    +0.044 C 
ATOM     12  C   UNL     1      -0.224  -0.571  -0.740  0.00  0.00    -0.050 A 
ATOM     13  C   UNL     1      -0.157  -1.469  -1.789  0.00  0.00    +0.003 A 
ATOM     14  C   UNL     1      -0.049  -2.823  -1.533  0.00  0.00    +0.001 A 
ATOM     15  C   UNL     1      -0.008  -3.279  -0.229  0.00  0.00    +0.006 A 
ATOM     16  C   UNL     1      -0.074  -2.381   0.820  0.00  0.00    -0.022 A 
ATOM     17  C   UNL     1      -0.178  -1.026   0.564  0.00  0.00    +0.009 A 
ENDBRANCH   1  16
BRANCH   2  18
ATOM     18  C   UNL     1      -2.509  -2.379   2.584  0.00  0.00    +0.339 C 
ATOM     19  O   UNL     1      -3.646  -2.765   2.782  0.00  0.00    -0.245 OA
BRANCH  18  20
ATOM     20  O   UNL     1      -2.275  -1.078   2.315  0.00  0.00    -0.459 OA
BRANCH  20  21
ATOM     21  C   UNL     1      -3.409  -0.209   2.279  0.00  0.00    +0.171 C 
ATOM     22  C   UNL     1      -3.657   0.364   3.676  0.00  0.00    +0.052 C 
ATOM     23  C   UNL     1      -3.144   0.935   1.299  0.00  0.00    +0.052 C 
ENDBRANCH  20  21
ENDBRANCH  18  20
ENDBRANCH   2  18
TORSDOF 4
