REMARK  Name = ZINC66110934
REMARK  11 active torsions:
REMARK  status: ('A' for Active; 'I' for Inactive)
REMARK    1  A    between atoms: C_1  and  C_2
REMARK    2  A    between atoms: C_2  and  C_3
REMARK    3  A    between atoms: N_5  and  C_6
REMARK    4  A    between atoms: C_8  and  N_13
REMARK    5  A    between atoms: C_11  and  C_12
REMARK    6  A    between atoms: N_13  and  C_14
REMARK    7  A    between atoms: C_14  and  C_15
REMARK    8  A    between atoms: N_17  and  C_18
REMARK    9  A    between atoms: C_21  and  C_24
REMARK   10  A    between atoms: N_26  and  C_27
REMARK   11  A    between atoms: C_27  and  C_28
REMARK                            x       y       z     vdW  Elec       q    Type
REMARK                         _______ _______ _______ _____ _____    ______ ____
ROOT
ATOM      1  C   UNL     1       3.931   0.085  -7.752  0.00  0.00    +0.234 C 
ATOM      2  O   UNL     1       3.638   1.202  -7.382  0.00  0.00    -0.274 OA
ATOM      3  N   UNL     1       4.674  -0.083  -8.864  0.00  0.00    -0.284 N 
ATOM      4  H   UNL     1       4.846  -0.976  -9.203  0.00  0.00    +0.155 HD
ENDROOT
BRANCH   3   5
ATOM      5  C   UNL     1       5.196   1.026  -9.528  0.00  0.00    +0.033 A 
ATOM      6  C   UNL     1       5.590   2.147  -8.803  0.00  0.00    +0.024 A 
ATOM      7  C   UNL     1       6.106   3.244  -9.455  0.00  0.00    +0.015 A 
ATOM      8  C   UNL     1       6.234   3.232 -10.847  0.00  0.00    +0.037 A 
ATOM      9  C   UNL     1       5.837   2.104 -11.572  0.00  0.00    +0.015 A 
ATOM     10  C   UNL     1       5.327   1.009 -10.913  0.00  0.00    +0.024 A 
BRANCH   8  11
ATOM     11  C   UNL     1       6.786   4.406 -11.550  0.00  0.00    +0.244 C 
ATOM     12  O   UNL     1       7.130   5.386 -10.918  0.00  0.00    -0.270 OA
ATOM     13  N   UNL     1       6.908   4.393 -12.892  0.00  0.00    -0.304 N 
ATOM     14  H   UNL     1       6.633   3.611 -13.396  0.00  0.00    +0.149 HD
BRANCH  13  15
ATOM     15  C   UNL     1       7.456   5.559 -13.589  0.00  0.00    +0.179 C 
BRANCH  15  16
ATOM     16  C   UNL     1       7.486   5.289 -15.072  0.00  0.00    +0.122 A 
ATOM     17  C   UNL     1       6.499   5.568 -15.942  0.00  0.00    +0.046 A 
ATOM     18  C   UNL     1       6.948   5.152 -17.217  0.00  0.00    +0.041 A 
ATOM     19  C   UNL     1       8.182   4.644 -17.049  0.00  0.00    +0.195 A 
ATOM     20  O   UNL     1       8.505   4.735 -15.748  0.00  0.00    -0.466 OA
ENDBRANCH  15  16
ENDBRANCH  13  15
ENDBRANCH   8  11
ENDBRANCH   3   5
BRANCH   1  21
ATOM     21  C   UNL     1       3.466  -1.116  -6.969  0.00  0.00    +0.198 C 
BRANCH  21  22
ATOM     22  N   UNL     1       2.682  -0.671  -5.813  0.00  0.00    -0.335 N 
ATOM     23  H   UNL     1       2.539   0.276  -5.660  0.00  0.00    +0.147 HD
BRANCH  22  26
ATOM     24  C   UNL     1       0.863  -2.127  -2.966  0.00  0.00    +0.038 A 
ATOM     25  C   UNL     1       1.399  -1.190  -3.838  0.00  0.00    +0.046 A 
ATOM     26  C   UNL     1       2.141  -1.611  -4.933  0.00  0.00    +0.029 A 
ATOM     27  C   UNL     1       2.345  -2.968  -5.152  0.00  0.00    +0.023 A 
ATOM     28  C   UNL     1       1.810  -3.898  -4.282  0.00  0.00    +0.007 A 
ATOM     29  C   UNL     1       1.075  -3.482  -3.188  0.00  0.00    -0.029 A 
ATOM     30  C   UNL     1       0.498  -4.500  -2.239  0.00  0.00    +0.045 C 
BRANCH  24  33
ATOM     31  C   UNL     1       0.272  -0.460  -1.375  0.00  0.00    +0.217 C 
ATOM     32  O   UNL     1       1.130   0.265  -1.832  0.00  0.00    -0.275 OA
ATOM     33  N   UNL     1       0.114  -1.707  -1.861  0.00  0.00    -0.285 N 
ATOM     34  H   UNL     1      -0.518  -2.314  -1.445  0.00  0.00    +0.155 HD
BRANCH  31  36
ATOM     35  C   UNL     1      -0.233   1.469   0.099  0.00  0.00    +0.013 C 
ATOM     36  C   UNL     1      -0.619   0.033  -0.264  0.00  0.00    +0.093 C 
ENDBRANCH  31  36
ENDBRANCH  24  33
ENDBRANCH  22  26
ENDBRANCH  21  22
ENDBRANCH   1  21
TORSDOF 9
