REMARK  Name = ZINC16034080
REMARK  6 active torsions:
REMARK  status: ('A' for Active; 'I' for Inactive)
REMARK    1  A    between atoms: C_12  and  C_15
REMARK    2  A    between atoms: C_15  and  C_16
REMARK    3  A    between atoms: C_19  and  O_23
REMARK    4  A    between atoms: C_20  and  O_22
REMARK    5  A    between atoms: N_26  and  C_29
REMARK    6  A    between atoms: C_29  and  C_30
REMARK                            x       y       z     vdW  Elec       q    Type
REMARK                         _______ _______ _______ _____ _____    ______ ____
ROOT
ATOM      1  C   UNL     1      -0.017   1.379   0.010  0.00  0.00    +0.000 A 
ATOM      2  C   UNL     1       1.173   2.084   0.002  0.00  0.00    +0.002 A 
ATOM      3  C   UNL     1       2.379   1.414  -0.012  0.00  0.00    +0.023 A 
ATOM      4  C   UNL     1       2.407   0.021  -0.019  0.00  0.00    +0.039 A 
ATOM      5  C   UNL     1       1.203  -0.677  -0.013  0.00  0.00    +0.003 A 
ATOM      6  C   UNL     1       0.002  -0.004   0.002  0.00  0.00    +0.008 A 
ATOM      7  C   UNL     1       1.574  -2.133  -0.030  0.00  0.00    +0.136 C 
ATOM      8  C   UNL     1       1.010  -2.874   1.187  0.00  0.00    +0.122 C 
ATOM      9  C   UNL     1       0.640  -4.285   0.650  0.00  0.00    +0.107 C 
ATOM     10  C   UNL     1       1.022  -4.252  -0.846  0.00  0.00    +0.072 C 
ATOM     11  N   UNL     1       1.020  -2.817  -1.213  0.00  0.00    -0.295 NA
ATOM     12  C   UNL     1       1.583  -5.201   1.397  0.00  0.00    +0.227 C 
ATOM     13  O   UNL     1       1.632  -6.406   1.276  0.00  0.00    -0.275 OA
ATOM     14  N   UNL     1       2.357  -4.474   2.211  0.00  0.00    -0.237 N 
ATOM     15  C   UNL     1       2.117  -3.143   2.181  0.00  0.00    +0.229 C 
ATOM     16  O   UNL     1       2.690  -2.299   2.836  0.00  0.00    -0.275 OA
ATOM     17  C   UNL     1       3.078  -2.154  -0.039  0.00  0.00    +0.243 C 
ATOM     18  O   UNL     1       3.788  -3.137  -0.051  0.00  0.00    -0.273 OA
ATOM     19  N   UNL     1       3.482  -0.869  -0.032  0.00  0.00    -0.283 N 
ATOM     20  H   UNL     1       0.080  -2.505  -1.405  0.00  0.00    +0.124 HD
ATOM     21  H   UNL     1       4.413  -0.595  -0.035  0.00  0.00    +0.155 HD
ENDROOT
BRANCH  10  22
ATOM     22  C   UNL     1       0.001  -5.034  -1.674  0.00  0.00    +0.054 C 
BRANCH  22  23
ATOM     23  C   UNL     1       0.458  -5.092  -3.109  0.00  0.00    -0.042 A 
ATOM     24  C   UNL     1       0.079  -4.100  -3.994  0.00  0.00    +0.007 A 
ATOM     25  C   UNL     1       0.495  -4.149  -5.311  0.00  0.00    +0.049 A 
ATOM     26  C   UNL     1       1.294  -5.194  -5.747  0.00  0.00    +0.158 A 
ATOM     27  C   UNL     1       1.675  -6.193  -4.856  0.00  0.00    +0.158 A 
ATOM     28  C   UNL     1       1.258  -6.135  -3.536  0.00  0.00    +0.052 A 
BRANCH  27  29
ATOM     29  O   UNL     1       2.459  -7.220  -5.279  0.00  0.00    -0.503 OA
ATOM     30  H   UNL     1       3.407  -7.054  -5.191  0.00  0.00    +0.292 HD
ENDBRANCH  27  29
BRANCH  26  31
ATOM     31  O   UNL     1       1.703  -5.244  -7.043  0.00  0.00    -0.503 OA
ATOM     32  H   UNL     1       2.544  -4.795  -7.207  0.00  0.00    +0.292 HD
ENDBRANCH  26  31
ENDBRANCH  22  23
ENDBRANCH  10  22
BRANCH  14  33
ATOM     33  C   UNL     1       3.379  -5.070   3.074  0.00  0.00    +0.151 C 
BRANCH  33  34
ATOM     34  C   UNL     1       4.689  -5.132   2.332  0.00  0.00    -0.029 A 
ATOM     35  C   UNL     1       5.002  -6.245   1.574  0.00  0.00    +0.008 A 
ATOM     36  C   UNL     1       6.203  -6.302   0.892  0.00  0.00    +0.038 A 
ATOM     37  C   UNL     1       7.093  -5.244   0.969  0.00  0.00    +0.123 A 
ATOM     38  C   UNL     1       6.779  -4.130   1.729  0.00  0.00    +0.038 A 
ATOM     39  C   UNL     1       5.575  -4.073   2.405  0.00  0.00    +0.008 A 
ATOM     40  F   UNL     1       8.268  -5.300   0.304  0.00  0.00    -0.205 F 
ENDBRANCH  33  34
ENDBRANCH  14  33
TORSDOF 6
