REMARK  Name = ZINC39543905
REMARK  12 active torsions:
REMARK  status: ('A' for Active; 'I' for Inactive)
REMARK    1  A    between atoms: C_1  and  C_2
REMARK    2  A    between atoms: C_7  and  C_9
REMARK    3  A    between atoms: C_7  and  C_10
REMARK    4  A    between atoms: N_13  and  C_17
REMARK    5  A    between atoms: C_17  and  C_18
REMARK    6  A    between atoms: N_20  and  C_21
REMARK    7  A    between atoms: N_20  and  C_22
REMARK    8  A    between atoms: C_22  and  C_23
REMARK    9  A    between atoms: C_26  and  O_31
REMARK   10  A    between atoms: C_27  and  O_29
REMARK   11  A    between atoms: O_29  and  C_30
REMARK   12  A    between atoms: O_31  and  C_32
REMARK                            x       y       z     vdW  Elec       q    Type
REMARK                         _______ _______ _______ _____ _____    ______ ____
ROOT
ATOM      1  C   UNL     1      -0.019   1.528   0.010  0.00  0.00    +0.007 C 
ATOM      2  C   UNL     1       0.002  -0.004   0.002  0.00  0.00    -0.011 C 
ATOM      3  C   UNL     1       0.727  -0.492  -1.254  0.00  0.00    +0.038 C 
ATOM      4  C   UNL     1       0.711  -2.014  -1.298  0.00  0.00    +0.113 C 
ATOM      5  C   UNL     1       1.263  -2.646  -0.036  0.00  0.00    +0.041 C 
ATOM      6  C   UNL     1       0.787  -2.030   1.268  0.00  0.00    -0.032 C 
ATOM      7  C   UNL     1       0.763  -0.507   1.227  0.00  0.00    +0.009 C 
ATOM      8  C   UNL     1       1.769  -2.455   2.382  0.00  0.00    +0.011 C 
ATOM      9  C   UNL     1      -0.596  -2.567   1.648  0.00  0.00    +0.011 C 
ATOM     10  C   UNL     1      -0.666  -2.529  -1.638  0.00  0.00    +0.247 C 
ATOM     11  O   UNL     1      -1.717  -2.280  -1.086  0.00  0.00    -0.273 OA
ATOM     12  N   UNL     1      -0.505  -3.321  -2.720  0.00  0.00    -0.215 N 
ATOM     13  C   UNL     1       0.748  -3.270  -3.183  0.00  0.00    +0.310 C 
ATOM     14  O   UNL     1       1.136  -3.886  -4.157  0.00  0.00    -0.252 OA
ATOM     15  N   UNL     1       1.531  -2.463  -2.446  0.00  0.00    -0.285 N 
ATOM     16  H   UNL     1       2.451  -2.215  -2.619  0.00  0.00    +0.151 HD
ENDROOT
BRANCH  12  17
ATOM     17  C   UNL     1      -1.572  -4.133  -3.310  0.00  0.00    +0.213 C 
BRANCH  17  18
ATOM     18  C   UNL     1      -2.295  -3.328  -4.359  0.00  0.00    +0.234 C 
ATOM     19  O   UNL     1      -1.953  -2.188  -4.591  0.00  0.00    -0.274 OA
ATOM     20  N   UNL     1      -3.321  -3.876  -5.040  0.00  0.00    -0.299 N 
ATOM     21  C   UNL     1      -3.734  -5.253  -4.760  0.00  0.00    +0.132 C 
BRANCH  20  22
ATOM     22  C   UNL     1      -4.024  -3.093  -6.060  0.00  0.00    +0.142 C 
BRANCH  22  23
ATOM     23  C   UNL     1      -3.358  -3.297  -7.396  0.00  0.00    -0.026 A 
ATOM     24  C   UNL     1      -2.328  -2.463  -7.789  0.00  0.00    +0.009 A 
ATOM     25  C   UNL     1      -1.714  -2.646  -9.014  0.00  0.00    +0.050 A 
ATOM     26  C   UNL     1      -2.131  -3.667  -9.852  0.00  0.00    +0.162 A 
ATOM     27  C   UNL     1      -3.168  -4.508  -9.457  0.00  0.00    +0.162 A 
ATOM     28  C   UNL     1      -3.776  -4.322  -8.226  0.00  0.00    +0.054 A 
BRANCH  27  29
ATOM     29  O   UNL     1      -3.581  -5.512 -10.276  0.00  0.00    -0.491 OA
ATOM     30  C   UNL     1      -4.650  -6.335  -9.805  0.00  0.00    +0.277 C 
ENDBRANCH  27  29
BRANCH  26  31
ATOM     31  O   UNL     1      -1.529  -3.849 -11.057  0.00  0.00    -0.491 OA
ATOM     32  C   UNL     1      -0.473  -2.948 -11.397  0.00  0.00    +0.277 C 
ENDBRANCH  26  31
ENDBRANCH  22  23
ENDBRANCH  20  22
ENDBRANCH  17  18
ENDBRANCH  12  17
TORSDOF 6
