REMARK  Name = ZINC28923029
REMARK  3 active torsions:
REMARK  status: ('A' for Active; 'I' for Inactive)
REMARK    1  A    between atoms: C_1  and  C_2
REMARK    2  A    between atoms: C_3  and  C_9
REMARK    3  A    between atoms: N_5  and  C_7
REMARK                            x       y       z     vdW  Elec       q    Type
REMARK                         _______ _______ _______ _____ _____    ______ ____
ROOT
ATOM      1  C   UNL     1      -0.006  -0.343  -2.566  0.00  0.00    +0.213 C 
ATOM      2  N   UNL     1      -0.955  -1.148  -3.355  0.00  0.00    -0.294 N 
ATOM      3  C   UNL     1      -0.572  -2.368  -3.845  0.00  0.00    +0.160 C 
ATOM      4  N   UNL     1      -1.511  -3.349  -4.012  0.00  0.00    -0.332 N 
ATOM      5  N   UNL     1       0.688  -2.617  -4.160  0.00  0.00    -0.302 N 
ATOM      6  C   UNL     1       1.612  -1.656  -3.931  0.00  0.00    +0.213 A 
ATOM      7  N   UNL     1       1.317  -0.533  -3.171  0.00  0.00    -0.286 N 
ATOM      8  C   UNL     1       2.434   0.245  -3.136  0.00  0.00    +0.072 A 
ATOM      9  C   UNL     1       2.715   1.474  -2.550  0.00  0.00    +0.028 A 
ATOM     10  C   UNL     1       3.993   1.981  -2.723  0.00  0.00    +0.002 A 
ATOM     11  C   UNL     1       4.960   1.303  -3.444  0.00  0.00    +0.002 A 
ATOM     12  C   UNL     1       4.708   0.080  -4.038  0.00  0.00    +0.030 A 
ATOM     13  C   UNL     1       3.423  -0.452  -3.878  0.00  0.00    +0.091 A 
ATOM     14  N   UNL     1       2.863  -1.601  -4.323  0.00  0.00    -0.212 NA
ATOM     15  H   UNL     1      -1.850  -0.815  -3.526  0.00  0.00    +0.151 HD
ATOM     16  H   UNL     1      -2.438  -3.177  -3.784  0.00  0.00    +0.145 HD
ATOM     17  H   UNL     1      -1.250  -4.217  -4.358  0.00  0.00    +0.145 HD
ATOM     18  H   UNL     1       0.943  -3.469  -4.547  0.00  0.00    +0.171 HD
ENDROOT
BRANCH   1  21
ATOM     19  C   UNL     1      -0.018   1.503   0.010  0.00  0.00    +0.068 C 
ATOM     20  C   UNL     1       0.002  -0.004   0.002  0.00  0.00    +0.068 A 
ATOM     21  C   UNL     1       0.008  -0.818  -1.135  0.00  0.00    +0.052 A 
ATOM     22  C   UNL     1       0.028  -2.108  -0.724  0.00  0.00    +0.134 A 
ATOM     23  N   UNL     1       0.035  -2.109   0.626  0.00  0.00    -0.255 N 
ATOM     24  N   UNL     1       0.023  -0.777   1.058  0.00  0.00    -0.175 NA
ATOM     25  C   UNL     1       0.055  -3.294   1.487  0.00  0.00    +0.174 C 
ATOM     26 CL   UNL     1       0.043  -3.509  -1.749  0.00  0.00    -0.062 Cl
ENDBRANCH   1  21
TORSDOF 1
