REMARK  Name = ZINC41069927
REMARK  3 active torsions:
REMARK  status: ('A' for Active; 'I' for Inactive)
REMARK    1  A    between atoms: C_6  and  S_7
REMARK    2  A    between atoms: S_7  and  N_10
REMARK    3  A    between atoms: N_17  and  N_18
REMARK                            x       y       z     vdW  Elec       q    Type
REMARK                         _______ _______ _______ _____ _____    ______ ____
ROOT
ATOM      1  C   UNL     1      -0.064   1.399  -0.195  0.00  0.00    +0.048 A 
ATOM      2  C   UNL     1       1.128   2.113  -0.170  0.00  0.00    +0.038 A 
ATOM      3  C   UNL     1       2.321   1.433  -0.026  0.00  0.00    +0.128 A 
ATOM      4  N   UNL     1       2.340   0.118   0.088  0.00  0.00    -0.236 NA
ATOM      5  C   UNL     1       1.226  -0.597   0.068  0.00  0.00    +0.159 A 
ATOM      6  C   UNL     1      -0.011   0.023  -0.074  0.00  0.00    +0.147 A 
ATOM      7  N   UNL     1       1.294  -1.981   0.190  0.00  0.00    -0.266 N 
ATOM      8 BR   UNL     1       1.116   3.997  -0.332  0.00  0.00    -0.049 Br
ATOM      9  H   UNL     1       0.480  -2.500   0.281  0.00  0.00    +0.167 HD
ENDROOT
BRANCH   6  10
ATOM     10  S   UNL     1      -1.491  -0.933  -0.099  0.00  0.00    +0.064 S 
ATOM     11  O   UNL     1      -1.412  -1.833   0.999  0.00  0.00    -0.153 OA
ATOM     12  O   UNL     1      -2.565  -0.016  -0.256  0.00  0.00    -0.153 OA
BRANCH  10  13
ATOM     13  N   UNL     1      -1.454  -1.858  -1.472  0.00  0.00    -0.176 NA
ATOM     14  C   UNL     1      -1.887  -1.266  -2.718  0.00  0.00    +0.109 C 
ATOM     15  C   UNL     1      -3.410  -1.483  -2.894  0.00  0.00    +0.017 C 
ATOM     16  C   UNL     1      -3.695  -2.897  -3.182  0.00  0.00    +0.001 C 
ATOM     17  C   UNL     1      -3.304  -3.857  -2.062  0.00  0.00    +0.001 C 
ATOM     18  C   UNL     1      -1.846  -4.219  -2.201  0.00  0.00    +0.017 C 
ATOM     19  C   UNL     1      -0.974  -3.251  -1.375  0.00  0.00    +0.109 C 
ENDBRANCH  10  13
ENDBRANCH   6  10
BRANCH   7  20
ATOM     20  N   UNL     1       2.507  -2.609   0.181  0.00  0.00    -0.255 NA
ATOM     21  H   UNL     1       3.111  -2.240   0.900  0.00  0.00    +0.140 HD
ATOM     22  H   UNL     1       2.398  -3.607   0.278  0.00  0.00    +0.140 HD
ENDBRANCH   7  20
TORSDOF 3
