REMARK  Name = ZINC13469941
REMARK  11 active torsions:
REMARK  status: ('A' for Active; 'I' for Inactive)
REMARK    1  A    between atoms: C_1  and  C_2
REMARK    2  A    between atoms: C_2  and  C_3
REMARK    3  A    between atoms: C_2  and  C_18
REMARK    4  A    between atoms: C_2  and  C_24
REMARK    5  A    between atoms: C_3  and  C_4
REMARK    6  A    between atoms: N_6  and  C_7
REMARK    7  A    between atoms: C_9  and  C_14
REMARK    8  A    between atoms: C_12  and  O_13
REMARK    9  A    between atoms: C_14  and  C_15
REMARK   10  A    between atoms: C_14  and  C_16
REMARK   11  A    between atoms: C_14  and  C_17
REMARK                            x       y       z     vdW  Elec       q    Type
REMARK                         _______ _______ _______ _____ _____    ______ ____
ROOT
ATOM      1  C   UNL     1       2.154   0.017   1.234  0.00  0.00    +0.219 C 
ATOM      2  O   UNL     1       2.534   0.722   0.323  0.00  0.00    -0.275 OA
ATOM      3  N   UNL     1       3.000  -0.309   2.232  0.00  0.00    -0.283 N 
ATOM      4  H   UNL     1       2.679  -0.818   2.993  0.00  0.00    +0.155 HD
ENDROOT
BRANCH   3   5
ATOM      5  C   UNL     1       4.342   0.088   2.170  0.00  0.00    +0.076 A 
ATOM      6  C   UNL     1       4.683   1.303   1.593  0.00  0.00    +0.031 A 
ATOM      7  C   UNL     1       6.007   1.692   1.534  0.00  0.00    -0.040 A 
ATOM      8  C   UNL     1       6.996   0.874   2.049  0.00  0.00    +0.008 A 
ATOM      9  C   UNL     1       6.664  -0.338   2.625  0.00  0.00    +0.047 A 
ATOM     10  C   UNL     1       5.338  -0.734   2.694  0.00  0.00    +0.138 A 
BRANCH   7  11
ATOM     11  C   UNL     1       6.375   3.012   0.907  0.00  0.00    -0.013 C 
ATOM     12  C   UNL     1       5.688   4.148   1.668  0.00  0.00    +0.015 C 
ATOM     13  C   UNL     1       7.892   3.201   0.969  0.00  0.00    +0.015 C 
ATOM     14  C   UNL     1       5.919   3.027  -0.553  0.00  0.00    +0.015 C 
ENDBRANCH   7  11
BRANCH  10  15
ATOM     15  O   UNL     1       5.010  -1.923   3.266  0.00  0.00    -0.505 OA
ATOM     16  H   UNL     1       4.997  -2.666   2.648  0.00  0.00    +0.292 HD
ENDBRANCH  10  15
ENDBRANCH   3   5
BRANCH   1  17
ATOM     17  C   UNL     1       0.737  -0.494   1.251  0.00  0.00    +0.118 C 
BRANCH  17  19
ATOM     18  C   UNL     1      -0.014   1.548   0.023  0.00  0.00    +0.028 C 
ATOM     19  C   UNL     1      -0.005   0.018   0.014  0.00  0.00    +0.102 C 
BRANCH  19  20
ATOM     20  C   UNL     1      -1.422  -0.493   0.031  0.00  0.00    -0.030 A 
ATOM     21  C   UNL     1      -1.857  -1.292   1.072  0.00  0.00    +0.005 A 
ATOM     22  C   UNL     1      -3.157  -1.761   1.087  0.00  0.00    +0.000 A 
ATOM     23  C   UNL     1      -4.023  -1.431   0.061  0.00  0.00    +0.000 A 
ATOM     24  C   UNL     1      -3.588  -0.631  -0.980  0.00  0.00    +0.000 A 
ATOM     25  C   UNL     1      -2.289  -0.159  -0.993  0.00  0.00    +0.005 A 
ENDBRANCH  19  20
BRANCH  19  26
ATOM     26  C   UNL     1       0.692  -0.473  -1.228  0.00  0.00    +0.366 C 
ATOM     27  O   UNL     1       1.291  -1.535  -1.212  0.00  0.00    -0.245 OA
ATOM     28  O   UNL     1       0.657   0.192  -2.250  0.00  0.00    -0.245 OA
ENDBRANCH  19  26
ENDBRANCH  17  19
ENDBRANCH   1  17
TORSDOF 7
