REMARK  Name = ZINC09684670
REMARK  8 active torsions:
REMARK  status: ('A' for Active; 'I' for Inactive)
REMARK    1  A    between atoms: C_1  and  C_2
REMARK    2  A    between atoms: N_10  and  C_11
REMARK    3  A    between atoms: C_11  and  C_12
REMARK    4  A    between atoms: C_12  and  C_31
REMARK    5  A    between atoms: C_14  and  N_21
REMARK    6  A    between atoms: C_17  and  C_19
REMARK    7  A    between atoms: C_17  and  C_20
REMARK    8  A    between atoms: C_28  and  C_30
REMARK                            x       y       z     vdW  Elec       q    Type
REMARK                         _______ _______ _______ _____ _____    ______ ____
ROOT
ATOM      1  C   UNL     1      -2.384   1.098   0.277  0.00  0.00    -0.014 C 
ATOM      2  C   UNL     1      -2.252   0.116  -0.881  0.00  0.00    +0.030 C 
ATOM      3  C   UNL     1      -3.485  -0.780  -0.975  0.00  0.00    +0.076 C 
ATOM      4  C   UNL     1      -4.710   0.092  -1.238  0.00  0.00    +0.028 C 
ATOM      5  C   UNL     1      -4.931   1.074  -0.093  0.00  0.00    -0.033 C 
ATOM      6  C   UNL     1      -3.686   1.876   0.237  0.00  0.00    +0.014 C 
ATOM      7  C   UNL     1      -5.452   0.331   1.141  0.00  0.00    +0.011 C 
ATOM      8  C   UNL     1      -6.033   2.064  -0.532  0.00  0.00    +0.011 C 
ATOM      9  C   UNL     1      -2.222   0.361   1.609  0.00  0.00    +0.013 C 
ENDROOT
BRANCH   3  10
ATOM     10  N   UNL     1      -3.314  -1.718  -2.093  0.00  0.00    -0.296 N 
ATOM     11  C   UNL     1      -3.988  -2.885  -2.103  0.00  0.00    +0.306 C 
ATOM     12  O   UNL     1      -4.737  -3.162  -1.187  0.00  0.00    -0.252 OA
ATOM     13  N   UNL     1      -3.831  -3.745  -3.129  0.00  0.00    -0.247 N 
ATOM     14  C   UNL     1      -4.526  -4.949  -3.139  0.00  0.00    +0.189 A 
ATOM     15  N   UNL     1      -5.379  -5.437  -2.255  0.00  0.00    -0.126 NA
ATOM     16  N   UNL     1      -5.933  -6.561  -2.412  0.00  0.00    -0.145 NA
ATOM     17  C   UNL     1      -5.676  -7.293  -3.476  0.00  0.00    +0.101 A 
ATOM     18  S   UNL     1      -4.519  -6.224  -4.323  0.00  0.00    -0.036 S 
ATOM     19  C   UNL     1      -6.210  -8.646  -3.872  0.00  0.00    +0.075 C 
ATOM     20  H   UNL     1      -2.716  -1.497  -2.824  0.00  0.00    +0.151 HD
ATOM     21  H   UNL     1      -3.233  -3.524  -3.860  0.00  0.00    +0.158 HD
ENDBRANCH   3  10
BRANCH   1  22
ATOM     22  C   UNL     1      -1.222   2.110   0.167  0.00  0.00    +0.112 C 
BRANCH  22  32
ATOM     23  C   UNL     1       7.476   3.476  -0.161  0.00  0.00    +0.075 C 
ATOM     24  C   UNL     1       6.013   3.125  -0.095  0.00  0.00    +0.101 A 
ATOM     25  N   UNL     1       4.952   3.906  -0.135  0.00  0.00    -0.145 NA
ATOM     26  N   UNL     1       3.790   3.418  -0.064  0.00  0.00    -0.126 NA
ATOM     27  C   UNL     1       3.585   2.117   0.051  0.00  0.00    +0.189 A 
ATOM     28  S   UNL     1       5.221   1.528   0.068  0.00  0.00    -0.036 S 
ATOM     29  N   UNL     1       2.389   1.413   0.142  0.00  0.00    -0.247 N 
ATOM     30  C   UNL     1       1.214   2.074   0.115  0.00  0.00    +0.305 C 
ATOM     31  O   UNL     1       1.200   3.285   0.012  0.00  0.00    -0.252 OA
ATOM     32  N   UNL     1       0.055   1.392   0.202  0.00  0.00    -0.299 N 
ATOM     33  H   UNL     1       2.400   0.447   0.224  0.00  0.00    +0.158 HD
ATOM     34  H   UNL     1       0.066   0.425   0.284  0.00  0.00    +0.150 HD
ENDBRANCH  22  32
ENDBRANCH   1  22
TORSDOF 3
