REMARK  Name = ZINC47852515
REMARK  4 active torsions:
REMARK  status: ('A' for Active; 'I' for Inactive)
REMARK    1  A    between atoms: C_3  and  O_8
REMARK    2  A    between atoms: O_8  and  C_9
REMARK    3  A    between atoms: C_10  and  C_18
REMARK    4  A    between atoms: C_12  and  N_15
REMARK                            x       y       z     vdW  Elec       q    Type
REMARK                         _______ _______ _______ _____ _____    ______ ____
ROOT
ATOM      1  C   UNL     1       4.705   1.405   0.069  0.00  0.00    +0.233 A 
ATOM      2  C   UNL     1       5.926   2.088   0.176  0.00  0.00    +0.100 A 
ATOM      3  C   UNL     1       7.108   1.344   0.267  0.00  0.00    +0.052 A 
ATOM      4  C   UNL     1       7.019  -0.036   0.247  0.00  0.00    +0.145 A 
ATOM      5  C   UNL     1       5.778  -0.637   0.139  0.00  0.00    +0.147 A 
ATOM      6  N   UNL     1       4.676   0.083   0.060  0.00  0.00    -0.218 NA
ENDROOT
BRANCH   2   7
ATOM      7  C   UNL     1       5.963   3.562   0.191  0.00  0.00    +0.247 C 
ATOM      8  O   UNL     1       4.930   4.198   0.111  0.00  0.00    -0.270 OA
ATOM      9  N   UNL     1       7.143   4.206   0.294  0.00  0.00    -0.325 N 
ATOM     10  H   UNL     1       7.968   3.699   0.359  0.00  0.00    +0.145 HD
ATOM     11  H   UNL     1       7.168   5.176   0.305  0.00  0.00    +0.145 HD
ENDBRANCH   2   7
BRANCH   4  12
ATOM     12  N   UNL     1       8.243  -0.864   0.341  0.00  0.00    +0.058 N 
ATOM     13  O   UNL     1       9.326  -0.334   0.435  0.00  0.00    -0.126 OA
ATOM     14  O   UNL     1       8.160  -2.070   0.323  0.00  0.00    -0.126 OA
ENDBRANCH   4  12
BRANCH   1  15
ATOM     15  O   UNL     1       3.548   2.104  -0.021  0.00  0.00    -0.437 OA
BRANCH  15  18
ATOM     16  C   UNL     1       0.695   0.191   1.178  0.00  0.00    +0.005 A 
ATOM     17  C   UNL     1       1.883   0.897   1.174  0.00  0.00    +0.046 A 
ATOM     18  C   UNL     1       2.381   1.409  -0.015  0.00  0.00    +0.131 A 
ATOM     19  C   UNL     1       1.683   1.212  -1.198  0.00  0.00    +0.060 A 
ATOM     20  C   UNL     1       0.496   0.506  -1.189  0.00  0.00    +0.017 A 
ATOM     21  C   UNL     1       0.002  -0.004  -0.002  0.00  0.00    +0.014 A 
ATOM     22  I   UNL     1      -0.558   0.207  -2.975  0.00  0.00    -0.044 I 
ENDBRANCH  15  18
ENDBRANCH   1  15
TORSDOF 4
