REMARK  Name = ZINC40755306
REMARK  5 active torsions:
REMARK  status: ('A' for Active; 'I' for Inactive)
REMARK    1  A    between atoms: C_1  and  C_2
REMARK    2  A    between atoms: C_6  and  N_9
REMARK    3  A    between atoms: C_7  and  C_8
REMARK    4  A    between atoms: C_11  and  N_25
REMARK    5  A    between atoms: C_12  and  N_16
REMARK                            x       y       z     vdW  Elec       q    Type
REMARK                         _______ _______ _______ _____ _____    ______ ____
ROOT
ATOM      1  N   UNL     1       0.066  -2.798   2.391  0.00  0.00    -0.298 N 
ATOM      2  C   UNL     1      -0.029  -4.184   2.383  0.00  0.00    +0.149 A 
ATOM      3  C   UNL     1      -0.125  -4.897   3.583  0.00  0.00    +0.110 A 
ATOM      4  C   UNL     1      -0.217  -6.287   3.518  0.00  0.00    +0.182 A 
ATOM      5  N   UNL     1      -0.210  -6.878   2.326  0.00  0.00    -0.215 NA
ATOM      6  C   UNL     1      -0.118  -6.170   1.219  0.00  0.00    +0.225 A 
ATOM      7  N   UNL     1      -0.034  -4.855   1.235  0.00  0.00    -0.219 NA
ATOM      8  H   UNL     1       0.153  -2.322   3.232  0.00  0.00    +0.154 HD
ENDROOT
BRANCH   4   9
ATOM      9  N   UNL     1      -0.315  -7.046   4.686  0.00  0.00    -0.192 N 
ATOM     10  C   UNL     1      -1.234  -8.039   4.948  0.00  0.00    +0.096 A 
ATOM     11  C   UNL     1      -2.287  -8.594   4.231  0.00  0.00    +0.030 A 
ATOM     12  C   UNL     1      -3.037  -9.604   4.791  0.00  0.00    +0.002 A 
ATOM     13  C   UNL     1      -2.748 -10.069   6.067  0.00  0.00    +0.002 A 
ATOM     14  C   UNL     1      -1.718  -9.538   6.787  0.00  0.00    +0.032 A 
ATOM     15  C   UNL     1      -0.940  -8.510   6.239  0.00  0.00    +0.113 A 
ATOM     16  N   UNL     1       0.118  -7.804   6.702  0.00  0.00    -0.129 NA
ATOM     17  N   UNL     1       0.505  -6.952   5.819  0.00  0.00    -0.058 NA
ENDBRANCH   4   9
BRANCH   1  23
ATOM     18  C   UNL     1       1.216   1.233  -0.176  0.00  0.00    +0.044 C 
ATOM     19  C   UNL     1       0.583  -0.132  -0.086  0.00  0.00    -0.046 A 
ATOM     20  C   UNL     1      -0.030  -0.684  -1.196  0.00  0.00    +0.004 A 
ATOM     21  C   UNL     1      -0.612  -1.936  -1.117  0.00  0.00    +0.002 A 
ATOM     22  C   UNL     1      -0.582  -2.640   0.071  0.00  0.00    +0.023 A 
ATOM     23  C   UNL     1       0.034  -2.089   1.187  0.00  0.00    +0.036 A 
ATOM     24  C   UNL     1       0.622  -0.833   1.104  0.00  0.00    -0.026 A 
ATOM     25  C   UNL     1       1.295  -0.233   2.311  0.00  0.00    +0.046 C 
ENDBRANCH   1  23
BRANCH   3  26
ATOM     26  N   UNL     1      -0.129  -4.232   4.817  0.00  0.00    -0.352 N 
ATOM     27  H   UNL     1      -0.137  -3.262   4.846  0.00  0.00    +0.143 HD
ATOM     28  H   UNL     1      -0.123  -4.742   5.643  0.00  0.00    +0.143 HD
ENDBRANCH   3  26
TORSDOF 3
