REMARK  Name = ZINC50792341
REMARK  6 active torsions:
REMARK  status: ('A' for Active; 'I' for Inactive)
REMARK    1  A    between atoms: C_1  and  N_2
REMARK    2  A    between atoms: N_2  and  C_3
REMARK    3  A    between atoms: N_2  and  C_14
REMARK    4  A    between atoms: C_3  and  C_4
REMARK    5  A    between atoms: C_7  and  N_13
REMARK    6  A    between atoms: C_8  and  N_10
REMARK                            x       y       z     vdW  Elec       q    Type
REMARK                         _______ _______ _______ _____ _____    ______ ____
ROOT
ATOM      1  C   UNL     1      -1.319  -1.196   1.929  0.00  0.00    -0.028 A 
ATOM      2  C   UNL     1      -2.001  -0.103   2.433  0.00  0.00    +0.007 A 
ATOM      3  C   UNL     1      -3.366  -0.170   2.628  0.00  0.00    +0.025 A 
ATOM      4  C   UNL     1      -4.055  -1.336   2.317  0.00  0.00    +0.055 A 
ATOM      5  C   UNL     1      -3.366  -2.431   1.811  0.00  0.00    +0.147 A 
ATOM      6  C   UNL     1      -2.002  -2.356   1.614  0.00  0.00    +0.039 A 
ENDROOT
BRANCH   5   7
ATOM      7  N   UNL     1      -4.096  -3.675   1.479  0.00  0.00    +0.058 N 
ATOM      8  O   UNL     1      -5.005  -4.049   2.183  0.00  0.00    -0.126 OA
ATOM      9  O   UNL     1      -3.782  -4.318   0.504  0.00  0.00    -0.126 OA
ENDBRANCH   5   7
BRANCH   4  10
ATOM     10  N   UNL     1      -5.436  -1.407   2.513  0.00  0.00    -0.356 N 
ATOM     11  H   UNL     1      -5.897  -0.692   2.980  0.00  0.00    +0.142 HD
ATOM     12  H   UNL     1      -5.934  -2.171   2.183  0.00  0.00    +0.142 HD
ENDBRANCH   4  10
BRANCH   1  13
ATOM     13  C   UNL     1       0.172  -1.120   1.718  0.00  0.00    +0.140 C 
BRANCH  13  15
ATOM     14  C   UNL     1       0.588   0.814   0.128  0.00  0.00    +0.129 C 
ATOM     15  N   UNL     1       0.448  -0.625   0.367  0.00  0.00    -0.329 N 
BRANCH  15  16
ATOM     16  C   UNL     1       0.579  -1.525  -0.693  0.00  0.00    +0.030 A 
ATOM     17  C   UNL     1       0.442  -2.889  -0.469  0.00  0.00    +0.023 A 
ATOM     18  C   UNL     1       0.572  -3.776  -1.520  0.00  0.00    +0.002 A 
ATOM     19  C   UNL     1       0.838  -3.308  -2.793  0.00  0.00    +0.000 A 
ATOM     20  C   UNL     1       0.976  -1.951  -3.019  0.00  0.00    +0.002 A 
ATOM     21  C   UNL     1       0.842  -1.058  -1.975  0.00  0.00    +0.023 A 
ENDBRANCH  15  16
ENDBRANCH  13  15
ENDBRANCH   1  13
TORSDOF 5
