REMARK  Name = ZINC64401629
REMARK  5 active torsions:
REMARK  status: ('A' for Active; 'I' for Inactive)
REMARK    1  A    between atoms: C_1  and  C_2
REMARK    2  A    between atoms: C_2  and  C_3
REMARK    3  A    between atoms: C_2  and  N_14
REMARK    4  A    between atoms: N_8  and  C_9
REMARK    5  A    between atoms: C_9  and  C_10
REMARK                            x       y       z     vdW  Elec       q    Type
REMARK                         _______ _______ _______ _____ _____    ______ ____
ROOT
ATOM      1  C   UNL     1       0.960  -0.435   1.115  0.00  0.00    -0.004 C 
ATOM      2  C   UNL     1       0.002  -0.004   0.002  0.00  0.00    +0.017 C 
ENDROOT
BRANCH   2   3
ATOM      3  N   UNL     1       0.541  -0.425  -1.298  0.00  0.00    +0.388 N 
ATOM      4  C   UNL     1       0.400  -1.876  -1.407  0.00  0.00    -0.076 C 
ATOM      5  C   UNL     1       0.242  -2.254  -2.863  0.00  0.00    +0.000 C 
ATOM      6  C   UNL     1       1.621  -2.597  -3.456  0.00  0.00    +0.105 C 
ATOM      7  N   UNL     1       2.659  -1.673  -2.955  0.00  0.00    -0.311 N 
ATOM      8  C   UNL     1       2.429  -0.250  -2.815  0.00  0.00    +0.088 C 
ATOM      9  C   UNL     1       1.865   0.054  -1.408  0.00  0.00    -0.059 C 
ATOM     10  C   UNL     1       3.898  -2.187  -2.606  0.00  0.00    +0.161 A 
ATOM     11  N   UNL     1       4.948  -1.545  -2.138  0.00  0.00    -0.233 NA
ATOM     12  C   UNL     1       6.067  -2.186  -1.851  0.00  0.00    +0.120 A 
ATOM     13  C   UNL     1       6.081  -3.524  -2.059  0.00  0.00    +0.068 A 
ATOM     14  S   UNL     1       4.424  -3.785  -2.670  0.00  0.00    -0.061 S 
ATOM     15  H   UNL     1      -0.014   0.002  -2.025  0.00  0.00    -0.081 HD
ENDBRANCH   2   3
BRANCH   2  16
ATOM     16  C   UNL     1      -0.148   1.495   0.021  0.00  0.00    +0.207 C 
ATOM     17  O   UNL     1       0.238   2.155  -0.919  0.00  0.00    -0.277 OA
ATOM     18  N   UNL     1      -0.712   2.102   1.084  0.00  0.00    -0.242 N 
ATOM     19  C   UNL     1      -0.846   3.443   1.102  0.00  0.00    +0.306 C 
ATOM     20  O   UNL     1      -0.459   4.105   0.159  0.00  0.00    -0.252 OA
ATOM     21  N   UNL     1      -1.410   4.050   2.165  0.00  0.00    -0.291 N 
ATOM     22  H   UNL     1      -1.021   1.574   1.837  0.00  0.00    +0.159 HD
ATOM     23  H   UNL     1      -1.720   3.522   2.917  0.00  0.00    +0.151 HD
BRANCH  21  24
ATOM     24  C   UNL     1      -1.556   5.508   2.184  0.00  0.00    +0.219 C 
BRANCH  24  25
ATOM     25  C   UNL     1      -2.221   5.937   3.493  0.00  0.00    +0.405 C 
ATOM     26  F   UNL     1      -1.428   5.534   4.573  0.00  0.00    -0.169 F 
ATOM     27  F   UNL     1      -2.361   7.329   3.511  0.00  0.00    -0.169 F 
ATOM     28  F   UNL     1      -3.483   5.341   3.593  0.00  0.00    -0.169 F 
ENDBRANCH  24  25
ENDBRANCH  21  24
ENDBRANCH   2  16
TORSDOF 4
