REMARK  Name = ZINC17958656
REMARK  6 active torsions:
REMARK  status: ('A' for Active; 'I' for Inactive)
REMARK    1  A    between atoms: C_1  and  C_2
REMARK    2  A    between atoms: C_7  and  N_8
REMARK    3  A    between atoms: C_9  and  C_11
REMARK    4  A    between atoms: C_11  and  N_12
REMARK    5  A    between atoms: C_13  and  C_15
REMARK    6  A    between atoms: C_18  and  C_20
REMARK                            x       y       z     vdW  Elec       q    Type
REMARK                         _______ _______ _______ _____ _____    ______ ____
ROOT
ATOM      1  N   UNL     1      -2.076   4.406   0.036  0.00  0.00    -0.284 N 
ATOM      2  C   UNL     1      -1.040   3.544   0.029  0.00  0.00    +0.234 C 
ATOM      3  O   UNL     1       0.098   3.963   0.020  0.00  0.00    -0.274 OA
ATOM      4  H   UNL     1      -2.984   4.073  -0.037  0.00  0.00    +0.155 HD
ENDROOT
BRANCH   1  11
ATOM      5  C   UNL     1      -4.029   6.191  -1.010  0.00  0.00    +0.046 C 
ATOM      6  C   UNL     1      -2.768   6.687  -0.349  0.00  0.00    -0.028 A 
ATOM      7  C   UNL     1      -2.537   8.044  -0.232  0.00  0.00    +0.020 A 
ATOM      8  C   UNL     1      -1.377   8.500   0.369  0.00  0.00    +0.018 A 
ATOM      9  C   UNL     1      -0.449   7.599   0.860  0.00  0.00    +0.017 A 
ATOM     10  C   UNL     1      -0.678   6.241   0.751  0.00  0.00    +0.024 A 
ATOM     11  C   UNL     1      -1.841   5.781   0.148  0.00  0.00    +0.036 A 
ATOM     12 BR   UNL     1      -1.061  10.358   0.521  0.00  0.00    -0.050 Br
ENDBRANCH   1  11
BRANCH   2  13
ATOM     13  C   UNL     1      -1.295   2.058   0.035  0.00  0.00    +0.200 C 
BRANCH  13  14
ATOM     14  N   UNL     1      -0.017   1.343   0.026  0.00  0.00    -0.306 N 
ATOM     15  C   UNL     1       0.001  -0.005   0.029  0.00  0.00    +0.217 C 
ATOM     16  O   UNL     1      -1.041  -0.625   0.043  0.00  0.00    -0.275 OA
ATOM     17  H   UNL     1       0.817   1.839   0.014  0.00  0.00    +0.149 HD
BRANCH  15  18
ATOM     18  C   UNL     1       1.316  -0.741   0.013  0.00  0.00    +0.078 C 
ATOM     19  C   UNL     1       1.708  -1.512   1.275  0.00  0.00    +0.017 C 
ATOM     20  C   UNL     1       1.270  -2.270   0.019  0.00  0.00    -0.002 C 
ATOM     21  C   UNL     1       2.350  -3.012  -0.771  0.00  0.00    +0.008 C 
ENDBRANCH  15  18
ENDBRANCH  13  14
ENDBRANCH   2  13
TORSDOF 4
