REMARK  Name = ZINC27229608
REMARK  7 active torsions:
REMARK  status: ('A' for Active; 'I' for Inactive)
REMARK    1  A    between atoms: C_1  and  S_2
REMARK    2  A    between atoms: S_2  and  N_5
REMARK    3  A    between atoms: C_12  and  C_14
REMARK    4  A    between atoms: N_16  and  N_17
REMARK    5  A    between atoms: C_18  and  C_20
REMARK    6  A    between atoms: C_24  and  S_26
REMARK    7  A    between atoms: S_26  and  N_29
REMARK                            x       y       z     vdW  Elec       q    Type
REMARK                         _______ _______ _______ _____ _____    ______ ____
ROOT
ATOM      1  N   UNL     1      -4.883   0.958   0.029  0.00  0.00    -0.230 N 
ATOM      2  C   UNL     1      -6.057   1.621   0.039  0.00  0.00    +0.260 C 
ATOM      3  O   UNL     1      -6.069   2.836   0.046  0.00  0.00    -0.269 OA
ATOM      4  H   UNL     1      -4.872  -0.142   0.023  0.00  0.00    +0.173 HD
ENDROOT
BRANCH   2   5
ATOM      5  C   UNL     1      -7.330   0.869   0.040  0.00  0.00    +0.040 A 
ATOM      6  C   UNL     1      -7.320  -0.527   0.026  0.00  0.00    +0.013 A 
ATOM      7  C   UNL     1      -8.511  -1.222   0.033  0.00  0.00    +0.003 A 
ATOM      8  C   UNL     1      -9.715  -0.539   0.043  0.00  0.00    +0.028 A 
ATOM      9  C   UNL     1      -9.732   0.845   0.051  0.00  0.00    +0.106 A 
ATOM     10  C   UNL     1      -8.547   1.552   0.050  0.00  0.00    +0.041 A 
BRANCH   9  11
ATOM     11  S   UNL     1     -11.269   1.705   0.062  0.00  0.00    +0.061 S 
ATOM     12  O   UNL     1     -12.229   0.813   0.612  0.00  0.00    -0.153 OA
ATOM     13  O   UNL     1     -11.013   2.987   0.619  0.00  0.00    -0.153 OA
BRANCH  11  14
ATOM     14  N   UNL     1     -11.703   1.952  -1.516  0.00  0.00    -0.177 NA
ATOM     15  C   UNL     1     -11.350   3.126  -2.328  0.00  0.00    +0.109 C 
ATOM     16  C   UNL     1     -11.990   2.931  -3.719  0.00  0.00    +0.018 C 
ATOM     17  C   UNL     1     -13.144   1.935  -3.431  0.00  0.00    +0.018 C 
ATOM     18  C   UNL     1     -12.514   1.036  -2.339  0.00  0.00    +0.109 C 
ENDBRANCH  11  14
ENDBRANCH   9  11
ENDBRANCH   2   5
BRANCH   1  21
ATOM     19  C   UNL     1      -2.503   1.008   0.019  0.00  0.00    +0.260 C 
ATOM     20  O   UNL     1      -2.491  -0.208   0.012  0.00  0.00    -0.269 OA
ATOM     21  N   UNL     1      -3.677   1.670   0.028  0.00  0.00    -0.230 N 
ATOM     22  H   UNL     1      -3.687   2.770   0.035  0.00  0.00    +0.173 HD
BRANCH  19  30
ATOM     23  N   UNL     1       2.458   3.685  -0.002  0.00  0.00    -0.207 N 
ATOM     24  C   UNL     1       3.438   2.596  -0.017  0.00  0.00    +0.136 C 
ATOM     25  C   UNL     1       2.606   1.304  -0.016  0.00  0.00    +0.058 C 
ATOM     26  C   UNL     1       1.170   1.780   0.000  0.00  0.00    -0.023 A 
ATOM     27  C   UNL     1       1.167   3.170   0.008  0.00  0.00    +0.054 A 
ATOM     28  C   UNL     1      -0.056   3.851   0.024  0.00  0.00    +0.026 A 
ATOM     29  C   UNL     1      -1.240   3.155   0.033  0.00  0.00    +0.015 A 
ATOM     30  C   UNL     1      -1.233   1.758   0.018  0.00  0.00    +0.039 A 
ATOM     31  C   UNL     1      -0.013   1.076   0.008  0.00  0.00    +0.018 A 
BRANCH  23  33
ATOM     32  C   UNL     1       2.956   5.742   1.758  0.00  0.00    +0.218 C 
ATOM     33  S   UNL     1       2.834   5.298   0.004  0.00  0.00    +0.043 S 
ATOM     34  O   UNL     1       4.113   5.374  -0.610  0.00  0.00    -0.155 OA
ATOM     35  O   UNL     1       1.708   5.934  -0.585  0.00  0.00    -0.155 OA
ENDBRANCH  23  33
ENDBRANCH  19  30
ENDBRANCH   1  21
TORSDOF 6
