REMARK  Name = ZINC27015672
REMARK  9 active torsions:
REMARK  status: ('A' for Active; 'I' for Inactive)
REMARK    1  A    between atoms: C_1  and  C_2
REMARK    2  A    between atoms: C_5  and  C_8
REMARK    3  A    between atoms: C_8  and  C_10
REMARK    4  A    between atoms: C_12  and  C_24
REMARK    5  A    between atoms: C_18  and  C_19
REMARK    6  A    between atoms: C_18  and  O_23
REMARK    7  A    between atoms: C_27  and  O_32
REMARK    8  A    between atoms: C_28  and  O_30
REMARK    9  A    between atoms: O_30  and  C_31
REMARK                            x       y       z     vdW  Elec       q    Type
REMARK                         _______ _______ _______ _____ _____    ______ ____
ROOT
ATOM      1  C   UNL     1       2.772   4.692   1.422  0.00  0.00    +0.144 C 
ATOM      2  C   UNL     1       2.447   4.220   0.001  0.00  0.00    +0.120 C 
ATOM      3  N   UNL     1       2.317   5.385  -0.876  0.00  0.00    -0.292 N 
ATOM      4  C   UNL     1       2.992   6.519  -0.635  0.00  0.00    +0.302 C 
ATOM      5  O   UNL     1       2.856   7.453  -1.401  0.00  0.00    -0.253 OA
ATOM      6  N   UNL     1       3.811   6.662   0.418  0.00  0.00    -0.264 N 
ATOM      7  C   UNL     1       4.026   5.571   1.369  0.00  0.00    +0.243 C 
ATOM      8  H   UNL     1       1.655   5.341  -1.754  0.00  0.00    +0.151 HD
ATOM      9  H   UNL     1       4.325   7.624   0.559  0.00  0.00    +0.153 HD
ENDROOT
BRANCH   2  10
ATOM     10  C   UNL     1       1.153   3.449   0.010  0.00  0.00    -0.023 A 
ATOM     11  C   UNL     1      -0.053   4.125   0.025  0.00  0.00    +0.009 A 
ATOM     12  C   UNL     1      -1.243   3.422   0.032  0.00  0.00    +0.049 A 
ATOM     13  C   UNL     1      -1.230   2.037   0.019  0.00  0.00    +0.158 A 
ATOM     14  C   UNL     1      -0.016   1.356   0.009  0.00  0.00    +0.162 A 
ATOM     15  C   UNL     1       1.173   2.066   0.002  0.00  0.00    +0.055 A 
BRANCH  14  16
ATOM     16  O   UNL     1       0.002  -0.004   0.002  0.00  0.00    -0.491 OA
ATOM     17  C   UNL     1       1.284  -0.635  -0.014  0.00  0.00    +0.277 C 
ENDBRANCH  14  16
BRANCH  13  18
ATOM     18  O   UNL     1      -2.400   1.344   0.021  0.00  0.00    -0.503 OA
ATOM     19  H   UNL     1      -2.388   0.244   0.010  0.00  0.00    +0.292 HD
ENDBRANCH  13  18
ENDBRANCH   2  10
BRANCH   7  20
ATOM     20  C   UNL     1       4.304   6.151   2.758  0.00  0.00    +0.436 C 
ATOM     21  F   UNL     1       3.210   6.918   3.170  0.00  0.00    -0.166 F 
ATOM     22  F   UNL     1       4.510   5.107   3.666  0.00  0.00    -0.166 F 
ATOM     23  F   UNL     1       5.447   6.956   2.707  0.00  0.00    -0.166 F 
ENDBRANCH   7  20
BRANCH   1  24
ATOM     24  C   UNL     1       3.024   3.499   2.307  0.00  0.00    +0.173 C 
ATOM     25  O   UNL     1       3.487   2.482   1.836  0.00  0.00    -0.292 OA
BRANCH  24  30
ATOM     26  C   UNL     1       1.799   3.769   7.917  0.00  0.00    +0.044 C 
ATOM     27  C   UNL     1       2.120   3.698   6.446  0.00  0.00    -0.050 A 
ATOM     28  C   UNL     1       2.647   2.535   5.912  0.00  0.00    +0.004 A 
ATOM     29  C   UNL     1       2.944   2.463   4.567  0.00  0.00    +0.011 A 
ATOM     30  C   UNL     1       2.710   3.568   3.743  0.00  0.00    +0.018 A 
ATOM     31  C   UNL     1       2.183   4.741   4.292  0.00  0.00    +0.011 A 
ATOM     32  C   UNL     1       1.887   4.797   5.637  0.00  0.00    +0.004 A 
ENDBRANCH  24  30
ENDBRANCH   1  24
BRANCH   7  33
ATOM     33  O   UNL     1       5.141   4.783   0.948  0.00  0.00    -0.364 OA
ATOM     34  H   UNL     1       6.135   5.244   0.850  0.00  0.00    +0.212 HD
ENDBRANCH   7  33
TORSDOF 7
