REMARK  Name = ZINC01405870
REMARK  6 active torsions:
REMARK  status: ('A' for Active; 'I' for Inactive)
REMARK    1  A    between atoms: C_1  and  C_2
REMARK    2  A    between atoms: C_4  and  C_21
REMARK    3  A    between atoms: C_6  and  N_8
REMARK    4  A    between atoms: C_9  and  C_11
REMARK    5  A    between atoms: N_13  and  C_20
REMARK    6  A    between atoms: C_15  and  C_16
REMARK                            x       y       z     vdW  Elec       q    Type
REMARK                         _______ _______ _______ _____ _____    ______ ____
ROOT
ATOM      1  N   UNL     1       1.143   1.902   0.001  0.00  0.00    -0.281 N 
ATOM      2  C   UNL     1      -0.003   1.211  -0.160  0.00  0.00    +0.252 C 
ATOM      3  O   UNL     1       0.032   0.006  -0.324  0.00  0.00    -0.270 OA
ATOM      4  H   UNL     1       1.123   2.870   0.055  0.00  0.00    +0.155 HD
ENDROOT
BRANCH   1  10
ATOM      5  C   UNL     1       5.978   1.749  -0.877  0.00  0.00    +0.044 C 
ATOM      6  C   UNL     1       4.722   1.125  -0.326  0.00  0.00    -0.048 A 
ATOM      7  C   UNL     1       4.775  -0.121   0.271  0.00  0.00    +0.006 A 
ATOM      8  C   UNL     1       3.625  -0.698   0.778  0.00  0.00    -0.048 A 
ATOM      9  C   UNL     1       2.419  -0.030   0.690  0.00  0.00    +0.026 A 
ATOM     10  C   UNL     1       2.363   1.222   0.092  0.00  0.00    +0.034 A 
ATOM     11  C   UNL     1       3.519   1.796  -0.422  0.00  0.00    +0.026 A 
ATOM     12  C   UNL     1       3.687  -2.056   1.428  0.00  0.00    +0.044 C 
ENDBRANCH   1  10
BRANCH   2  13
ATOM     13  C   UNL     1      -1.297   1.916  -0.145  0.00  0.00    +0.086 A 
ATOM     14  C   UNL     1      -1.489   3.272   0.029  0.00  0.00    +0.121 A 
ATOM     15  N   UNL     1      -2.811   3.501  -0.023  0.00  0.00    -0.273 N 
ATOM     16  N   UNL     1      -3.464   2.281  -0.232  0.00  0.00    -0.167 NA
ATOM     17  C   UNL     1      -2.572   1.332  -0.311  0.00  0.00    +0.177 A 
ATOM     18  C   UNL     1      -3.460   4.807   0.115  0.00  0.00    +0.172 C 
BRANCH  17  19
ATOM     19  C   UNL     1      -2.854  -0.131  -0.537  0.00  0.00    +0.437 C 
ATOM     20  F   UNL     1      -3.026  -0.769   0.696  0.00  0.00    -0.164 F 
ATOM     21  F   UNL     1      -4.018  -0.269  -1.301  0.00  0.00    -0.164 F 
ATOM     22  F   UNL     1      -1.778  -0.713  -1.217  0.00  0.00    -0.164 F 
ENDBRANCH  17  19
ENDBRANCH   2  13
TORSDOF 3
