REMARK  Name = ZINC40713481
REMARK  7 active torsions:
REMARK  status: ('A' for Active; 'I' for Inactive)
REMARK    1  A    between atoms: C_1  and  C_2
REMARK    2  A    between atoms: C_2  and  C_3
REMARK    3  A    between atoms: C_2  and  N_4
REMARK    4  A    between atoms: N_4  and  C_5
REMARK    5  A    between atoms: C_5  and  C_6
REMARK    6  A    between atoms: C_6  and  O_7
REMARK    7  A    between atoms: C_9  and  N_15
REMARK                            x       y       z     vdW  Elec       q    Type
REMARK                         _______ _______ _______ _____ _____    ______ ____
ROOT
ATOM      1  N   UNL     1      -1.358  -0.488   0.128  0.00  0.00    -0.309 N 
ATOM      2  C   UNL     1      -2.196  -0.097   1.166  0.00  0.00    +0.152 A 
ATOM      3  C   UNL     1      -2.912   1.091   1.064  0.00  0.00    +0.167 A 
ATOM      4  C   UNL     1      -3.743   1.468   2.103  0.00  0.00    +0.053 A 
ATOM      5  C   UNL     1      -3.830   0.640   3.216  0.00  0.00    +0.038 A 
ATOM      6  C   UNL     1      -3.090  -0.526   3.250  0.00  0.00    +0.128 A 
ATOM      7  N   UNL     1      -2.310  -0.862   2.240  0.00  0.00    -0.237 NA
ATOM      8 BR   UNL     1      -4.949   1.105   4.667  0.00  0.00    -0.049 Br
ENDROOT
BRANCH   1  10
ATOM      9  C   UNL     1       0.274   1.310   0.419  0.00  0.00    +0.028 C 
ATOM     10  C   UNL     1       0.075  -0.189   0.191  0.00  0.00    +0.069 C 
ATOM     11  C   UNL     1       0.708  -0.969   1.346  0.00  0.00    +0.028 C 
ENDBRANCH   1  10
BRANCH   3  12
ATOM     12  N   UNL     1      -2.787   1.941  -0.142  0.00  0.00    +0.060 N 
ATOM     13  O   UNL     1      -3.335   3.018  -0.182  0.00  0.00    -0.126 OA
ATOM     14  O   UNL     1      -2.136   1.559  -1.086  0.00  0.00    -0.126 OA
ENDBRANCH   3  12
BRANCH   1  15
ATOM     15  C   UNL     1      -1.908  -1.198  -1.030  0.00  0.00    +0.134 C 
BRANCH  15  16
ATOM     16  C   UNL     1      -1.953  -2.698  -0.734  0.00  0.00    +0.174 C 
BRANCH  16  17
ATOM     17  O   UNL     1      -2.871  -2.946   0.333  0.00  0.00    -0.393 OA
ATOM     18  H   UNL     1      -2.951  -3.879   0.575  0.00  0.00    +0.209 HD
ENDBRANCH  16  17
ENDBRANCH  15  16
ENDBRANCH   1  15
TORSDOF 5
