REMARK  Name = ZINC38090926
REMARK  7 active torsions:
REMARK  status: ('A' for Active; 'I' for Inactive)
REMARK    1  A    between atoms: C_1  and  C_2
REMARK    2  A    between atoms: C_5  and  C_7
REMARK    3  A    between atoms: C_7  and  N_8
REMARK    4  A    between atoms: N_8  and  C_9
REMARK    5  A    between atoms: C_9  and  C_11
REMARK    6  A    between atoms: C_9  and  C_12
REMARK    7  A    between atoms: C_15  and  N_18
REMARK                            x       y       z     vdW  Elec       q    Type
REMARK                         _______ _______ _______ _____ _____    ______ ____
ROOT
ATOM      1  C   UNL     1      -1.344  -4.204   3.815  0.00  0.00    +0.081 C 
ATOM      2  C   UNL     1      -1.214  -5.643   3.311  0.00  0.00    +0.029 C 
ENDROOT
BRANCH   1   3
ATOM      3  C   UNL     1      -2.644  -4.049   4.562  0.00  0.00    -0.031 A 
ATOM      4  C   UNL     1      -3.826  -3.881   3.866  0.00  0.00    +0.007 A 
ATOM      5  C   UNL     1      -5.018  -3.739   4.551  0.00  0.00    +0.033 A 
ATOM      6  C   UNL     1      -5.027  -3.765   5.933  0.00  0.00    +0.126 A 
ATOM      7  C   UNL     1      -3.845  -3.933   6.630  0.00  0.00    +0.033 A 
ATOM      8  C   UNL     1      -2.654  -4.080   5.944  0.00  0.00    +0.007 A 
BRANCH   6   9
ATOM      9  N   UNL     1      -6.303  -3.611   6.667  0.00  0.00    +0.056 N 
ATOM     10  O   UNL     1      -7.337  -3.464   6.058  0.00  0.00    -0.126 OA
ATOM     11  O   UNL     1      -6.312  -3.634   7.876  0.00  0.00    -0.126 OA
ENDBRANCH   6   9
ENDBRANCH   1   3
BRANCH   1  12
ATOM     12  N   UNL     1      -1.324  -3.282   2.671  0.00  0.00    -0.304 NA
ATOM     13  H   UNL     1      -1.851  -2.445   2.872  0.00  0.00    +0.123 HD
BRANCH  12  14
ATOM     14  C   UNL     1       0.055  -2.955   2.284  0.00  0.00    +0.144 C 
BRANCH  14  19
ATOM     15  C   UNL     1      -0.018   1.503   0.010  0.00  0.00    +0.066 C 
ATOM     16  C   UNL     1       0.002  -0.004   0.002  0.00  0.00    +0.046 A 
ATOM     17  C   UNL     1       0.006  -0.708  -1.159  0.00  0.00    +0.070 A 
ATOM     18  S   UNL     1       0.032  -2.379  -0.531  0.00  0.00    -0.079 S 
ATOM     19  C   UNL     1       0.036  -2.009   1.111  0.00  0.00    +0.092 A 
ATOM     20  N   UNL     1       0.023  -0.699   1.122  0.00  0.00    -0.248 NA
ENDBRANCH  14  19
ENDBRANCH  12  14
ENDBRANCH   1  12
TORSDOF 5
