REMARK  Name = ZINC58139961
REMARK  5 active torsions:
REMARK  status: ('A' for Active; 'I' for Inactive)
REMARK    1  A    between atoms: C_1  and  C_2
REMARK    2  A    between atoms: C_3  and  C_4
REMARK    3  A    between atoms: C_5  and  C_6
REMARK    4  A    between atoms: N_8  and  N_9
REMARK    5  A    between atoms: C_10  and  C_12
REMARK                            x       y       z     vdW  Elec       q    Type
REMARK                         _______ _______ _______ _____ _____    ______ ____
ROOT
ATOM      1  N   UNL     1       1.863  -6.340   2.976  0.00  0.00    -0.230 N 
ATOM      2  C   UNL     1       2.466  -7.011   3.977  0.00  0.00    +0.267 C 
ATOM      3  O   UNL     1       2.993  -6.400   4.888  0.00  0.00    -0.268 OA
ATOM      4  H   UNL     1       1.443  -6.827   2.249  0.00  0.00    +0.173 HD
ENDROOT
BRANCH   2   5
ATOM      5  C   UNL     1       2.486  -8.477   3.969  0.00  0.00    +0.076 A 
ATOM      6  C   UNL     1       3.037  -9.346   4.890  0.00  0.00    +0.024 A 
ATOM      7  C   UNL     1       2.908 -10.707   4.629  0.00  0.00    -0.036 A 
ATOM      8  C   UNL     1       2.252 -11.047   3.489  0.00  0.00    -0.006 A 
ATOM      9  S   UNL     1       1.798  -9.604   2.773  0.00  0.00    -0.088 S 
ATOM     10  C   UNL     1       1.978 -12.424   2.962  0.00  0.00    +0.043 C 
ATOM     11  C   UNL     1       1.883 -13.409   4.132  0.00  0.00    +0.005 C 
ATOM     12  C   UNL     1       3.277 -13.956   4.423  0.00  0.00    +0.001 C 
ATOM     13  C   UNL     1       4.226 -12.825   4.811  0.00  0.00    +0.005 C 
ATOM     14  C   UNL     1       3.480 -11.746   5.588  0.00  0.00    +0.036 C 
ENDBRANCH   2   5
BRANCH   1  17
ATOM     15  C   UNL     1       1.242  -4.268   1.982  0.00  0.00    +0.253 C 
ATOM     16  O   UNL     1       0.715  -4.878   1.071  0.00  0.00    -0.269 OA
ATOM     17  N   UNL     1       1.844  -4.939   2.983  0.00  0.00    -0.231 N 
ATOM     18  H   UNL     1       2.265  -4.452   3.709  0.00  0.00    +0.173 HD
BRANCH  15  20
ATOM     19  C   UNL     1       0.618  -2.132   0.985  0.00  0.00    +0.005 C 
ATOM     20  C   UNL     1       1.222  -2.805   1.990  0.00  0.00    +0.069 C 
BRANCH  19  23
ATOM     21  C   UNL     1      -0.018   1.503   0.010  0.00  0.00    +0.035 C 
ATOM     22  C   UNL     1       0.002  -0.004   0.002  0.00  0.00    -0.030 C 
ATOM     23  C   UNL     1       0.598  -0.668   0.993  0.00  0.00    -0.004 C 
ENDBRANCH  19  23
ENDBRANCH  15  20
ENDBRANCH   1  17
TORSDOF 4
