REMARK  Name = ZINC51713734
REMARK  8 active torsions:
REMARK  status: ('A' for Active; 'I' for Inactive)
REMARK    1  A    between atoms: C_1  and  C_2
REMARK    2  A    between atoms: C_5  and  C_8
REMARK    3  A    between atoms: C_8  and  C_10
REMARK    4  A    between atoms: C_8  and  N_24
REMARK    5  A    between atoms: C_10  and  N_11
REMARK    6  A    between atoms: C_18  and  C_21
REMARK    7  A    between atoms: N_24  and  C_25
REMARK    8  A    between atoms: N_24  and  C_26
REMARK                            x       y       z     vdW  Elec       q    Type
REMARK                         _______ _______ _______ _____ _____    ______ ____
ROOT
ATOM      1  N   UNL     1      -2.131  -4.003  -1.147  0.00  0.00    -0.300 N 
ATOM      2  C   UNL     1      -3.472  -4.109  -1.232  0.00  0.00    +0.302 C 
ATOM      3  O   UNL     1      -4.083  -4.766  -0.412  0.00  0.00    -0.253 OA
ATOM      4  N   UNL     1      -4.136  -3.487  -2.227  0.00  0.00    -0.281 N 
ATOM      5  C   UNL     1      -3.411  -2.784  -3.297  0.00  0.00    +0.137 C 
ATOM      6  C   UNL     1      -3.955  -3.266  -4.647  0.00  0.00    +0.180 C 
ATOM      7  O   UNL     1      -5.378  -3.136  -4.654  0.00  0.00    -0.364 OA
ATOM      8  C   UNL     1      -6.044  -3.938  -3.674  0.00  0.00    +0.221 C 
ATOM      9  C   UNL     1      -5.606  -3.495  -2.278  0.00  0.00    +0.150 C 
ATOM     10  H   UNL     1      -1.637  -3.539  -1.841  0.00  0.00    +0.150 HD
ENDROOT
BRANCH   8  11
ATOM     11  C   UNL     1      -7.535  -3.770  -3.815  0.00  0.00    +0.241 C 
ATOM     12  O   UNL     1      -7.983  -2.969  -4.607  0.00  0.00    -0.273 OA
ATOM     13  N   UNL     1      -8.370  -4.510  -3.059  0.00  0.00    -0.327 N 
ATOM     14  H   UNL     1      -8.012  -5.151  -2.425  0.00  0.00    +0.145 HD
ATOM     15  H   UNL     1      -9.330  -4.402  -3.150  0.00  0.00    +0.145 HD
ENDBRANCH   8  11
BRANCH   1  16
ATOM     16  C   UNL     1      -1.421  -4.588  -0.007  0.00  0.00    +0.095 C 
BRANCH  16  17
ATOM     17  C   UNL     1       0.061  -4.219  -0.086  0.00  0.00    -0.021 C 
BRANCH  17  22
ATOM     18  C   UNL     1       0.645   1.509   0.409  0.00  0.00    +0.044 C 
ATOM     19  C   UNL     1       0.493   0.015   0.280  0.00  0.00    -0.050 A 
ATOM     20  C   UNL     1       0.541  -0.579  -0.967  0.00  0.00    +0.003 A 
ATOM     21  C   UNL     1       0.401  -1.949  -1.085  0.00  0.00    +0.002 A 
ATOM     22  C   UNL     1       0.214  -2.725   0.043  0.00  0.00    -0.059 A 
ATOM     23  C   UNL     1       0.167  -2.131   1.290  0.00  0.00    +0.002 A 
ATOM     24  C   UNL     1       0.311  -0.761   1.409  0.00  0.00    +0.003 A 
ENDBRANCH  17  22
BRANCH  17  25
ATOM     25  N   UNL     1       0.789  -4.882   1.004  0.00  0.00    +0.382 N 
ATOM     26  C   UNL     1       0.717  -6.338   0.827  0.00  0.00    -0.096 C 
ATOM     27  C   UNL     1       2.195  -4.456   0.984  0.00  0.00    -0.096 C 
ATOM     28  H   UNL     1       0.374  -4.629   1.888  0.00  0.00    -0.082 HD
ENDBRANCH  17  25
ENDBRANCH  16  17
ENDBRANCH   1  16
TORSDOF 5
