REMARK  Name = ZINC20028232
REMARK  9 active torsions:
REMARK  status: ('A' for Active; 'I' for Inactive)
REMARK    1  A    between atoms: C_1  and  C_2
REMARK    2  A    between atoms: C_2  and  C_3
REMARK    3  A    between atoms: C_3  and  C_4
REMARK    4  A    between atoms: C_8  and  N_10
REMARK    5  A    between atoms: N_13  and  C_14
REMARK    6  A    between atoms: C_16  and  O_22
REMARK    7  A    between atoms: C_18  and  O_20
REMARK    8  A    between atoms: O_20  and  C_21
REMARK    9  A    between atoms: O_22  and  C_23
REMARK                            x       y       z     vdW  Elec       q    Type
REMARK                         _______ _______ _______ _____ _____    ______ ____
ROOT
ATOM      1  N   UNL     1      -1.055  -4.681  -2.345  0.00  0.00    -0.179 NA
ATOM      2  C   UNL     1      -1.170  -3.944  -3.437  0.00  0.00    +0.203 C 
ATOM      3  N   UNL     1      -1.352  -2.594  -3.333  0.00  0.00    -0.369 N 
ATOM      4  N   UNL     1      -1.108  -4.532  -4.669  0.00  0.00    -0.326 N 
ATOM      5  H   UNL     1      -0.874  -2.091  -2.655  0.00  0.00    +0.159 HD
ATOM      6  H   UNL     1      -1.156  -3.987  -5.470  0.00  0.00    +0.169 HD
ATOM      7  H   UNL     1      -1.959  -2.139  -3.937  0.00  0.00    +0.159 HD
ENDROOT
BRANCH   1  12
ATOM      8  C   UNL     1      -1.902  -2.300   0.121  0.00  0.00    +0.050 A 
ATOM      9  C   UNL     1      -1.673  -2.988   1.278  0.00  0.00    +0.093 A 
ATOM     10  C   UNL     1      -1.212  -4.314   1.204  0.00  0.00    +0.253 A 
ATOM     11  N   UNL     1      -1.011  -4.865  -0.011  0.00  0.00    -0.291 N 
ATOM     12  C   UNL     1      -1.256  -4.130  -1.138  0.00  0.00    +0.234 A 
ATOM     13  N   UNL     1      -1.696  -2.882  -1.055  0.00  0.00    -0.217 NA
ATOM     14  O   UNL     1      -0.998  -4.955   2.221  0.00  0.00    -0.268 OA
ATOM     15  H   UNL     1      -0.693  -5.779  -0.085  0.00  0.00    +0.172 HD
BRANCH   8  16
ATOM     16  C   UNL     1      -2.396  -0.877   0.178  0.00  0.00    +0.055 C 
BRANCH  16  18
ATOM     17  C   UNL     1      -1.708   1.524   0.135  0.00  0.00    +0.004 C 
ATOM     18  C   UNL     1      -1.206   0.080   0.077  0.00  0.00    +0.003 C 
ENDBRANCH  16  18
ENDBRANCH   8  16
ENDBRANCH   1  12
BRANCH   4  19
ATOM     19  C   UNL     1      -0.975  -5.921  -4.775  0.00  0.00    +0.049 A 
ATOM     20  C   UNL     1      -1.621  -6.752  -3.870  0.00  0.00    +0.071 A 
ATOM     21  C   UNL     1      -1.489  -8.128  -3.976  0.00  0.00    +0.126 A 
ATOM     22  C   UNL     1      -0.711  -8.674  -4.986  0.00  0.00    +0.091 A 
ATOM     23  C   UNL     1      -0.064  -7.845  -5.890  0.00  0.00    +0.126 A 
ATOM     24  C   UNL     1      -0.200  -6.468  -5.789  0.00  0.00    +0.071 A 
BRANCH  23  25
ATOM     25  O   UNL     1       0.698  -8.381  -6.879  0.00  0.00    -0.495 OA
ATOM     26  C   UNL     1       0.789  -9.806  -6.927  0.00  0.00    +0.277 C 
ENDBRANCH  23  25
BRANCH  21  27
ATOM     27  O   UNL     1      -2.121  -8.941  -3.090  0.00  0.00    -0.495 OA
ATOM     28  C   UNL     1      -1.941 -10.349  -3.259  0.00  0.00    +0.277 C 
ENDBRANCH  21  27
ENDBRANCH   4  19
TORSDOF 6
