REMARK  Name = ZINC19948642
REMARK  4 active torsions:
REMARK  status: ('A' for Active; 'I' for Inactive)
REMARK    1  A    between atoms: C_1  and  C_2
REMARK    2  A    between atoms: C_5  and  O_19
REMARK    3  A    between atoms: C_6  and  N_8
REMARK    4  A    between atoms: C_12  and  C_18
REMARK                            x       y       z     vdW  Elec       q    Type
REMARK                         _______ _______ _______ _____ _____    ______ ____
ROOT
ATOM      1  N   UNL     1       2.404   1.391  -0.013  0.00  0.00    -0.296 N 
ATOM      2  C   UNL     1       3.587   2.099  -0.125  0.00  0.00    +0.134 A 
ATOM      3  C   UNL     1       4.827   1.413  -0.248  0.00  0.00    +0.048 A 
ATOM      4  C   UNL     1       5.102  -0.012  -0.279  0.00  0.00    +0.024 A 
ATOM      5  C   UNL     1       6.370  -0.433  -0.403  0.00  0.00    -0.011 A 
ATOM      6  S   UNL     1       7.304   1.083  -0.489  0.00  0.00    -0.074 S 
ATOM      7  C   UNL     1       5.967   2.240  -0.355  0.00  0.00    +0.113 A 
ATOM      8  N   UNL     1       5.867   3.555  -0.342  0.00  0.00    -0.228 NA
ATOM      9  C   UNL     1       4.687   4.133  -0.226  0.00  0.00    +0.224 A 
ATOM     10  N   UNL     1       3.578   3.422  -0.125  0.00  0.00    -0.220 NA
ATOM     11  C   UNL     1       6.882  -1.849  -0.456  0.00  0.00    +0.051 C 
ATOM     12  H   UNL     1       2.425   0.295   0.080  0.00  0.00    +0.154 HD
ENDROOT
BRANCH   1  18
ATOM     13  C   UNL     1      -0.246   5.331  -1.287  0.00  0.00    +0.044 C 
ATOM     14  C   UNL     1      -0.135   3.980  -0.628  0.00  0.00    -0.048 A 
ATOM     15  C   UNL     1      -1.244   3.412  -0.030  0.00  0.00    +0.007 A 
ATOM     16  C   UNL     1      -1.150   2.170   0.572  0.00  0.00    +0.047 A 
ATOM     17  C   UNL     1       0.061   1.497   0.585  0.00  0.00    +0.138 A 
ATOM     18  C   UNL     1       1.179   2.069  -0.019  0.00  0.00    +0.075 A 
ATOM     19  C   UNL     1       1.075   3.312  -0.625  0.00  0.00    +0.030 A 
BRANCH  17  20
ATOM     20  O   UNL     1       0.156   0.278   1.181  0.00  0.00    -0.505 OA
ATOM     21  H   UNL     1       1.118  -0.256   1.190  0.00  0.00    +0.292 HD
ENDBRANCH  17  20
ENDBRANCH   1  18
TORSDOF 2
