REMARK  Name = ZINC40988664
REMARK  11 active torsions:
REMARK  status: ('A' for Active; 'I' for Inactive)
REMARK    1  A    between atoms: C_1  and  N_2
REMARK    2  A    between atoms: N_2  and  C_3
REMARK    3  A    between atoms: N_2  and  C_4
REMARK    4  A    between atoms: C_7  and  C_10
REMARK    5  A    between atoms: C_10  and  C_12
REMARK    6  A    between atoms: C_10  and  N_33
REMARK    7  A    between atoms: C_12  and  N_13
REMARK    8  A    between atoms: C_14  and  C_16
REMARK    9  A    between atoms: N_19  and  C_21
REMARK   10  A    between atoms: N_33  and  C_34
REMARK   11  A    between atoms: N_33  and  C_35
REMARK                            x       y       z     vdW  Elec       q    Type
REMARK                         _______ _______ _______ _____ _____    ______ ____
ROOT
ATOM      1  N   UNL     1      -0.699  -3.396  -7.033  0.00  0.00    -0.311 N 
ATOM      2  C   UNL     1      -1.686  -3.548  -7.938  0.00  0.00    +0.264 C 
ATOM      3  O   UNL     1      -2.838  -3.317  -7.627  0.00  0.00    -0.268 OA
ATOM      4  H   UNL     1       0.220  -3.580  -7.281  0.00  0.00    +0.149 HD
ENDROOT
BRANCH   2   5
ATOM      5  C   UNL     1      -1.367  -3.996  -9.309  0.00  0.00    +0.150 A 
ATOM      6  C   UNL     1      -2.278  -4.195 -10.360  0.00  0.00    +0.006 A 
ATOM      7  C   UNL     1      -1.540  -4.605 -11.421  0.00  0.00    +0.044 A 
ATOM      8  N   UNL     1      -0.258  -4.644 -11.021  0.00  0.00    -0.263 N 
ATOM      9  N   UNL     1      -0.169  -4.282  -9.788  0.00  0.00    -0.166 NA
ATOM     10  C   UNL     1      -2.121  -4.939 -12.770  0.00  0.00    +0.055 C 
ATOM     11  C   UNL     1      -3.633  -5.141 -12.608  0.00  0.00    +0.006 C 
ATOM     12  C   UNL     1      -4.231  -3.959 -11.841  0.00  0.00    +0.005 C 
ATOM     13  C   UNL     1      -3.771  -4.010 -10.379  0.00  0.00    +0.039 C 
BRANCH   8  14
ATOM     14  C   UNL     1       0.873  -5.036 -11.866  0.00  0.00    +0.130 C 
ATOM     15  C   UNL     1       1.874  -3.872 -11.950  0.00  0.00    +0.051 C 
ATOM     16  C   UNL     1       3.192  -4.411 -12.578  0.00  0.00    +0.168 C 
ATOM     17  S   UNL     1       3.321  -6.046 -11.738  0.00  0.00    -0.029 S 
ATOM     18  O   UNL     1       4.107  -5.901 -10.563  0.00  0.00    -0.174 OA
ATOM     19  O   UNL     1       3.675  -7.032 -12.698  0.00  0.00    -0.174 OA
ATOM     20  C   UNL     1       1.563  -6.280 -11.256  0.00  0.00    +0.192 C 
ENDBRANCH   8  14
ENDBRANCH   2   5
BRANCH   1  21
ATOM     21  C   UNL     1      -1.016  -2.952  -5.673  0.00  0.00    +0.094 C 
BRANCH  21  22
ATOM     22  C   UNL     1       0.281  -2.770  -4.881  0.00  0.00    -0.021 C 
BRANCH  22  26
ATOM     23  C   UNL     1       2.231  -6.549  -4.451  0.00  0.00    +0.029 A 
ATOM     24  C   UNL     1       2.657  -5.652  -5.423  0.00  0.00    +0.023 A 
ATOM     25  C   UNL     1       2.024  -4.432  -5.560  0.00  0.00    +0.004 A 
ATOM     26  C   UNL     1       0.969  -4.103  -4.730  0.00  0.00    -0.059 A 
ATOM     27  C   UNL     1       0.542  -4.992  -3.761  0.00  0.00    +0.004 A 
ATOM     28  C   UNL     1       1.167  -6.216  -3.623  0.00  0.00    +0.023 A 
BRANCH  23  30
ATOM     29  C   UNL     1       2.414  -8.730  -3.289  0.00  0.00    +0.129 C 
ATOM     30  N   UNL     1       2.869  -7.784  -4.311  0.00  0.00    -0.336 N 
ATOM     31  C   UNL     1       3.991  -8.132  -5.185  0.00  0.00    +0.129 C 
ENDBRANCH  23  30
ENDBRANCH  22  26
BRANCH  22  32
ATOM     32  N   UNL     1      -0.028  -2.225  -3.553  0.00  0.00    +0.382 N 
ATOM     33  C   UNL     1       1.212  -2.093  -2.777  0.00  0.00    -0.096 C 
ATOM     34  C   UNL     1      -0.657  -0.906  -3.699  0.00  0.00    -0.096 C 
ATOM     35  H   UNL     1      -0.661  -2.848  -3.073  0.00  0.00    -0.082 HD
ENDBRANCH  22  32
ENDBRANCH  21  22
ENDBRANCH   1  21
TORSDOF 7
