REMARK  Name = ZINC37988093
REMARK  5 active torsions:
REMARK  status: ('A' for Active; 'I' for Inactive)
REMARK    1  A    between atoms: C_4  and  S_15
REMARK    2  A    between atoms: C_5  and  N_7
REMARK    3  A    between atoms: N_7  and  C_8
REMARK    4  A    between atoms: C_8  and  C_9
REMARK    5  A    between atoms: S_15  and  C_18
REMARK                            x       y       z     vdW  Elec       q    Type
REMARK                         _______ _______ _______ _____ _____    ______ ____
ROOT
ATOM      1  C   UNL     1      -0.017   1.377   0.010  0.00  0.00    +0.002 A 
ATOM      2  C   UNL     1       1.171   2.086   0.002  0.00  0.00    +0.002 A 
ATOM      3  C   UNL     1       2.380   1.416  -0.013  0.00  0.00    +0.029 A 
ATOM      4  C   UNL     1       2.406   0.035  -0.021  0.00  0.00    +0.118 A 
ATOM      5  C   UNL     1       1.215  -0.681  -0.013  0.00  0.00    +0.053 A 
ATOM      6  C   UNL     1       0.002  -0.004   0.002  0.00  0.00    +0.025 A 
ENDROOT
BRANCH   4   7
ATOM      7  S   UNL     1       3.947  -0.818  -0.042  0.00  0.00    +0.093 S 
ATOM      8  O   UNL     1       3.835  -1.744  -1.113  0.00  0.00    -0.161 OA
ATOM      9  O   UNL     1       4.930   0.208  -0.071  0.00  0.00    -0.161 OA
BRANCH   7  10
ATOM     10  C   UNL     1       4.013  -1.701   1.542  0.00  0.00    +0.526 C 
ATOM     11  F   UNL     1       2.933  -2.586   1.628  0.00  0.00    -0.150 F 
ATOM     12  F   UNL     1       5.211  -2.418   1.627  0.00  0.00    -0.150 F 
ATOM     13  F   UNL     1       3.945  -0.779   2.592  0.00  0.00    -0.150 F 
ENDBRANCH   7  10
ENDBRANCH   4   7
BRANCH   5  14
ATOM     14  N   UNL     1       1.238  -2.077  -0.021  0.00  0.00    -0.342 N 
ATOM     15  H   UNL     1       2.086  -2.549  -0.032  0.00  0.00    +0.146 HD
BRANCH  14  16
ATOM     16  C   UNL     1      -0.019  -2.830  -0.012  0.00  0.00    +0.107 C 
BRANCH  16  17
ATOM     17  C   UNL     1       0.285  -4.330  -0.023  0.00  0.00    +0.034 C 
ATOM     18  C   UNL     1      -1.026  -5.160   0.042  0.00  0.00    +0.035 C 
ATOM     19  C   UNL     1      -0.589  -6.457  -0.684  0.00  0.00    +0.160 C 
ATOM     20  O   UNL     1       0.298  -6.023  -1.727  0.00  0.00    -0.379 OA
ATOM     21  C   UNL     1       0.884  -4.759  -1.380  0.00  0.00    +0.165 C 
ENDBRANCH  16  17
ENDBRANCH  14  16
ENDBRANCH   5  14
TORSDOF 5
