REMARK  Name = ZINC62173696
REMARK  7 active torsions:
REMARK  status: ('A' for Active; 'I' for Inactive)
REMARK    1  A    between atoms: C_1  and  C_2
REMARK    2  A    between atoms: C_4  and  C_25
REMARK    3  A    between atoms: C_8  and  O_24
REMARK    4  A    between atoms: C_10  and  N_14
REMARK    5  A    between atoms: C_19  and  C_21
REMARK    6  A    between atoms: C_21  and  C_22
REMARK    7  A    between atoms: C_22  and  O_23
REMARK                            x       y       z     vdW  Elec       q    Type
REMARK                         _______ _______ _______ _____ _____    ______ ____
ROOT
ATOM      1  C   UNL     1      -0.693   0.562  -1.454  0.00  0.00    +0.044 C 
ATOM      2  C   UNL     1      -0.623  -0.906  -1.118  0.00  0.00    -0.050 A 
ATOM      3  C   UNL     1      -0.747  -1.851  -2.120  0.00  0.00    +0.010 A 
ATOM      4  C   UNL     1      -0.685  -3.194  -1.811  0.00  0.00    -0.008 A 
ATOM      5  C   UNL     1      -0.497  -3.602  -0.494  0.00  0.00    +0.129 A 
ATOM      6  C   UNL     1      -0.370  -2.654   0.506  0.00  0.00    +0.022 A 
ATOM      7  C   UNL     1      -0.430  -1.307   0.189  0.00  0.00    +0.013 A 
ATOM      8  C   UNL     1      -0.155  -3.053   1.944  0.00  0.00    +0.138 C 
ATOM      9  C   UNL     1      -0.546  -4.520   2.136  0.00  0.00    +0.004 C 
ATOM     10  C   UNL     1       0.109  -5.344   1.021  0.00  0.00    +0.217 C 
ATOM     11  O   UNL     1      -0.447  -4.933  -0.229  0.00  0.00    -0.493 OA
ATOM     12  C   UNL     1      -0.822  -4.223  -2.904  0.00  0.00    +0.047 C 
ENDROOT
BRANCH   9  13
ATOM     13  N   UNL     1      -0.073  -4.991   3.445  0.00  0.00    +0.388 N 
ATOM     14  C   UNL     1       1.370  -4.748   3.558  0.00  0.00    -0.078 C 
ATOM     15  C   UNL     1       1.883  -5.310   4.885  0.00  0.00    -0.019 C 
ATOM     16  C   UNL     1       1.156  -4.618   6.042  0.00  0.00    -0.003 C 
ATOM     17  C   UNL     1      -0.353  -4.815   5.873  0.00  0.00    -0.015 C 
ATOM     18  C   UNL     1      -0.784  -4.271   4.509  0.00  0.00    -0.066 C 
ATOM     19  H   UNL     1      -0.254  -5.980   3.531  0.00  0.00    -0.081 HD
BRANCH  18  20
ATOM     20  C   UNL     1      -2.292  -4.465   4.335  0.00  0.00    +0.012 C 
BRANCH  20  21
ATOM     21  C   UNL     1      -3.035  -3.656   5.400  0.00  0.00    +0.154 C 
BRANCH  21  22
ATOM     22  O   UNL     1      -4.442  -3.740   5.165  0.00  0.00    -0.395 OA
ATOM     23  H   UNL     1      -4.978  -3.249   5.803  0.00  0.00    +0.209 HD
ENDBRANCH  21  22
ENDBRANCH  20  21
ENDBRANCH  18  20
ENDBRANCH   9  13
BRANCH   8  24
ATOM     24  O   UNL     1      -0.961  -2.231   2.791  0.00  0.00    -0.389 OA
ATOM     25  H   UNL     1      -0.765  -1.286   2.724  0.00  0.00    +0.210 HD
ENDBRANCH   8  24
TORSDOF 5
