REMARK  Name = ZINC43409730
REMARK  4 active torsions:
REMARK  status: ('A' for Active; 'I' for Inactive)
REMARK    1  A    between atoms: C_4  and  O_8
REMARK    2  A    between atoms: C_5  and  N_7
REMARK    3  A    between atoms: O_8  and  C_9
REMARK    4  A    between atoms: C_10  and  C_19
REMARK                            x       y       z     vdW  Elec       q    Type
REMARK                         _______ _______ _______ _____ _____    ______ ____
ROOT
ATOM      1  C   UNL     1       4.730   0.114  -0.147  0.00  0.00    +0.238 A 
ATOM      2  C   UNL     1       5.971  -0.528  -0.279  0.00  0.00    +0.114 A 
ATOM      3  C   UNL     1       7.120   0.260  -0.387  0.00  0.00    +0.029 A 
ATOM      4  C   UNL     1       6.989   1.643  -0.364  0.00  0.00    -0.025 A 
ATOM      5  C   UNL     1       5.737   2.203  -0.239  0.00  0.00    +0.048 A 
ATOM      6  N   UNL     1       4.661   1.430  -0.138  0.00  0.00    -0.216 NA
ATOM      7  C   UNL     1       5.520   3.696  -0.225  0.00  0.00    +0.056 C 
ATOM      8  C   UNL     1       6.825   4.425   0.084  0.00  0.00    +0.006 C 
ATOM      9  C   UNL     1       7.909   3.905  -0.868  0.00  0.00    +0.005 C 
ATOM     10  C   UNL     1       8.244   2.468  -0.475  0.00  0.00    +0.037 C 
ENDROOT
BRANCH   2  11
ATOM     11  C   UNL     1       6.058  -1.957  -0.301  0.00  0.00    +0.105 C 
ATOM     12  N   UNL     1       6.128  -3.091  -0.319  0.00  0.00    -0.191 NA
ENDBRANCH   2  11
BRANCH   1  13
ATOM     13  O   UNL     1       3.598  -0.622  -0.036  0.00  0.00    -0.435 OA
BRANCH  13  17
ATOM     14  C   UNL     1      -0.010   1.384   0.124  0.00  0.00    +0.002 A 
ATOM     15  C   UNL     1       0.635   1.022   1.292  0.00  0.00    +0.004 A 
ATOM     16  C   UNL     1       1.842   0.351   1.241  0.00  0.00    +0.048 A 
ATOM     17  C   UNL     1       2.410   0.038   0.016  0.00  0.00    +0.151 A 
ATOM     18  C   UNL     1       1.761   0.403  -1.162  0.00  0.00    +0.068 A 
ATOM     19  C   UNL     1       0.549   1.076  -1.102  0.00  0.00    +0.026 A 
BRANCH  18  20
ATOM     20  N   UNL     1       2.329   0.090  -2.401  0.00  0.00    -0.355 N 
ATOM     21  H   UNL     1       3.176  -0.380  -2.442  0.00  0.00    +0.142 HD
ATOM     22  H   UNL     1       1.876   0.344  -3.220  0.00  0.00    +0.142 HD
ENDBRANCH  18  20
ENDBRANCH  13  17
ENDBRANCH   1  13
TORSDOF 4
