REMARK  Name = ZINC39654556
REMARK  7 active torsions:
REMARK  status: ('A' for Active; 'I' for Inactive)
REMARK    1  A    between atoms: C_1  and  C_2
REMARK    2  A    between atoms: C_2  and  C_3
REMARK    3  A    between atoms: C_6  and  C_9
REMARK    4  A    between atoms: C_9  and  C_10
REMARK    5  A    between atoms: C_10  and  N_11
REMARK    6  A    between atoms: C_12  and  C_14
REMARK    7  A    between atoms: C_25  and  C_27
REMARK                            x       y       z     vdW  Elec       q    Type
REMARK                         _______ _______ _______ _____ _____    ______ ____
ROOT
ATOM      1  C   UNL     1     -10.222  -0.998   0.084  0.00  0.00    +0.100 C 
ATOM      2  C   UNL     1     -10.549  -1.692  -1.257  0.00  0.00    +0.121 C 
ATOM      3  N   UNL     1     -11.961  -1.334  -1.530  0.00  0.00    -0.300 N 
ATOM      4  C   UNL     1     -12.071   0.082  -1.104  0.00  0.00    +0.115 C 
ATOM      5  C   UNL     1     -11.222   0.166   0.180  0.00  0.00    -0.004 C 
ATOM      6  C   UNL     1     -12.109  -0.000   1.411  0.00  0.00    -0.010 C 
ATOM      7  C   UNL     1     -13.057   1.198   1.516  0.00  0.00    -0.082 C 
ATOM      8  N   UNL     1     -12.274   2.436   1.616  0.00  0.00    +0.379 N 
ATOM      9  C   UNL     1     -11.494   2.635   0.389  0.00  0.00    -0.082 C 
ATOM     10  C   UNL     1     -10.480   1.498   0.236  0.00  0.00    -0.010 C 
ATOM     11  C   UNL     1     -12.927  -2.118  -2.047  0.00  0.00    +0.219 C 
ATOM     12  O   UNL     1     -14.044  -1.676  -2.212  0.00  0.00    -0.275 OA
ATOM     13  H   UNL     1     -12.899   3.217   1.747  0.00  0.00    -0.086 HD
ATOM     14  H   UNL     1     -11.648   2.373   2.405  0.00  0.00    -0.086 HD
ENDROOT
BRANCH  11  15
ATOM     15  C   UNL     1     -12.619  -3.545  -2.422  0.00  0.00    +0.079 C 
ATOM     16  C   UNL     1     -13.877  -4.211  -2.993  0.00  0.00    +0.017 C 
ATOM     17  C   UNL     1     -13.587  -5.700  -3.197  0.00  0.00    +0.027 C 
ATOM     18  C   UNL     1     -12.295  -5.878  -3.939  0.00  0.00    -0.031 C 
ATOM     19  C   UNL     1     -11.397  -4.954  -4.065  0.00  0.00    -0.030 C 
ATOM     20  C   UNL     1     -11.524  -3.572  -3.490  0.00  0.00    +0.039 C 
ENDBRANCH  11  15
BRANCH   1  22
ATOM     21  N   UNL     1      -8.121  -0.367   1.228  0.00  0.00    -0.315 N 
ATOM     22  C   UNL     1      -8.808  -0.475   0.073  0.00  0.00    +0.218 C 
ATOM     23  O   UNL     1      -8.289  -0.152  -0.974  0.00  0.00    -0.275 OA
ATOM     24  H   UNL     1      -8.537  -0.625   2.065  0.00  0.00    +0.149 HD
BRANCH  21  25
ATOM     25  C   UNL     1      -6.747   0.141   1.217  0.00  0.00    +0.109 C 
BRANCH  25  26
ATOM     26  C   UNL     1      -6.201   0.163   2.646  0.00  0.00    +0.054 C 
BRANCH  26  30
ATOM     27  C   UNL     1      -2.194   1.644   2.618  0.00  0.00    -0.048 A 
ATOM     28  C   UNL     1      -3.254   2.520   2.762  0.00  0.00    +0.004 A 
ATOM     29  C   UNL     1      -4.550   2.041   2.771  0.00  0.00    +0.004 A 
ATOM     30  C   UNL     1      -4.787   0.685   2.635  0.00  0.00    -0.046 A 
ATOM     31  C   UNL     1      -3.728  -0.190   2.491  0.00  0.00    +0.004 A 
ATOM     32  C   UNL     1      -2.431   0.289   2.478  0.00  0.00    +0.004 A 
BRANCH  27  34
ATOM     33  C   UNL     1      -0.371   2.504   1.173  0.00  0.00    +0.009 C 
ATOM     34  C   UNL     1      -0.781   2.166   2.608  0.00  0.00    +0.032 C 
ENDBRANCH  27  34
ENDBRANCH  26  30
ENDBRANCH  25  26
ENDBRANCH  21  25
ENDBRANCH   1  22
TORSDOF 6
