REMARK  Name = ZINC57944911
REMARK  3 active torsions:
REMARK  status: ('A' for Active; 'I' for Inactive)
REMARK    1  A    between atoms: C_1  and  C_2
REMARK    2  A    between atoms: C_2  and  C_3
REMARK    3  A    between atoms: C_2  and  C_4
REMARK                            x       y       z     vdW  Elec       q    Type
REMARK                         _______ _______ _______ _____ _____    ______ ____
ROOT
ATOM      1  C   UNL     1      -1.412  -0.526   0.013  0.00  0.00    -0.044 A 
ATOM      2  C   UNL     1      -2.245  -0.196   1.062  0.00  0.00    +0.006 A 
ATOM      3  C   UNL     1      -3.556  -0.643   1.127  0.00  0.00    +0.024 A 
ATOM      4  C   UNL     1      -4.007  -1.453   0.084  0.00  0.00    +0.041 A 
ATOM      5  C   UNL     1      -3.149  -1.783  -0.974  0.00  0.00    +0.027 A 
ATOM      6  C   UNL     1      -1.850  -1.324  -1.038  0.00  0.00    +0.013 A 
ATOM      7  C   UNL     1      -3.940  -2.655  -1.893  0.00  0.00    +0.221 C 
ATOM      8  C   UNL     1      -5.300  -2.758  -1.247  0.00  0.00    +0.267 C 
ATOM      9  O   UNL     1      -6.256  -3.374  -1.669  0.00  0.00    -0.271 OA
ATOM     10  N   UNL     1      -5.249  -2.033  -0.108  0.00  0.00    -0.281 N 
ATOM     11  N   UNL     1      -3.322  -3.981  -2.020  0.00  0.00    -0.283 N 
ATOM     12  C   UNL     1      -2.322  -4.169  -2.943  0.00  0.00    +0.183 C 
ATOM     13  N   UNL     1      -2.268  -3.453  -4.051  0.00  0.00    -0.184 NA
ATOM     14  C   UNL     1      -3.193  -2.485  -4.251  0.00  0.00    +0.214 A 
ATOM     15  N   UNL     1      -4.042  -2.082  -3.233  0.00  0.00    -0.276 N 
ATOM     16  C   UNL     1      -4.892  -1.135  -3.754  0.00  0.00    +0.075 A 
ATOM     17  C   UNL     1      -5.968  -0.417  -3.250  0.00  0.00    +0.077 A 
ATOM     18  C   UNL     1      -6.634   0.485  -4.056  0.00  0.00    +0.164 A 
ATOM     19  C   UNL     1      -6.228   0.687  -5.372  0.00  0.00    +0.164 A 
ATOM     20  C   UNL     1      -5.160  -0.017  -5.890  0.00  0.00    +0.077 A 
ATOM     21  C   UNL     1      -4.484  -0.942  -5.088  0.00  0.00    +0.069 A 
ATOM     22  N   UNL     1      -3.438  -1.781  -5.325  0.00  0.00    -0.324 N 
ATOM     23  O   UNL     1      -6.896   1.586  -6.154  0.00  0.00    -0.488 OA
ATOM     24  C   UNL     1      -8.233   1.230  -6.513  0.00  0.00    +0.232 C 
ATOM     25  C   UNL     1      -9.210   1.626  -5.417  0.00  0.00    +0.082 C 
ATOM     26  C   UNL     1      -8.972   0.859  -4.126  0.00  0.00    +0.232 C 
ATOM     27  O   UNL     1      -7.699   1.186  -3.567  0.00  0.00    -0.488 OA
ATOM     28  N   UNL     1      -1.363  -5.117  -2.709  0.00  0.00    -0.331 N 
ATOM     29  H   UNL     1      -5.995  -1.931   0.503  0.00  0.00    +0.155 HD
ATOM     30  H   UNL     1      -3.615  -4.715  -1.458  0.00  0.00    +0.152 HD
ATOM     31  H   UNL     1      -1.393  -5.648  -1.897  0.00  0.00    +0.145 HD
ATOM     32  H   UNL     1      -0.653  -5.258  -3.354  0.00  0.00    +0.145 HD
ATOM     33  H   UNL     1      -2.950  -1.846  -6.160  0.00  0.00    +0.169 HD
ENDROOT
BRANCH   1  35
ATOM     34  C   UNL     1      -0.019   1.526   0.010  0.00  0.00    +0.012 C 
ATOM     35  C   UNL     1       0.002  -0.004   0.002  0.00  0.00    +0.013 C 
ATOM     36  C   UNL     1       0.742  -0.511   1.242  0.00  0.00    +0.012 C 
ENDBRANCH   1  35
TORSDOF 1
