REMARK  Name = ZINC66135687
REMARK  5 active torsions:
REMARK  status: ('A' for Active; 'I' for Inactive)
REMARK    1  A    between atoms: C_1  and  C_2
REMARK    2  A    between atoms: C_2  and  C_3
REMARK    3  A    between atoms: C_3  and  C_4
REMARK    4  A    between atoms: C_5  and  C_12
REMARK    5  A    between atoms: C_6  and  C_11
REMARK                            x       y       z     vdW  Elec       q    Type
REMARK                         _______ _______ _______ _____ _____    ______ ____
ROOT
ATOM      1  C   UNL     1       0.739  -2.004  -1.265  0.00  0.00    +0.059 A 
ATOM      2  C   UNL     1       1.797  -2.704  -0.670  0.00  0.00    +0.079 A 
ATOM      3  C   UNL     1       1.768  -4.105  -0.704  0.00  0.00    +0.056 A 
ATOM      4  N   UNL     1       0.753  -4.710  -1.292  0.00  0.00    -0.219 NA
ATOM      5  C   UNL     1      -0.230  -4.011  -1.844  0.00  0.00    +0.213 A 
ATOM      6  N   UNL     1      -0.242  -2.684  -1.828  0.00  0.00    -0.219 NA
ATOM      7  N   UNL     1      -1.272  -4.683  -2.447  0.00  0.00    -0.327 N 
ATOM      8  C   UNL     1       2.880  -4.908  -0.080  0.00  0.00    +0.066 C 
ATOM      9  H   UNL     1      -1.279  -5.653  -2.464  0.00  0.00    +0.145 HD
ATOM     10  H   UNL     1      -1.998  -4.186  -2.856  0.00  0.00    +0.145 HD
ENDROOT
BRANCH   2  11
ATOM     11  C   UNL     1       2.912  -1.986  -0.025  0.00  0.00    +0.245 C 
ATOM     12  O   UNL     1       2.850  -1.701   1.156  0.00  0.00    -0.270 OA
ATOM     13  N   UNL     1       4.000  -1.645  -0.744  0.00  0.00    -0.325 N 
ATOM     14  H   UNL     1       4.050  -1.872  -1.685  0.00  0.00    +0.145 HD
ATOM     15  H   UNL     1       4.733  -1.172  -0.319  0.00  0.00    +0.145 HD
ENDBRANCH   2  11
BRANCH   1  16
ATOM     16  C   UNL     1       0.718  -0.497  -1.257  0.00  0.00    +0.056 C 
BRANCH  16  18
ATOM     17  C   UNL     1      -0.019   1.526   0.010  0.00  0.00    +0.004 C 
ATOM     18  C   UNL     1       0.002  -0.004   0.002  0.00  0.00    +0.003 C 
ENDBRANCH  16  18
ENDBRANCH   1  16
TORSDOF 3
