REMARK  Name = ZINC35361908
REMARK  10 active torsions:
REMARK  status: ('A' for Active; 'I' for Inactive)
REMARK    1  A    between atoms: C_1  and  C_2
REMARK    2  A    between atoms: C_2  and  C_4
REMARK    3  A    between atoms: C_10  and  C_42
REMARK    4  A    between atoms: N_22  and  O_23
REMARK    5  A    between atoms: O_23  and  C_24
REMARK    6  A    between atoms: C_24  and  C_25
REMARK    7  A    between atoms: N_27  and  C_28
REMARK    8  A    between atoms: C_28  and  C_29
REMARK    9  A    between atoms: C_32  and  C_35
REMARK   10  A    between atoms: C_40  and  C_41
REMARK                            x       y       z     vdW  Elec       q    Type
REMARK                         _______ _______ _______ _____ _____    ______ ____
ROOT
ATOM      1  C   UNL     1       0.072  -0.719  -1.289  0.00  0.00    +0.061 C 
ATOM      2  C   UNL     1      -1.387  -0.865  -1.795  0.00  0.00    +0.012 C 
ATOM      3  C   UNL     1      -1.732  -2.378  -1.704  0.00  0.00    +0.005 C 
ATOM      4  C   UNL     1      -0.696  -2.893  -0.690  0.00  0.00    -0.001 C 
ATOM      5  C   UNL     1       0.581  -2.167  -1.169  0.00  0.00    -0.019 C 
ATOM      6  C   UNL     1       1.706  -2.411  -0.204  0.00  0.00    +0.008 C 
ATOM      7  C   UNL     1       1.838  -3.894   0.155  0.00  0.00    +0.005 C 
ATOM      8  C   UNL     1       0.934  -4.814  -0.646  0.00  0.00    +0.002 C 
ATOM      9  C   UNL     1      -0.525  -4.383  -0.615  0.00  0.00    -0.003 C 
ATOM     10  C   UNL     1      -1.347  -5.110  -1.675  0.00  0.00    +0.008 C 
ATOM     11  C   UNL     1      -0.869  -6.555  -1.827  0.00  0.00    +0.031 C 
ATOM     12  C   UNL     1      -0.205  -6.989  -0.542  0.00  0.00    -0.062 C 
ATOM     13  C   UNL     1      -0.701  -7.989   0.168  0.00  0.00    +0.026 C 
ATOM     14  C   UNL     1      -0.071  -8.414   1.424  0.00  0.00    +0.080 C 
ATOM     15  N   UNL     1      -0.541  -9.437   2.068  0.00  0.00    -0.089 NA
ATOM     16  C   UNL     1       1.117  -7.664   1.969  0.00  0.00    +0.059 C 
ATOM     17  C   UNL     1       1.123  -6.236   1.420  0.00  0.00    +0.017 C 
ATOM     18  C   UNL     1       1.036  -6.251  -0.100  0.00  0.00    -0.007 C 
ATOM     19  C   UNL     1       2.273  -6.923  -0.700  0.00  0.00    +0.016 C 
ATOM     20  C   UNL     1       0.989  -2.591  -2.587  0.00  0.00    +0.012 C 
ENDROOT
BRANCH   1  22
ATOM     21  C   UNL     1       0.145   1.511   0.055  0.00  0.00    +0.086 C 
ATOM     22  C   UNL     1       0.091   0.005   0.025  0.00  0.00    +0.134 C 
ATOM     23  O   UNL     1       0.064  -0.618   1.058  0.00  0.00    -0.297 OA
ENDBRANCH   1  22
BRANCH  15  24
ATOM     24  O   UNL     1       0.064  -9.850   3.279  0.00  0.00    -0.384 OA
BRANCH  24  25
ATOM     25  C   UNL     1      -0.557 -10.988   3.881  0.00  0.00    +0.358 C 
BRANCH  25  26
ATOM     26  C   UNL     1       0.164 -11.339   5.156  0.00  0.00    +0.254 C 
ATOM     27  O   UNL     1       1.116 -10.678   5.516  0.00  0.00    -0.272 OA
ATOM     28  N   UNL     1      -0.248 -12.385   5.898  0.00  0.00    -0.308 N 
ATOM     29  H   UNL     1      -1.010 -12.913   5.611  0.00  0.00    +0.149 HD
BRANCH  28  30
ATOM     30  C   UNL     1       0.453 -12.726   7.139  0.00  0.00    +0.139 C 
BRANCH  30  31
ATOM     31  C   UNL     1      -0.202 -13.926   7.772  0.00  0.00    -0.030 A 
ATOM     32  C   UNL     1      -1.239 -13.750   8.672  0.00  0.00    +0.006 A 
ATOM     33  C   UNL     1      -1.842 -14.844   9.256  0.00  0.00    +0.015 A 
ATOM     34  C   UNL     1      -1.404 -16.132   8.938  0.00  0.00    +0.063 A 
ATOM     35  C   UNL     1      -0.357 -16.302   8.029  0.00  0.00    +0.015 A 
ATOM     36  C   UNL     1       0.233 -15.199   7.448  0.00  0.00    +0.006 A 
BRANCH  34  37
ATOM     37  C   UNL     1      -2.045 -17.307   9.559  0.00  0.00    +0.387 C 
ATOM     38  O   UNL     1      -2.961 -17.155  10.355  0.00  0.00    -0.241 OA
ATOM     39  O   UNL     1      -1.659 -18.433   9.278  0.00  0.00    -0.241 OA
ENDBRANCH  34  37
ENDBRANCH  30  31
ENDBRANCH  28  30
ENDBRANCH  25  26
ENDBRANCH  24  25
ENDBRANCH  15  24
TORSDOF 7
