REMARK  Name = ZINC12497918
REMARK  10 active torsions:
REMARK  status: ('A' for Active; 'I' for Inactive)
REMARK    1  A    between atoms: C_1  and  C_2
REMARK    2  A    between atoms: C_2  and  C_3
REMARK    3  A    between atoms: C_3  and  C_4
REMARK    4  A    between atoms: C_4  and  C_33
REMARK    5  A    between atoms: C_9  and  C_11
REMARK    6  A    between atoms: C_14  and  O_17
REMARK    7  A    between atoms: N_20  and  C_23
REMARK    8  A    between atoms: C_33  and  O_35
REMARK    9  A    between atoms: O_35  and  C_36
REMARK   10  A    between atoms: C_36  and  C_37
REMARK                            x       y       z     vdW  Elec       q    Type
REMARK                         _______ _______ _______ _____ _____    ______ ____
ROOT
ATOM      1  C   UNL     1       0.002  -0.004   0.002  0.00  0.00    +0.044 C 
ATOM      2  C   UNL     1       1.459  -0.390   0.192  0.00  0.00    +0.086 C 
ATOM      3  C   UNL     1       2.121   0.816  -0.582  0.00  0.00    +0.077 C 
ATOM      4  C   UNL     1       1.407   1.968  -0.001  0.00  0.00    -0.027 C 
ATOM      5  C   UNL     1       3.470   0.332  -0.758  0.00  0.00    +0.229 C 
ATOM      6  O   UNL     1       4.493   0.982  -0.752  0.00  0.00    -0.275 OA
ATOM      7  N   UNL     1       3.342  -1.023  -0.934  0.00  0.00    -0.210 N 
ATOM      8  C   UNL     1       2.097  -1.483  -0.604  0.00  0.00    +0.229 C 
ATOM      9  O   UNL     1       1.612  -2.554  -0.896  0.00  0.00    -0.275 OA
ATOM     10  N   UNL     1      -0.008   1.483   0.010  0.00  0.00    +0.395 N 
ATOM     11  H   UNL     1      -0.484   1.822   0.855  0.00  0.00    -0.083 HD
ATOM     12  H   UNL     1      -0.500   1.831  -0.822  0.00  0.00    -0.083 HD
ENDROOT
BRANCH   7  13
ATOM     13  C   UNL     1       4.377  -1.848  -1.402  0.00  0.00    +0.048 A 
ATOM     14  C   UNL     1       4.164  -3.212  -1.551  0.00  0.00    +0.028 A 
ATOM     15  C   UNL     1       5.183  -4.024  -2.011  0.00  0.00    +0.051 A 
ATOM     16  C   UNL     1       6.420  -3.480  -2.325  0.00  0.00    +0.162 A 
ATOM     17  C   UNL     1       6.635  -2.115  -2.178  0.00  0.00    +0.164 A 
ATOM     18  C   UNL     1       5.611  -1.300  -1.721  0.00  0.00    +0.073 A 
ATOM     19  O   UNL     1       7.840  -1.563  -2.485  0.00  0.00    -0.485 OA
ATOM     20  C   UNL     1       8.952  -2.459  -2.587  0.00  0.00    +0.270 C 
ATOM     21  C   UNL     1       8.518  -3.668  -3.428  0.00  0.00    +0.270 C 
ATOM     22  O   UNL     1       7.413  -4.298  -2.772  0.00  0.00    -0.485 OA
ENDBRANCH   7  13
BRANCH   4  23
ATOM     23  C   UNL     1       1.558   3.187  -0.874  0.00  0.00    -0.060 A 
ATOM     24  C   UNL     1       0.858   3.274  -2.064  0.00  0.00    +0.005 A 
ATOM     25  C   UNL     1       0.990   4.393  -2.864  0.00  0.00    +0.045 A 
ATOM     26  C   UNL     1       1.833   5.425  -2.478  0.00  0.00    +0.117 A 
ATOM     27  C   UNL     1       2.538   5.332  -1.287  0.00  0.00    +0.045 A 
ATOM     28  C   UNL     1       2.399   4.214  -0.488  0.00  0.00    +0.005 A 
BRANCH  26  29
ATOM     29  O   UNL     1       1.968   6.524  -3.265  0.00  0.00    -0.507 OA
ATOM     30  H   UNL     1       2.677   6.454  -3.920  0.00  0.00    +0.292 HD
ENDBRANCH  26  29
ENDBRANCH   4  23
BRANCH   1  31
ATOM     31  C   UNL     1      -0.508  -0.525  -1.317  0.00  0.00    +0.297 C 
ATOM     32  O   UNL     1      -0.016  -1.515  -1.806  0.00  0.00    -0.252 OA
BRANCH  31  33
ATOM     33  O   UNL     1      -1.508   0.109  -1.948  0.00  0.00    -0.466 OA
BRANCH  33  34
ATOM     34  C   UNL     1      -1.948  -0.449  -3.214  0.00  0.00    +0.228 C 
ATOM     35  C   UNL     1      -3.086   0.403  -3.779  0.00  0.00    +0.048 C 
ENDBRANCH  33  34
ENDBRANCH  31  33
ENDBRANCH   1  31
BRANCH   1  36
ATOM     36  C   UNL     1      -0.845  -0.552   1.152  0.00  0.00    -0.001 C 
BRANCH  36  38
ATOM     37  C   UNL     1      -3.144  -0.648   2.127  0.00  0.00    +0.004 C 
ATOM     38  C   UNL     1      -2.296  -0.100   0.977  0.00  0.00    -0.004 C 
ENDBRANCH  36  38
ENDBRANCH   1  36
TORSDOF 8
