REMARK  Name = ZINC62828320
REMARK  8 active torsions:
REMARK  status: ('A' for Active; 'I' for Inactive)
REMARK    1  A    between atoms: C_1  and  C_2
REMARK    2  A    between atoms: C_2  and  C_3
REMARK    3  A    between atoms: C_3  and  N_4
REMARK    4  A    between atoms: N_4  and  C_5
REMARK    5  A    between atoms: C_5  and  C_6
REMARK    6  A    between atoms: N_8  and  C_9
REMARK    7  A    between atoms: N_12  and  C_13
REMARK    8  A    between atoms: C_14  and  C_18
REMARK                            x       y       z     vdW  Elec       q    Type
REMARK                         _______ _______ _______ _____ _____    ______ ____
ROOT
ATOM      1  N   UNL     1       0.762  -1.976   1.234  0.00  0.00    -0.277 N 
ATOM      2  C   UNL     1      -0.234  -2.667   1.823  0.00  0.00    +0.307 C 
ATOM      3  O   UNL     1      -0.218  -3.882   1.816  0.00  0.00    -0.252 OA
ATOM      4  N   UNL     1      -1.248  -2.010   2.420  0.00  0.00    -0.263 N 
ATOM      5  H   UNL     1      -1.261  -1.040   2.425  0.00  0.00    +0.157 HD
ENDROOT
BRANCH   4   6
ATOM      6  C   UNL     1      -2.271  -2.719   3.025  0.00  0.00    +0.087 A 
ATOM      7  C   UNL     1      -3.391  -2.216   3.678  0.00  0.00    +0.092 A 
ATOM      8  C   UNL     1      -4.310  -3.190   4.225  0.00  0.00    +0.024 A 
ATOM      9  C   UNL     1      -3.977  -4.479   4.039  0.00  0.00    +0.048 A 
ATOM     10  S   UNL     1      -2.449  -4.384   3.134  0.00  0.00    -0.081 S 
BRANCH   7  11
ATOM     11  C   UNL     1      -3.620  -0.822   3.802  0.00  0.00    +0.389 C 
ATOM     12  O   UNL     1      -4.618  -0.415   4.384  0.00  0.00    -0.241 OA
ATOM     13  O   UNL     1      -2.820  -0.026   3.327  0.00  0.00    -0.241 OA
ENDBRANCH   7  11
ENDBRANCH   4   6
BRANCH   1  14
ATOM     14  C   UNL     1       0.742  -0.511   1.242  0.00  0.00    +0.109 C 
BRANCH  14  16
ATOM     15  C   UNL     1      -0.019   1.526   0.010  0.00  0.00    +0.005 C 
ATOM     16  C   UNL     1       0.002  -0.004   0.002  0.00  0.00    +0.016 C 
ENDBRANCH  14  16
ENDBRANCH   1  14
BRANCH   1  17
ATOM     17  C   UNL     1       1.864  -2.690   0.585  0.00  0.00    +0.205 C 
BRANCH  17  18
ATOM     18  C   UNL     1       2.965  -2.932   1.586  0.00  0.00    +0.230 C 
ATOM     19  O   UNL     1       2.840  -2.546   2.729  0.00  0.00    -0.274 OA
ATOM     20  N   UNL     1       4.087  -3.577   1.211  0.00  0.00    -0.317 N 
ATOM     21  C   UNL     1       5.156  -3.812   2.184  0.00  0.00    +0.128 C 
ATOM     22  H   UNL     1       4.186  -3.886   0.297  0.00  0.00    +0.148 HD
ENDBRANCH  17  18
ENDBRANCH   1  17
TORSDOF 6
