REMARK  Name = ZINC58887664
REMARK  8 active torsions:
REMARK  status: ('A' for Active; 'I' for Inactive)
REMARK    1  A    between atoms: C_1  and  C_2
REMARK    2  A    between atoms: C_8  and  N_10
REMARK    3  A    between atoms: N_13  and  C_14
REMARK    4  A    between atoms: C_16  and  S_22
REMARK    5  A    between atoms: C_19  and  O_20
REMARK    6  A    between atoms: O_20  and  C_21
REMARK    7  A    between atoms: S_22  and  N_25
REMARK    8  A    between atoms: N_25  and  C_26
REMARK                            x       y       z     vdW  Elec       q    Type
REMARK                         _______ _______ _______ _____ _____    ______ ____
ROOT
ATOM      1  C   UNL     1       0.748   0.596   5.956  0.00  0.00    +0.079 A 
ATOM      2  C   UNL     1       2.101   0.309   6.058  0.00  0.00    +0.055 A 
ATOM      3  C   UNL     1       2.731   0.377   7.286  0.00  0.00    +0.107 A 
ATOM      4  C   UNL     1       2.016   0.730   8.415  0.00  0.00    +0.032 A 
ATOM      5  C   UNL     1       0.666   1.017   8.321  0.00  0.00    +0.049 A 
ATOM      6  C   UNL     1       0.029   0.957   7.093  0.00  0.00    +0.141 A 
ENDROOT
BRANCH   1  10
ATOM      7  N   UNL     1      -0.191  -0.525   2.649  0.00  0.00    -0.296 N 
ATOM      8  C   UNL     1       0.484  -0.400   3.809  0.00  0.00    +0.304 C 
ATOM      9  O   UNL     1       1.432  -1.124   4.042  0.00  0.00    -0.252 OA
ATOM     10  N   UNL     1       0.107   0.528   4.711  0.00  0.00    -0.266 N 
ATOM     11  H   UNL     1      -0.947   0.053   2.463  0.00  0.00    +0.151 HD
ATOM     12  H   UNL     1      -0.608   1.148   4.499  0.00  0.00    +0.156 HD
BRANCH   7  19
ATOM     13  C   UNL     1       0.413   0.244  -0.078  0.00  0.00    +0.009 C 
ATOM     14  C   UNL     1      -0.231  -1.099   0.272  0.00  0.00    +0.006 C 
ATOM     15  C   UNL     1      -1.754  -0.955   0.249  0.00  0.00    +0.005 C 
ATOM     16  C   UNL     1      -2.399  -2.297   0.599  0.00  0.00    +0.000 C 
ATOM     17  C   UNL     1      -1.949  -2.731   1.995  0.00  0.00    +0.002 C 
ATOM     18  C   UNL     1      -0.426  -2.876   2.017  0.00  0.00    +0.022 C 
ATOM     19  C   UNL     1       0.219  -1.533   1.668  0.00  0.00    +0.077 C 
ENDBRANCH   7  19
ENDBRANCH   1  10
BRANCH   3  20
ATOM     20  S   UNL     1       4.450   0.012   7.413  0.00  0.00    +0.059 S 
ATOM     21  O   UNL     1       4.683  -0.383   8.758  0.00  0.00    -0.153 OA
ATOM     22  O   UNL     1       4.772  -0.821   6.308  0.00  0.00    -0.153 OA
BRANCH  20  23
ATOM     23  N   UNL     1       5.271   1.433   7.189  0.00  0.00    -0.187 NA
ATOM     24  H   UNL     1       5.846   1.544   6.416  0.00  0.00    +0.148 HD
BRANCH  23  25
ATOM     25  C   UNL     1       5.127   2.522   8.158  0.00  0.00    +0.077 C 
ATOM     26  C   UNL     1       5.188   3.955   7.625  0.00  0.00    +0.022 C 
ATOM     27  C   UNL     1       6.357   3.390   8.434  0.00  0.00    +0.022 C 
ENDBRANCH  23  25
ENDBRANCH  20  23
ENDBRANCH   3  20
BRANCH   6  28
ATOM     28  O   UNL     1      -1.297   1.244   6.998  0.00  0.00    -0.493 OA
ATOM     29  C   UNL     1      -1.970   1.607   8.205  0.00  0.00    +0.277 C 
ENDBRANCH   6  28
TORSDOF 6
