REMARK  Name = ZINC39694401
REMARK  7 active torsions:
REMARK  status: ('A' for Active; 'I' for Inactive)
REMARK    1  A    between atoms: C_1  and  C_2
REMARK    2  A    between atoms: C_3  and  C_8
REMARK    3  A    between atoms: C_4  and  C_7
REMARK    4  A    between atoms: C_12  and  C_21
REMARK    5  A    between atoms: N_23  and  C_24
REMARK    6  A    between atoms: C_24  and  C_25
REMARK    7  A    between atoms: C_30  and  N_31
REMARK                            x       y       z     vdW  Elec       q    Type
REMARK                         _______ _______ _______ _____ _____    ______ ____
ROOT
ATOM      1  C   UNL     1      -0.270  -0.504  -2.321  0.00  0.00    +0.252 C 
ATOM      2  O   UNL     1       0.679  -0.456  -3.079  0.00  0.00    -0.270 OA
ATOM      3  N   UNL     1      -1.514  -0.267  -2.783  0.00  0.00    -0.296 N 
ATOM      4  C   UNL     1      -2.770  -0.169  -2.002  0.00  0.00    +0.121 C 
ATOM      5  C   UNL     1      -3.553   0.987  -2.664  0.00  0.00    +0.100 C 
ATOM      6  C   UNL     1      -3.002   1.063  -4.097  0.00  0.00    -0.004 C 
ATOM      7  C   UNL     1      -1.934  -0.037  -4.186  0.00  0.00    +0.115 C 
ATOM      8  C   UNL     1      -4.116   0.802  -5.106  0.00  0.00    -0.010 C 
ATOM      9  C   UNL     1      -3.556   0.940  -6.525  0.00  0.00    -0.082 C 
ATOM     10  N   UNL     1      -3.010   2.290  -6.708  0.00  0.00    +0.379 N 
ATOM     11  C   UNL     1      -1.879   2.500  -5.797  0.00  0.00    -0.082 C 
ATOM     12  C   UNL     1      -2.367   2.428  -4.348  0.00  0.00    -0.010 C 
ATOM     13  H   UNL     1      -2.698   2.399  -7.661  0.00  0.00    -0.086 HD
ATOM     14  H   UNL     1      -3.728   2.972  -6.513  0.00  0.00    -0.086 HD
ENDROOT
BRANCH   1  17
ATOM     15  C   UNL     1       0.571   1.593  -0.002  0.00  0.00    +0.070 C 
ATOM     16  C   UNL     1       0.318   0.117   0.161  0.00  0.00    +0.093 A 
ATOM     17  C   UNL     1      -0.061  -0.822  -0.897  0.00  0.00    +0.101 A 
ATOM     18  C   UNL     1      -0.185  -2.049  -0.310  0.00  0.00    +0.147 A 
ATOM     19  O   UNL     1       0.087  -1.915   0.991  0.00  0.00    -0.359 OA
ATOM     20  N   UNL     1       0.402  -0.564   1.265  0.00  0.00    -0.083 NA
ATOM     21  C   UNL     1      -0.562  -3.330  -1.008  0.00  0.00    +0.090 C 
ENDBRANCH   1  17
BRANCH   5  22
ATOM     22  C   UNL     1      -3.298   2.279  -1.932  0.00  0.00    +0.218 C 
ATOM     23  O   UNL     1      -2.274   2.427  -1.300  0.00  0.00    -0.275 OA
ATOM     24  N   UNL     1      -4.210   3.271  -1.979  0.00  0.00    -0.311 N 
ATOM     25  H   UNL     1      -5.061   3.127  -2.423  0.00  0.00    +0.149 HD
BRANCH  24  26
ATOM     26  C   UNL     1      -3.916   4.566  -1.361  0.00  0.00    +0.141 C 
BRANCH  26  27
ATOM     27  C   UNL     1      -5.133   5.451  -1.446  0.00  0.00    -0.009 A 
ATOM     28  C   UNL     1      -5.208   6.432  -2.416  0.00  0.00    +0.007 A 
ATOM     29  C   UNL     1      -6.324   7.245  -2.494  0.00  0.00    +0.000 A 
ATOM     30  C   UNL     1      -7.368   7.078  -1.603  0.00  0.00    +0.002 A 
ATOM     31  C   UNL     1      -7.300   6.099  -0.631  0.00  0.00    +0.023 A 
ATOM     32  C   UNL     1      -6.183   5.277  -0.553  0.00  0.00    +0.035 A 
BRANCH  32  33
ATOM     33  N   UNL     1      -6.112   4.283   0.425  0.00  0.00    -0.325 N 
ATOM     34  C   UNL     1      -5.628   4.587   1.781  0.00  0.00    +0.133 C 
ATOM     35  C   UNL     1      -6.647   4.045   2.791  0.00  0.00    +0.178 C 
ATOM     36  O   UNL     1      -6.909   2.670   2.503  0.00  0.00    -0.377 OA
ATOM     37  C   UNL     1      -7.496   2.441   1.220  0.00  0.00    +0.178 C 
ATOM     38  C   UNL     1      -6.526   2.901   0.132  0.00  0.00    +0.133 C 
ENDBRANCH  32  33
ENDBRANCH  26  27
ENDBRANCH  24  26
ENDBRANCH   5  22
TORSDOF 5
