REMARK  Name = ZINC40736579
REMARK  6 active torsions:
REMARK  status: ('A' for Active; 'I' for Inactive)
REMARK    1  A    between atoms: C_12  and  N_24
REMARK    2  A    between atoms: C_13  and  N_17
REMARK    3  A    between atoms: N_17  and  C_18
REMARK    4  A    between atoms: N_17  and  C_21
REMARK    5  A    between atoms: C_18  and  C_19
REMARK    6  A    between atoms: C_21  and  C_22
REMARK                            x       y       z     vdW  Elec       q    Type
REMARK                         _______ _______ _______ _____ _____    ______ ____
ROOT
ATOM      1  C   UNL     1       0.239   1.562  -0.804  0.00  0.00    +0.002 A 
ATOM      2  C   UNL     1       1.401   2.254  -0.494  0.00  0.00    +0.001 A 
ATOM      3  C   UNL     1       2.573   1.550  -0.284  0.00  0.00    +0.017 A 
ATOM      4  C   UNL     1       2.569   0.181  -0.384  0.00  0.00    +0.041 A 
ATOM      5  C   UNL     1       1.405  -0.557  -0.697  0.00  0.00    +0.080 A 
ATOM      6  C   UNL     1       0.226   0.195  -0.906  0.00  0.00    +0.029 A 
ATOM      7  N   UNL     1       1.561  -1.897  -0.760  0.00  0.00    -0.225 NA
ATOM      8  C   UNL     1       2.716  -2.484  -0.544  0.00  0.00    +0.165 A 
ATOM      9  S   UNL     1       3.790  -1.096  -0.204  0.00  0.00    -0.052 S 
ATOM     10  N   UNL     1       3.024  -3.831  -0.574  0.00  0.00    -0.277 N 
ATOM     11  C   UNL     1       4.324  -4.254  -0.314  0.00  0.00    +0.150 A 
ATOM     12  C   UNL     1       4.647  -5.611  -0.347  0.00  0.00    +0.106 A 
ATOM     13  C   UNL     1       5.967  -5.981  -0.079  0.00  0.00    +0.149 A 
ATOM     14  N   UNL     1       6.859  -5.032   0.194  0.00  0.00    -0.219 NA
ATOM     15  C   UNL     1       6.512  -3.761   0.215  0.00  0.00    +0.225 A 
ATOM     16  N   UNL     1       5.279  -3.370  -0.037  0.00  0.00    -0.219 NA
ATOM     17  H   UNL     1       2.333  -4.481  -0.775  0.00  0.00    +0.156 HD
ENDROOT
BRANCH  12  18
ATOM     18  N   UNL     1       3.673  -6.578  -0.640  0.00  0.00    -0.353 N 
ATOM     19  H   UNL     1       2.741  -6.319  -0.719  0.00  0.00    +0.143 HD
ATOM     20  H   UNL     1       3.931  -7.505  -0.763  0.00  0.00    +0.143 HD
ENDBRANCH  12  18
BRANCH  13  21
ATOM     21  N   UNL     1       6.343  -7.319  -0.098  0.00  0.00    -0.287 N 
BRANCH  21  22
ATOM     22  C   UNL     1       6.696  -7.962  -1.366  0.00  0.00    +0.226 C 
BRANCH  22  23
ATOM     23  C   UNL     1       8.140  -7.809  -1.608  0.00  0.00    +0.082 C 
ATOM     24  N   UNL     1       9.254  -7.690  -1.796  0.00  0.00    -0.195 NA
ENDBRANCH  22  23
ENDBRANCH  21  22
BRANCH  21  25
ATOM     25  C   UNL     1       6.385  -8.085   1.150  0.00  0.00    +0.226 C 
BRANCH  25  26
ATOM     26  C   UNL     1       5.111  -8.799   1.330  0.00  0.00    +0.082 C 
ATOM     27  N   UNL     1       4.128  -9.351   1.470  0.00  0.00    -0.195 NA
ENDBRANCH  25  26
ENDBRANCH  21  25
ENDBRANCH  13  21
TORSDOF 6
