REMARK  Name = ZINC01875966
REMARK  17 active torsions:
REMARK  status: ('A' for Active; 'I' for Inactive)
REMARK    1  A    between atoms: C_1  and  C_2
REMARK    2  A    between atoms: C_4  and  C_41
REMARK    3  A    between atoms: C_4  and  C_42
REMARK    4  A    between atoms: C_9  and  O_12
REMARK    5  A    between atoms: O_12  and  C_13
REMARK    6  A    between atoms: C_13  and  C_15
REMARK    7  A    between atoms: C_16  and  C_17
REMARK    8  A    between atoms: C_20  and  O_25
REMARK    9  A    between atoms: C_21  and  O_23
REMARK   10  A    between atoms: O_23  and  C_24
REMARK   11  A    between atoms: O_25  and  C_26
REMARK   12  A    between atoms: C_27  and  C_29
REMARK   13  A    between atoms: C_30  and  C_31
REMARK   14  A    between atoms: C_34  and  O_39
REMARK   15  A    between atoms: C_35  and  O_37
REMARK   16  A    between atoms: O_37  and  C_38
REMARK   17  A    between atoms: O_39  and  C_40
REMARK                            x       y       z     vdW  Elec       q    Type
REMARK                         _______ _______ _______ _____ _____    ______ ____
ROOT
ATOM      1  C   UNL     1      -1.683   1.073  -0.208  0.00  0.00    +0.044 C 
ATOM      2  C   UNL     1      -1.054  -0.295  -0.149  0.00  0.00    -0.043 C 
ATOM      3  C   UNL     1      -0.646  -0.890  -1.262  0.00  0.00    +0.002 C 
ATOM      4  C   UNL     1      -0.029  -2.263  -1.232  0.00  0.00    +0.056 C 
ATOM      5  N   UNL     1       0.638  -2.484   0.058  0.00  0.00    -0.258 N 
ATOM      6  C   UNL     1      -0.023  -2.083   1.224  0.00  0.00    +0.045 A 
ATOM      7  C   UNL     1      -0.884  -0.978   1.149  0.00  0.00    +0.003 A 
ATOM      8  C   UNL     1      -1.560  -0.552   2.288  0.00  0.00    +0.056 A 
ATOM      9  C   UNL     1      -1.368  -1.221   3.487  0.00  0.00    +0.133 A 
ATOM     10  C   UNL     1      -0.507  -2.309   3.554  0.00  0.00    +0.048 A 
ATOM     11  C   UNL     1       0.157  -2.744   2.425  0.00  0.00    +0.028 A 
ATOM     12  C   UNL     1       1.857  -3.057   0.117  0.00  0.00    +0.244 C 
ATOM     13  O   UNL     1       2.405  -3.428  -0.905  0.00  0.00    -0.270 OA
ATOM     14  C   UNL     1      -1.122  -3.315  -1.425  0.00  0.00    +0.036 C 
ATOM     15  C   UNL     1       0.996  -2.384  -2.361  0.00  0.00    +0.036 C 
ENDROOT
BRANCH  12  16
ATOM     16  C   UNL     1       2.520  -3.235   1.407  0.00  0.00    +0.068 C 
ATOM     17  C   UNL     1       3.671  -3.937   1.485  0.00  0.00    +0.013 C 
BRANCH  17  18
ATOM     18  C   UNL     1       4.337  -4.115   2.782  0.00  0.00    -0.021 A 
ATOM     19  C   UNL     1       3.778  -3.562   3.940  0.00  0.00    +0.012 A 
ATOM     20  C   UNL     1       4.405  -3.731   5.155  0.00  0.00    +0.050 A 
ATOM     21  C   UNL     1       5.591  -4.448   5.235  0.00  0.00    +0.162 A 
ATOM     22  C   UNL     1       6.155  -5.002   4.086  0.00  0.00    +0.162 A 
ATOM     23  C   UNL     1       5.530  -4.842   2.865  0.00  0.00    +0.057 A 
BRANCH  22  24
ATOM     24  O   UNL     1       7.317  -5.703   4.169  0.00  0.00    -0.491 OA
ATOM     25  C   UNL     1       7.837  -6.242   2.952  0.00  0.00    +0.277 C 
ENDBRANCH  22  24
BRANCH  21  26
ATOM     26  O   UNL     1       6.205  -4.610   6.436  0.00  0.00    -0.491 OA
ATOM     27  C   UNL     1       5.574  -4.017   7.572  0.00  0.00    +0.277 C 
ENDBRANCH  21  26
ENDBRANCH  17  18
ENDBRANCH  12  16
BRANCH   9  28
ATOM     28  O   UNL     1      -2.026  -0.810   4.603  0.00  0.00    -0.423 OA
BRANCH  28  29
ATOM     29  C   UNL     1      -3.338  -1.106   4.711  0.00  0.00    +0.337 C 
ATOM     30  O   UNL     1      -3.918  -1.643   3.786  0.00  0.00    -0.245 OA
BRANCH  29  31
ATOM     31  C   UNL     1      -4.040  -0.791   5.901  0.00  0.00    +0.092 C 
ATOM     32  C   UNL     1      -5.354  -1.088   6.009  0.00  0.00    +0.015 C 
BRANCH  32  33
ATOM     33  C   UNL     1      -6.082  -0.762   7.243  0.00  0.00    -0.021 A 
ATOM     34  C   UNL     1      -5.418  -0.139   8.306  0.00  0.00    +0.012 A 
ATOM     35  C   UNL     1      -6.102   0.165   9.462  0.00  0.00    +0.050 A 
ATOM     36  C   UNL     1      -7.451  -0.144   9.576  0.00  0.00    +0.162 A 
ATOM     37  C   UNL     1      -8.120  -0.765   8.522  0.00  0.00    +0.162 A 
ATOM     38  C   UNL     1      -7.443  -1.068   7.357  0.00  0.00    +0.057 A 
BRANCH  37  39
ATOM     39  O   UNL     1      -9.441  -1.067   8.638  0.00  0.00    -0.491 OA
ATOM     40  C   UNL     1     -10.062  -1.703   7.519  0.00  0.00    +0.277 C 
ENDBRANCH  37  39
BRANCH  36  41
ATOM     41  O   UNL     1      -8.121   0.159  10.718  0.00  0.00    -0.491 OA
ATOM     42  C   UNL     1      -7.376   0.794  11.759  0.00  0.00    +0.277 C 
ENDBRANCH  36  41
ENDBRANCH  32  33
ENDBRANCH  29  31
ENDBRANCH  28  29
ENDBRANCH   9  28
TORSDOF 10
