REMARK  Name = ZINC36007417
REMARK  7 active torsions:
REMARK  status: ('A' for Active; 'I' for Inactive)
REMARK    1  A    between atoms: C_1  and  C_2
REMARK    2  A    between atoms: C_5  and  C_33
REMARK    3  A    between atoms: C_10  and  C_12
REMARK    4  A    between atoms: C_12  and  N_13
REMARK    5  A    between atoms: N_16  and  C_19
REMARK    6  A    between atoms: C_19  and  C_21
REMARK    7  A    between atoms: C_19  and  C_27
REMARK                            x       y       z     vdW  Elec       q    Type
REMARK                         _______ _______ _______ _____ _____    ______ ____
ROOT
ATOM      1  N   UNL     1      -2.135  -4.361   4.044  0.00  0.00    +0.387 N 
ATOM      2  C   UNL     1      -0.689  -4.359   4.298  0.00  0.00    -0.063 C 
ATOM      3  C   UNL     1      -0.384  -5.230   5.519  0.00  0.00    +0.067 C 
ATOM      4  N   UNL     1      -1.104  -4.702   6.686  0.00  0.00    -0.291 NA
ATOM      5  C   UNL     1      -2.552  -4.675   6.437  0.00  0.00    +0.067 C 
ATOM      6  C   UNL     1      -2.840  -3.809   5.209  0.00  0.00    -0.063 C 
ATOM      7  H   UNL     1      -2.446  -5.307   3.881  0.00  0.00    -0.081 HD
ENDROOT
BRANCH   1   8
ATOM      8  C   UNL     1      -2.426  -3.540   2.862  0.00  0.00    +0.019 C 
BRANCH   8  16
ATOM      9  C   UNL     1      -4.471  -1.197  -1.047  0.00  0.00    +0.009 C 
ATOM     10  C   UNL     1      -3.767  -2.530  -0.786  0.00  0.00    +0.004 C 
ATOM     11  C   UNL     1      -3.107  -3.020  -2.076  0.00  0.00    +0.009 C 
ATOM     12  C   UNL     1      -2.430  -4.369  -1.825  0.00  0.00    +0.004 C 
ATOM     13  C   UNL     1      -1.342  -4.199  -0.759  0.00  0.00    +0.111 C 
ATOM     14  N   UNL     1      -1.942  -3.592   0.437  0.00  0.00    -0.303 N 
ATOM     15  C   UNL     1      -2.695  -2.339   0.292  0.00  0.00    +0.111 C 
ATOM     16  C   UNL     1      -1.805  -4.175   1.644  0.00  0.00    +0.199 C 
ATOM     17  O   UNL     1      -1.181  -5.209   1.751  0.00  0.00    -0.278 OA
ATOM     18  C   UNL     1      -1.799  -4.874  -3.124  0.00  0.00    +0.009 C 
ENDBRANCH   8  16
ENDBRANCH   1   8
BRANCH   4  19
ATOM     19  C   UNL     1      -0.792  -5.479   7.893  0.00  0.00    +0.174 C 
BRANCH  19  20
ATOM     20  C   UNL     1      -1.477  -4.857   9.082  0.00  0.00    +0.242 C 
ATOM     21  O   UNL     1      -1.720  -3.669   9.089  0.00  0.00    -0.273 OA
ATOM     22  N   UNL     1      -1.819  -5.621  10.139  0.00  0.00    -0.239 N 
ATOM     23  C   UNL     1      -2.432  -5.064  11.202  0.00  0.00    +0.303 C 
ATOM     24  O   UNL     1      -2.676  -3.874  11.209  0.00  0.00    -0.253 OA
ATOM     25  N   UNL     1      -2.775  -5.828  12.259  0.00  0.00    -0.313 N 
ATOM     26  H   UNL     1      -1.625  -6.571  10.134  0.00  0.00    +0.159 HD
ATOM     27  H   UNL     1      -2.580  -6.778  12.254  0.00  0.00    +0.146 HD
ATOM     28  H   UNL     1      -3.216  -5.428  13.024  0.00  0.00    +0.146 HD
ENDBRANCH  19  20
BRANCH  19  29
ATOM     29  C   UNL     1       0.699  -5.482   8.117  0.00  0.00    -0.021 A 
ATOM     30  C   UNL     1       1.415  -4.305   8.013  0.00  0.00    +0.005 A 
ATOM     31  C   UNL     1       2.783  -4.308   8.219  0.00  0.00    +0.000 A 
ATOM     32  C   UNL     1       3.433  -5.488   8.528  0.00  0.00    +0.000 A 
ATOM     33  C   UNL     1       2.715  -6.665   8.633  0.00  0.00    +0.000 A 
ATOM     34  C   UNL     1       1.348  -6.661   8.432  0.00  0.00    +0.005 A 
ENDBRANCH  19  29
ENDBRANCH   4  19
TORSDOF 5
