REMARK  Name = ZINC21596044
REMARK  8 active torsions:
REMARK  status: ('A' for Active; 'I' for Inactive)
REMARK    1  A    between atoms: C_1  and  C_2
REMARK    2  A    between atoms: C_2  and  C_3
REMARK    3  A    between atoms: C_2  and  C_4
REMARK    4  A    between atoms: C_2  and  C_5
REMARK    5  A    between atoms: C_12  and  N_17
REMARK    6  A    between atoms: C_13  and  C_14
REMARK    7  A    between atoms: C_18  and  C_20
REMARK    8  A    between atoms: C_26  and  N_29
REMARK                            x       y       z     vdW  Elec       q    Type
REMARK                         _______ _______ _______ _____ _____    ______ ____
ROOT
ATOM      1  C   UNL     1      -3.506 -10.630   0.360  0.00  0.00    -0.000 C 
ATOM      2  C   UNL     1      -4.639 -10.009  -0.462  0.00  0.00    +0.009 C 
ATOM      3  C   UNL     1      -4.896  -8.575   0.005  0.00  0.00    +0.037 C 
ATOM      4  C   UNL     1      -3.576  -7.814  -0.003  0.00  0.00    -0.023 A 
ATOM      5  C   UNL     1      -2.395  -8.469  -0.018  0.00  0.00    -0.004 A 
ATOM      6  S   UNL     1      -1.169  -7.192  -0.031  0.00  0.00    -0.077 S 
ATOM      7  C   UNL     1      -2.208  -5.806  -0.005  0.00  0.00    +0.085 A 
ATOM      8  C   UNL     1      -3.479  -6.364   0.004  0.00  0.00    +0.068 A 
ATOM      9  C   UNL     1      -2.184  -9.952  -0.028  0.00  0.00    +0.046 C 
ENDROOT
BRANCH   8  10
ATOM     10  C   UNL     1      -4.679  -5.522   0.021  0.00  0.00    +0.244 C 
ATOM     11  O   UNL     1      -5.187  -5.167  -1.027  0.00  0.00    -0.270 OA
ATOM     12  N   UNL     1      -5.219  -5.141   1.195  0.00  0.00    -0.325 N 
ATOM     13  H   UNL     1      -6.120  -4.510   1.208  0.00  0.00    +0.145 HD
ATOM     14  H   UNL     1      -4.760  -5.463   2.142  0.00  0.00    +0.145 HD
ENDBRANCH   8  10
BRANCH   1  16
ATOM     15  C   UNL     1      -2.276 -12.743   0.874  0.00  0.00    +0.011 C 
ATOM     16  C   UNL     1      -3.420 -12.129   0.065  0.00  0.00    -0.035 C 
ATOM     17  C   UNL     1      -4.738 -12.802   0.452  0.00  0.00    +0.011 C 
ATOM     18  C   UNL     1      -3.159 -12.340  -1.428  0.00  0.00    +0.011 C 
ENDBRANCH   1  16
BRANCH   7  19
ATOM     19  N   UNL     1      -1.856  -4.466  -0.002  0.00  0.00    -0.275 N 
ATOM     20  C   UNL     1      -0.556  -4.111  -0.013  0.00  0.00    +0.257 C 
ATOM     21  O   UNL     1       0.308  -4.967  -0.026  0.00  0.00    -0.269 OA
ATOM     22  H   UNL     1      -2.638  -3.692   0.010  0.00  0.00    +0.156 HD
BRANCH  20  23
ATOM     23  C   UNL     1      -0.184  -2.691  -0.009  0.00  0.00    +0.094 A 
ATOM     24  C   UNL     1       1.062  -2.141  -0.019  0.00  0.00    +0.068 A 
ATOM     25  C   UNL     1       1.210  -0.741  -0.013  0.00  0.00    +0.010 A 
ATOM     26  C   UNL     1       2.410   0.015  -0.022  0.00  0.00    +0.010 A 
ATOM     27  C   UNL     1       2.376   1.372  -0.015  0.00  0.00    +0.003 A 
ATOM     28  C   UNL     1       1.175   2.071   0.002  0.00  0.00    +0.034 A 
ATOM     29  C   UNL     1      -0.017   1.375   0.010  0.00  0.00    +0.140 A 
ATOM     30  C   UNL     1       0.002  -0.004   0.002  0.00  0.00    +0.052 A 
ATOM     31  S   UNL     1      -1.251  -1.261   0.008  0.00  0.00    -0.080 S 
ATOM     32 CL   UNL     1       2.464  -3.164  -0.037  0.00  0.00    -0.082 Cl
BRANCH  29  33
ATOM     33  N   UNL     1      -1.306   2.103   0.020  0.00  0.00    +0.058 N 
ATOM     34  O   UNL     1      -1.317   3.320   0.026  0.00  0.00    -0.126 OA
ATOM     35  O   UNL     1      -2.354   1.484   0.021  0.00  0.00    -0.126 OA
ENDBRANCH  29  33
ENDBRANCH  20  23
ENDBRANCH   7  19
TORSDOF 5
