REMARK  Name = ZINC29897852
REMARK  9 active torsions:
REMARK  status: ('A' for Active; 'I' for Inactive)
REMARK    1  A    between atoms: C_3  and  C_6
REMARK    2  A    between atoms: C_6  and  C_8
REMARK    3  A    between atoms: C_6  and  N_30
REMARK    4  A    between atoms: C_8  and  N_9
REMARK    5  A    between atoms: C_10  and  C_12
REMARK    6  A    between atoms: C_12  and  C_13
REMARK    7  A    between atoms: C_13  and  S_14
REMARK    8  A    between atoms: S_14  and  C_15
REMARK    9  A    between atoms: C_15  and  C_16
REMARK                            x       y       z     vdW  Elec       q    Type
REMARK                         _______ _______ _______ _____ _____    ______ ____
ROOT
ATOM      1  N   UNL     1       5.600  -0.134   1.208  0.00  0.00    -0.316 N 
ATOM      2  C   UNL     1       6.286  -0.612   2.265  0.00  0.00    +0.214 C 
ATOM      3  O   UNL     1       5.733  -0.743   3.337  0.00  0.00    -0.276 OA
ATOM      4  H   UNL     1       6.042  -0.028   0.351  0.00  0.00    +0.149 HD
ENDROOT
BRANCH   1   5
ATOM      5  C   UNL     1       4.188   0.227   1.353  0.00  0.00    +0.096 C 
BRANCH   5   6
ATOM      6  C   UNL     1       3.623   0.638  -0.008  0.00  0.00    +0.016 C 
BRANCH   6   7
ATOM      7  N   UNL     1       4.453   1.708  -0.579  0.00  0.00    +0.387 N 
ATOM      8  C   UNL     1       4.443   2.867   0.322  0.00  0.00    -0.078 C 
ATOM      9  C   UNL     1       5.370   3.953  -0.228  0.00  0.00    -0.019 C 
ATOM     10  C   UNL     1       4.882   4.379  -1.615  0.00  0.00    -0.004 C 
ATOM     11  C   UNL     1       4.825   3.149  -2.526  0.00  0.00    -0.019 C 
ATOM     12  C   UNL     1       3.918   2.092  -1.891  0.00  0.00    -0.078 C 
ATOM     13  H   UNL     1       5.400   1.376  -0.687  0.00  0.00    -0.081 HD
ENDBRANCH   6   7
BRANCH   6  16
ATOM     14  C   UNL     1       3.022  -2.316  -2.128  0.00  0.00    +0.041 A 
ATOM     15  C   UNL     1       2.570  -1.326  -1.225  0.00  0.00    +0.043 A 
ATOM     16  C   UNL     1       3.629  -0.550  -0.934  0.00  0.00    +0.093 A 
ATOM     17  O   UNL     1       4.693  -1.015  -1.610  0.00  0.00    -0.469 OA
ATOM     18  C   UNL     1       4.331  -2.085  -2.336  0.00  0.00    +0.195 A 
ENDBRANCH   6  16
ENDBRANCH   5   6
ENDBRANCH   1   5
BRANCH   2  19
ATOM     19  C   UNL     1       7.739  -0.983   2.115  0.00  0.00    +0.106 C 
BRANCH  19  20
ATOM     20  C   UNL     1       8.275  -1.494   3.454  0.00  0.00    +0.079 C 
BRANCH  20  21
ATOM     21  S   UNL     1      10.024  -1.941   3.274  0.00  0.00    -0.153 S 
BRANCH  21  22
ATOM     22  C   UNL     1      10.501  -2.519   4.926  0.00  0.00    +0.143 C 
BRANCH  22  23
ATOM     23  C   UNL     1      11.952  -2.927   4.915  0.00  0.00    +0.121 A 
ATOM     24  N   UNL     1      12.519  -3.400   6.055  0.00  0.00    -0.310 N 
ATOM     25  H   UNL     1      11.982  -3.469   6.860  0.00  0.00    +0.170 HD
ATOM     26  C   UNL     1      13.812  -3.775   6.090  0.00  0.00    +0.260 A 
ATOM     27  O   UNL     1      14.308  -4.198   7.120  0.00  0.00    -0.267 OA
ATOM     28  C   UNL     1      14.593  -3.669   4.894  0.00  0.00    +0.075 A 
ATOM     29  C   UNL     1      16.009  -4.017   4.701  0.00  0.00    -0.023 A 
ATOM     30  C   UNL     1      16.520  -3.824   3.473  0.00  0.00    -0.004 A 
ATOM     31  S   UNL     1      15.171  -3.180   2.510  0.00  0.00    -0.073 S 
ATOM     32  C   UNL     1      13.923  -3.171   3.768  0.00  0.00    +0.116 A 
ATOM     33  N   UNL     1      12.638  -2.824   3.809  0.00  0.00    -0.226 NA
ATOM     34  C   UNL     1      17.973  -4.208   3.396  0.00  0.00    +0.043 C 
ATOM     35  C   UNL     1      18.436  -4.273   4.868  0.00  0.00    +0.010 C 
ATOM     36  C   UNL     1      17.114  -4.580   5.599  0.00  0.00    +0.037 C 
ENDBRANCH  22  23
ENDBRANCH  21  22
ENDBRANCH  20  21
ENDBRANCH  19  20
ENDBRANCH   2  19
TORSDOF 9
