REMARK  Name = ZINC12775853
REMARK  9 active torsions:
REMARK  status: ('A' for Active; 'I' for Inactive)
REMARK    1  A    between atoms: C_1  and  O_2
REMARK    2  A    between atoms: O_2  and  C_3
REMARK    3  A    between atoms: C_3  and  C_4
REMARK    4  A    between atoms: C_4  and  N_5
REMARK    5  A    between atoms: C_6  and  C_8
REMARK    6  A    between atoms: C_10  and  O_17
REMARK    7  A    between atoms: C_13  and  O_14
REMARK    8  A    between atoms: O_14  and  C_15
REMARK    9  A    between atoms: O_17  and  C_18
REMARK                            x       y       z     vdW  Elec       q    Type
REMARK                         _______ _______ _______ _____ _____    ______ ____
ROOT
ATOM      1  C   UNL     1      -2.455   0.869   0.018  0.00  0.00    +0.083 A 
ATOM      2  C   UNL     1      -2.440  -0.528   0.011  0.00  0.00    +0.062 A 
ATOM      3  C   UNL     1      -3.631  -1.230   0.013  0.00  0.00    +0.122 A 
ATOM      4  C   UNL     1      -4.843  -0.549   0.021  0.00  0.00    +0.064 A 
ATOM      5  C   UNL     1      -4.867   0.832   0.029  0.00  0.00    +0.064 A 
ATOM      6  C   UNL     1      -3.679   1.549   0.034  0.00  0.00    +0.146 A 
ATOM      7 BR   UNL     1      -6.522   1.746   0.040  0.00  0.00    -0.046 Br
ENDROOT
BRANCH   1   9
ATOM      8  N   UNL     1      -0.011   0.966   0.007  0.00  0.00    -0.309 N 
ATOM      9  C   UNL     1      -1.187   1.624   0.017  0.00  0.00    +0.248 C 
ATOM     10  O   UNL     1      -1.204   2.840   0.023  0.00  0.00    -0.270 OA
ATOM     11  H   UNL     1       0.002  -0.004   0.002  0.00  0.00    +0.149 HD
BRANCH   8  12
ATOM     12  C   UNL     1       1.248   1.716  -0.001  0.00  0.00    +0.132 C 
BRANCH  12  13
ATOM     13  C   UNL     1       2.424   0.737  -0.017  0.00  0.00    +0.178 C 
BRANCH  13  15
ATOM     14  C   UNL     1       3.478  -0.946  -1.360  0.00  0.00    +0.194 C 
ATOM     15  O   UNL     1       2.414   0.001  -1.242  0.00  0.00    -0.381 OA
ENDBRANCH  13  15
ENDBRANCH  12  13
ENDBRANCH   8  12
ENDBRANCH   1   9
BRANCH   6  16
ATOM     16  O   UNL     1      -3.704   2.906   0.047  0.00  0.00    -0.493 OA
ATOM     17  C   UNL     1      -3.724   3.567  -1.219  0.00  0.00    +0.277 C 
ENDBRANCH   6  16
BRANCH   3  18
ATOM     18  O   UNL     1      -3.617  -2.590   0.005  0.00  0.00    -0.495 OA
ATOM     19  C   UNL     1      -4.884  -3.251   0.007  0.00  0.00    +0.277 C 
ENDBRANCH   3  18
TORSDOF 6
