REMARK  Name = ZINC42660683
REMARK  11 active torsions:
REMARK  status: ('A' for Active; 'I' for Inactive)
REMARK    1  A    between atoms: C_1  and  C_2
REMARK    2  A    between atoms: C_2  and  C_3
REMARK    3  A    between atoms: C_2  and  C_4
REMARK    4  A    between atoms: C_2  and  C_5
REMARK    5  A    between atoms: N_7  and  C_8
REMARK    6  A    between atoms: C_12  and  N_14
REMARK    7  A    between atoms: C_15  and  C_17
REMARK    8  A    between atoms: C_18  and  C_19
REMARK    9  A    between atoms: C_22  and  O_25
REMARK   10  A    between atoms: O_25  and  C_26
REMARK   11  A    between atoms: C_26  and  C_27
REMARK                            x       y       z     vdW  Elec       q    Type
REMARK                         _______ _______ _______ _____ _____    ______ ____
ROOT
ATOM      1  N   UNL     1       2.646  -5.327  -4.143  0.00  0.00    -0.282 N 
ATOM      2  C   UNL     1       3.452  -5.708  -5.154  0.00  0.00    +0.241 C 
ATOM      3  O   UNL     1       3.945  -4.871  -5.888  0.00  0.00    -0.270 OA
ATOM      4  H   UNL     1       2.194  -5.995  -3.604  0.00  0.00    +0.155 HD
ENDROOT
BRANCH   1   9
ATOM      5  C   UNL     1       1.057  -2.165  -3.130  0.00  0.00    +0.035 A 
ATOM      6  C   UNL     1       2.101  -1.272  -3.336  0.00  0.00    +0.023 A 
ATOM      7  C   UNL     1       3.317  -1.726  -3.808  0.00  0.00    +0.004 A 
ATOM      8  C   UNL     1       3.500  -3.069  -4.075  0.00  0.00    +0.023 A 
ATOM      9  C   UNL     1       2.460  -3.968  -3.871  0.00  0.00    +0.035 A 
ATOM     10  C   UNL     1       1.239  -3.515  -3.393  0.00  0.00    +0.046 A 
BRANCH   5  13
ATOM     11  C   UNL     1      -0.897  -2.465  -1.807  0.00  0.00    +0.223 C 
ATOM     12  O   UNL     1      -0.521  -3.583  -1.524  0.00  0.00    -0.275 OA
ATOM     13  N   UNL     1      -0.175  -1.704  -2.653  0.00  0.00    -0.285 N 
ATOM     14  H   UNL     1      -0.509  -0.837  -2.931  0.00  0.00    +0.155 HD
BRANCH  11  16
ATOM     15  C   UNL     1      -2.792  -2.983  -0.293  0.00  0.00    +0.020 C 
ATOM     16  C   UNL     1      -2.173  -1.927  -1.211  0.00  0.00    +0.039 C 
ATOM     17  C   UNL     1      -3.156  -1.587  -2.333  0.00  0.00    +0.020 C 
ATOM     18  C   UNL     1      -1.865  -0.665  -0.403  0.00  0.00    +0.020 C 
ENDBRANCH  11  16
ENDBRANCH   5  13
ENDBRANCH   1   9
BRANCH   2  19
ATOM     19  C   UNL     1       3.734  -7.126  -5.369  0.00  0.00    +0.068 C 
ATOM     20  C   UNL     1       4.541  -7.508  -6.382  0.00  0.00    +0.013 C 
BRANCH  20  21
ATOM     21  C   UNL     1       4.825  -8.934  -6.598  0.00  0.00    -0.025 A 
ATOM     22  C   UNL     1       4.255  -9.898  -5.759  0.00  0.00    +0.011 A 
ATOM     23  C   UNL     1       4.523 -11.232  -5.966  0.00  0.00    +0.046 A 
ATOM     24  C   UNL     1       5.359 -11.623  -7.006  0.00  0.00    +0.121 A 
ATOM     25  C   UNL     1       5.929 -10.669  -7.841  0.00  0.00    +0.046 A 
ATOM     26  C   UNL     1       5.662  -9.332  -7.647  0.00  0.00    +0.011 A 
BRANCH  24  27
ATOM     27  O   UNL     1       5.622 -12.939  -7.205  0.00  0.00    -0.483 OA
BRANCH  27  28
ATOM     28  C   UNL     1       6.489 -13.271  -8.291  0.00  0.00    +0.324 C 
BRANCH  28  29
ATOM     29  C   UNL     1       6.662 -14.766  -8.357  0.00  0.00    +0.248 C 
ATOM     30  O   UNL     1       6.098 -15.478  -7.553  0.00  0.00    -0.272 OA
ATOM     31  N   UNL     1       7.444 -15.313  -9.310  0.00  0.00    -0.327 N 
ATOM     32  H   UNL     1       7.894 -14.743  -9.953  0.00  0.00    +0.145 HD
ATOM     33  H   UNL     1       7.555 -16.276  -9.352  0.00  0.00    +0.145 HD
ENDBRANCH  28  29
ENDBRANCH  27  28
ENDBRANCH  24  27
ENDBRANCH  20  21
ENDBRANCH   2  19
TORSDOF 8
