REMARK  Name = ZINC63666891
REMARK  7 active torsions:
REMARK  status: ('A' for Active; 'I' for Inactive)
REMARK    1  A    between atoms: C_1  and  C_2
REMARK    2  A    between atoms: C_7  and  C_12
REMARK    3  A    between atoms: C_12  and  C_13
REMARK    4  A    between atoms: C_13  and  N_14
REMARK    5  A    between atoms: C_15  and  C_17
REMARK    6  A    between atoms: N_20  and  C_23
REMARK    7  A    between atoms: C_27  and  N_30
REMARK                            x       y       z     vdW  Elec       q    Type
REMARK                         _______ _______ _______ _____ _____    ______ ____
ROOT
ATOM      1  N   UNL     1      -2.076  -7.725   0.318  0.00  0.00    -0.315 N 
ATOM      2  C   UNL     1      -2.350  -9.022   0.077  0.00  0.00    +0.216 C 
ATOM      3  O   UNL     1      -1.643  -9.662  -0.672  0.00  0.00    -0.276 OA
ATOM      4  H   UNL     1      -2.642  -7.213   0.917  0.00  0.00    +0.149 HD
ENDROOT
BRANCH   2   5
ATOM      5  C   UNL     1      -3.535  -9.678   0.739  0.00  0.00    +0.077 C 
ATOM      6  C   UNL     1      -4.818  -8.953   0.324  0.00  0.00    +0.028 C 
ATOM      7  C   UNL     1      -6.023  -9.660   0.950  0.00  0.00    +0.088 C 
ATOM      8  N   UNL     1      -6.061 -11.057   0.499  0.00  0.00    -0.271 NA
ATOM      9  C   UNL     1      -4.859 -11.786   0.926  0.00  0.00    +0.088 C 
ATOM     10  C   UNL     1      -3.620 -11.142   0.300  0.00  0.00    +0.028 C 
BRANCH   8  11
ATOM     11  C   UNL     1      -7.279 -11.729   0.969  0.00  0.00    +0.260 C 
ATOM     12  N   UNL     1      -7.295 -11.848   2.445  0.00  0.00    -0.159 NA
ATOM     13  N   UNL     1      -7.552 -12.909   2.979  0.00  0.00    -0.156 NA
ATOM     14  C   UNL     1      -7.855 -14.110   2.167  0.00  0.00    +0.279 C 
ATOM     15  S   UNL     1      -7.280 -13.520   0.511  0.00  0.00    -0.069 S 
BRANCH  14  16
ATOM     16  N   UNL     1      -7.083 -15.270   2.621  0.00  0.00    -0.270 N 
ATOM     17  C   UNL     1      -5.635 -15.135   2.705  0.00  0.00    +0.111 C 
ATOM     18  C   UNL     1      -5.048 -16.218   3.612  0.00  0.00    +0.019 C 
ATOM     19  C   UNL     1      -5.589 -17.580   3.162  0.00  0.00    +0.011 C 
ATOM     20  C   UNL     1      -7.091 -17.626   3.454  0.00  0.00    +0.096 C 
ATOM     21  C   UNL     1      -7.751 -16.380   2.935  0.00  0.00    +0.218 C 
ATOM     22  O   UNL     1      -8.955 -16.387   2.791  0.00  0.00    -0.276 OA
ENDBRANCH  14  16
ENDBRANCH   8  11
ENDBRANCH   2   5
BRANCH   1  23
ATOM     23  C   UNL     1      -0.925  -7.087  -0.325  0.00  0.00    +0.108 C 
BRANCH  23  24
ATOM     24  C   UNL     1      -0.840  -5.624   0.115  0.00  0.00    +0.065 C 
BRANCH  24  31
ATOM     25  C   UNL     1       0.342   0.706  -2.641  0.00  0.00    +0.044 C 
ATOM     26  C   UNL     1       0.286  -0.793  -2.500  0.00  0.00    -0.048 A 
ATOM     27  C   UNL     1       0.073  -1.572  -3.652  0.00  0.00    +0.005 A 
ATOM     28  C   UNL     1       0.009  -2.918  -3.617  0.00  0.00    +0.027 A 
ATOM     29  C   UNL     1       0.165  -3.619  -2.335  0.00  0.00    +0.060 A 
ATOM     30  N   UNL     1       0.149  -4.878  -2.008  0.00  0.00    -0.363 N 
ATOM     31  C   UNL     1       0.363  -4.959  -0.557  0.00  0.00    +0.175 C 
ATOM     32  N   UNL     1       0.506  -3.577  -0.082  0.00  0.00    -0.363 N 
ATOM     33  C   UNL     1       0.391  -2.795  -1.117  0.00  0.00    +0.060 A 
ATOM     34  C   UNL     1       0.447  -1.335  -1.276  0.00  0.00    +0.030 A 
ATOM     35  H   UNL     1       0.020  -5.627  -2.611  0.00  0.00    +0.162 HD
ATOM     36  H   UNL     1       0.658  -3.298   0.834  0.00  0.00    +0.162 HD
ENDBRANCH  24  31
ENDBRANCH  23  24
ENDBRANCH   1  23
TORSDOF 6
