REMARK  Name = ZINC56689660
REMARK  6 active torsions:
REMARK  status: ('A' for Active; 'I' for Inactive)
REMARK    1  A    between atoms: C_1  and  C_2
REMARK    2  A    between atoms: C_2  and  C_4
REMARK    3  A    between atoms: C_2  and  N_10
REMARK    4  A    between atoms: N_13  and  C_14
REMARK    5  A    between atoms: C_19  and  C_20
REMARK    6  A    between atoms: C_20  and  N_21
REMARK                            x       y       z     vdW  Elec       q    Type
REMARK                         _______ _______ _______ _____ _____    ______ ____
ROOT
ATOM      1  C   UNL     1       4.088  -1.264   2.271  0.00  0.00    +0.039 A 
ATOM      2  C   UNL     1       4.851  -0.921   1.162  0.00  0.00    +0.023 A 
ATOM      3  C   UNL     1       6.215  -1.137   1.170  0.00  0.00    +0.002 A 
ATOM      4  C   UNL     1       6.821  -1.694   2.281  0.00  0.00    +0.000 A 
ATOM      5  C   UNL     1       6.065  -2.036   3.386  0.00  0.00    +0.007 A 
ATOM      6  C   UNL     1       4.701  -1.818   3.387  0.00  0.00    -0.009 A 
ENDROOT
BRANCH   1  10
ATOM      7  N   UNL     1       0.663  -1.065   1.135  0.00  0.00    -0.294 N 
ATOM      8  C   UNL     1       2.006  -1.187   1.122  0.00  0.00    +0.304 C 
ATOM      9  O   UNL     1       2.585  -1.423   0.080  0.00  0.00    -0.252 OA
ATOM     10  N   UNL     1       2.706  -1.046   2.266  0.00  0.00    -0.269 N 
ATOM     11  H   UNL     1       0.201  -0.876   1.967  0.00  0.00    +0.151 HD
ATOM     12  H   UNL     1       2.251  -0.795   3.085  0.00  0.00    +0.156 HD
BRANCH   7  14
ATOM     13  C   UNL     1      -0.130   0.119  -0.853  0.00  0.00    +0.030 C 
ATOM     14  C   UNL     1      -0.098  -1.217  -0.108  0.00  0.00    +0.100 C 
BRANCH  14  15
ATOM     15  C   UNL     1      -1.527  -1.653   0.220  0.00  0.00    +0.138 C 
ATOM     16  C   UNL     1      -2.301  -1.933  -1.086  0.00  0.00    +0.035 C 
ATOM     17  C   UNL     1      -3.708  -1.358  -0.765  0.00  0.00    +0.031 C 
ATOM     18  C   UNL     1      -3.335  -0.155   0.137  0.00  0.00    +0.160 C 
ATOM     19  O   UNL     1      -2.209  -0.601   0.913  0.00  0.00    -0.375 OA
ENDBRANCH  14  15
ENDBRANCH   7  14
ENDBRANCH   1  10
BRANCH   6  20
ATOM     20  C   UNL     1       3.878  -2.186   4.594  0.00  0.00    +0.142 C 
BRANCH  20  21
ATOM     21  N   UNL     1       3.220  -3.474   4.362  0.00  0.00    -0.325 N 
ATOM     22  C   UNL     1       1.898  -3.643   3.753  0.00  0.00    +0.110 C 
ATOM     23  C   UNL     1       1.657  -5.162   3.730  0.00  0.00    +0.056 C 
ATOM     24  C   UNL     1       2.903  -5.754   4.350  0.00  0.00    -0.025 A 
ATOM     25  C   UNL     1       3.763  -4.719   4.685  0.00  0.00    +0.033 A 
ATOM     26  C   UNL     1       4.992  -5.023   5.272  0.00  0.00    +0.023 A 
ATOM     27  C   UNL     1       5.344  -6.335   5.510  0.00  0.00    +0.002 A 
ATOM     28  C   UNL     1       4.481  -7.359   5.168  0.00  0.00    +0.000 A 
ATOM     29  C   UNL     1       3.258  -7.066   4.594  0.00  0.00    +0.005 A 
ENDBRANCH  20  21
ENDBRANCH   6  20
TORSDOF 5
