REMARK  Name = ZINC66199599
REMARK  15 active torsions:
REMARK  status: ('A' for Active; 'I' for Inactive)
REMARK    1  A    between atoms: C_1  and  C_2
REMARK    2  A    between atoms: C_5  and  N_9
REMARK    3  A    between atoms: C_6  and  C_8
REMARK    4  A    between atoms: N_9  and  S_10
REMARK    5  A    between atoms: S_10  and  C_13
REMARK    6  A    between atoms: C_16  and  N_19
REMARK    7  A    between atoms: N_19  and  C_20
REMARK    8  A    between atoms: C_20  and  N_22
REMARK    9  A    between atoms: C_23  and  C_25
REMARK   10  A    between atoms: C_25  and  C_27
REMARK   11  A    between atoms: C_25  and  C_28
REMARK   12  A    between atoms: C_31  and  C_34
REMARK   13  A    between atoms: C_34  and  C_35
REMARK   14  A    between atoms: C_35  and  C_36
REMARK   15  A    between atoms: C_35  and  C_37
REMARK                            x       y       z     vdW  Elec       q    Type
REMARK                         _______ _______ _______ _____ _____    ______ ____
ROOT
ATOM      1  N   UNL     1       6.440  -3.317  -0.716  0.00  0.00    -0.297 N 
ATOM      2  H   UNL     1       6.737  -2.484  -1.114  0.00  0.00    +0.154 HD
ENDROOT
BRANCH   1   6
ATOM      3  C   UNL     1       2.442  -4.453  -0.995  0.00  0.00    +0.109 A 
ATOM      4  C   UNL     1       3.105  -4.554   0.215  0.00  0.00    +0.030 A 
ATOM      5  C   UNL     1       4.431  -4.179   0.310  0.00  0.00    +0.025 A 
ATOM      6  C   UNL     1       5.098  -3.699  -0.809  0.00  0.00    +0.033 A 
ATOM      7  C   UNL     1       4.429  -3.599  -2.022  0.00  0.00    +0.025 A 
ATOM      8  C   UNL     1       3.105  -3.981  -2.113  0.00  0.00    +0.030 A 
BRANCH   3   9
ATOM      9  S   UNL     1       0.751  -4.934  -1.113  0.00  0.00    +0.072 S 
ATOM     10  O   UNL     1       0.207  -4.237  -2.225  0.00  0.00    -0.150 OA
ATOM     11  O   UNL     1       0.206  -4.827   0.195  0.00  0.00    -0.150 OA
BRANCH   9  12
ATOM     12  N   UNL     1       0.726  -6.543  -1.505  0.00  0.00    -0.216 N 
ATOM     13  H   UNL     1       0.281  -6.838  -2.315  0.00  0.00    +0.174 HD
BRANCH  12  18
ATOM     14  C   UNL     1       3.241 -10.329   1.886  0.00  0.00    +0.044 C 
ATOM     15  C   UNL     1       2.572  -9.323   0.985  0.00  0.00    -0.050 A 
ATOM     16  C   UNL     1       1.931  -8.226   1.531  0.00  0.00    +0.005 A 
ATOM     17  C   UNL     1       1.318  -7.302   0.708  0.00  0.00    +0.025 A 
ATOM     18  C   UNL     1       1.346  -7.475  -0.670  0.00  0.00    +0.051 A 
ATOM     19  C   UNL     1       1.990  -8.578  -1.215  0.00  0.00    -0.028 A 
ATOM     20  C   UNL     1       2.606  -9.495  -0.387  0.00  0.00    +0.008 A 
ATOM     21  C   UNL     1       2.022  -8.771  -2.709  0.00  0.00    +0.046 C 
ENDBRANCH  12  18
ENDBRANCH   9  12
ENDBRANCH   3   9
ENDBRANCH   1   6
BRANCH   1  22
ATOM     22  C   UNL     1       7.322  -4.107  -0.071  0.00  0.00    +0.141 C 
ATOM     23  S   UNL     1       6.781  -5.523   0.725  0.00  0.00    -0.018 S 
BRANCH  22  24
ATOM     24  N   UNL     1       8.630  -3.783  -0.054  0.00  0.00    -0.267 N 
ATOM     25  C   UNL     1       9.512  -4.573   0.590  0.00  0.00    +0.226 C 
ATOM     26  O   UNL     1       9.128  -5.575   1.154  0.00  0.00    -0.275 OA
ATOM     27  H   UNL     1       8.937  -2.981  -0.505  0.00  0.00    +0.157 HD
BRANCH  25  28
ATOM     28  C   UNL     1      10.975  -4.210   0.609  0.00  0.00    +0.102 C 
ATOM     29  C   UNL     1      11.152  -2.842   1.270  0.00  0.00    +0.022 C 
BRANCH  28  30
ATOM     30  C   UNL     1      11.739  -5.248   1.389  0.00  0.00    -0.036 A 
ATOM     31  C   UNL     1      11.431  -5.481   2.717  0.00  0.00    +0.004 A 
ATOM     32  C   UNL     1      12.132  -6.434   3.432  0.00  0.00    +0.004 A 
ATOM     33  C   UNL     1      13.142  -7.153   2.821  0.00  0.00    -0.047 A 
ATOM     34  C   UNL     1      13.450  -6.920   1.493  0.00  0.00    +0.004 A 
ATOM     35  C   UNL     1      12.745  -5.971   0.776  0.00  0.00    +0.004 A 
BRANCH  33  36
ATOM     36  C   UNL     1      13.907  -8.190   3.601  0.00  0.00    +0.038 C 
BRANCH  36  37
ATOM     37  C   UNL     1      13.210  -9.546   3.468  0.00  0.00    -0.013 C 
ATOM     38  C   UNL     1      13.270 -10.009   2.011  0.00  0.00    +0.007 C 
ATOM     39  C   UNL     1      13.914 -10.571   4.359  0.00  0.00    +0.007 C 
ENDBRANCH  36  37
ENDBRANCH  33  36
ENDBRANCH  28  30
ENDBRANCH  25  28
ENDBRANCH  22  24
ENDBRANCH   1  22
TORSDOF 10
