REMARK  Name = ZINC20336969
REMARK  3 active torsions:
REMARK  status: ('A' for Active; 'I' for Inactive)
REMARK    1  A    between atoms: C_1  and  N_2
REMARK    2  A    between atoms: C_6  and  N_19
REMARK    3  A    between atoms: C_11  and  C_12
REMARK                            x       y       z     vdW  Elec       q    Type
REMARK                         _______ _______ _______ _____ _____    ______ ____
ROOT
ATOM      1  C   UNL     1      -5.793   2.490  -0.724  0.00  0.00    +0.139 C 
ATOM      2  N   UNL     1      -4.611   3.352  -0.808  0.00  0.00    -0.265 N 
ATOM      3  C   UNL     1      -3.332   2.797  -0.971  0.00  0.00    +0.079 A 
ATOM      4  C   UNL     1      -3.195   1.464  -1.330  0.00  0.00    +0.029 A 
ATOM      5  C   UNL     1      -1.936   0.918  -1.494  0.00  0.00    +0.025 A 
ATOM      6  C   UNL     1      -0.805   1.702  -1.301  0.00  0.00    +0.028 A 
ATOM      7  C   UNL     1      -0.938   3.035  -0.936  0.00  0.00    +0.071 A 
ATOM      8  C   UNL     1      -2.198   3.584  -0.776  0.00  0.00    +0.152 A 
ATOM      9  O   UNL     1      -2.335   4.893  -0.422  0.00  0.00    -0.449 OA
ATOM     10  C   UNL     1      -3.499   5.500  -0.808  0.00  0.00    +0.194 C 
ATOM     11  C   UNL     1      -3.516   6.786  -1.244  0.00  0.00    +0.097 C 
ATOM     12  C   UNL     1      -4.733   4.699  -0.729  0.00  0.00    +0.286 C 
ATOM     13  O   UNL     1      -5.822   5.228  -0.598  0.00  0.00    -0.266 OA
ENDROOT
BRANCH  11  14
ATOM     14  C   UNL     1      -4.675   7.305  -1.875  0.00  0.00    +0.131 A 
ATOM     15  C   UNL     1      -4.883   8.618  -2.237  0.00  0.00    +0.049 A 
ATOM     16  C   UNL     1      -6.157   8.673  -2.828  0.00  0.00    +0.042 A 
ATOM     17  C   UNL     1      -6.666   7.423  -2.795  0.00  0.00    +0.195 A 
ATOM     18  O   UNL     1      -5.773   6.602  -2.221  0.00  0.00    -0.463 OA
ENDBRANCH  11  14
BRANCH   6  19
ATOM     19  N   UNL     1       0.467   1.146  -1.469  0.00  0.00    -0.358 N 
ATOM     20  H   UNL     1       1.363   1.766  -1.317  0.00  0.00    +0.142 HD
ATOM     21  H   UNL     1       0.572   0.089  -1.754  0.00  0.00    +0.142 HD
ENDBRANCH   6  19
TORSDOF 2
