REMARK  Name = ZINC21810504
REMARK  6 active torsions:
REMARK  status: ('A' for Active; 'I' for Inactive)
REMARK    1  A    between atoms: C_1  and  C_2
REMARK    2  A    between atoms: C_2  and  C_3
REMARK    3  A    between atoms: C_6  and  N_9
REMARK    4  A    between atoms: C_18  and  C_19
REMARK    5  A    between atoms: C_18  and  C_20
REMARK    6  A    between atoms: N_22  and  C_23
REMARK                            x       y       z     vdW  Elec       q    Type
REMARK                         _______ _______ _______ _____ _____    ______ ____
ROOT
ATOM      1  N   UNL     1      -2.117  -0.348   0.749  0.00  0.00    -0.250 N 
ATOM      2  C   UNL     1      -2.506  -0.477   2.039  0.00  0.00    +0.268 C 
ATOM      3  O   UNL     1      -2.359  -1.519   2.651  0.00  0.00    -0.268 OA
ATOM      4  C   UNL     1      -3.113   0.706   2.660  0.00  0.00    +0.109 A 
ATOM      5  C   UNL     1      -3.439   0.957   3.961  0.00  0.00    +0.079 A 
ATOM      6  C   UNL     1      -3.980   2.250   4.017  0.00  0.00    +0.153 A 
ATOM      7  C   UNL     1      -3.974   2.767   2.721  0.00  0.00    +0.088 A 
ATOM      8  N   UNL     1      -3.455   1.817   1.894  0.00  0.00    -0.331 N 
ATOM      9  C   UNL     1      -3.252   1.842   0.442  0.00  0.00    +0.158 C 
ATOM     10  C   UNL     1      -2.063   0.950   0.086  0.00  0.00    +0.133 C 
ATOM     11  C   UNL     1      -2.047   0.731  -1.428  0.00  0.00    +0.044 C 
ATOM     12  C   UNL     1      -4.515   4.071   2.816  0.00  0.00    +0.067 A 
ATOM     13  C   UNL     1      -4.819   4.284   4.109  0.00  0.00    +0.198 A 
ATOM     14  O   UNL     1      -4.500   3.195   4.828  0.00  0.00    -0.461 OA
ENDROOT
BRANCH   1  18
ATOM     15  C   UNL     1      -1.045  -3.757  -1.390  0.00  0.00    -0.048 A 
ATOM     16  C   UNL     1      -0.186  -3.243  -0.437  0.00  0.00    +0.005 A 
ATOM     17  C   UNL     1      -0.538  -2.112   0.274  0.00  0.00    +0.024 A 
ATOM     18  C   UNL     1      -1.757  -1.492   0.031  0.00  0.00    +0.038 A 
ATOM     19  C   UNL     1      -2.620  -2.015  -0.924  0.00  0.00    +0.024 A 
ATOM     20  C   UNL     1      -2.259  -3.143  -1.635  0.00  0.00    +0.005 A 
BRANCH  15  22
ATOM     21  C   UNL     1      -1.148  -6.235  -1.420  0.00  0.00    +0.009 C 
ATOM     22  C   UNL     1      -0.657  -4.991  -2.164  0.00  0.00    +0.032 C 
ENDBRANCH  15  22
ENDBRANCH   1  18
BRANCH  10  23
ATOM     23  C   UNL     1      -0.791   1.650   0.490  0.00  0.00    +0.239 C 
ATOM     24  O   UNL     1      -0.779   2.855   0.627  0.00  0.00    -0.273 OA
ATOM     25  N   UNL     1       0.334   0.937   0.698  0.00  0.00    -0.311 N 
ATOM     26  H   UNL     1       0.322  -0.156   0.578  0.00  0.00    +0.149 HD
BRANCH  25  27
ATOM     27  C   UNL     1       1.572   1.618   1.085  0.00  0.00    +0.073 C 
ATOM     28  C   UNL     1       2.291   2.121  -0.169  0.00  0.00    +0.022 C 
ATOM     29  C   UNL     1       3.583   2.832   0.235  0.00  0.00    +0.002 C 
ATOM     30  C   UNL     1       4.490   1.855   0.985  0.00  0.00    +0.000 C 
ATOM     31  C   UNL     1       3.772   1.352   2.239  0.00  0.00    +0.002 C 
ATOM     32  C   UNL     1       2.479   0.641   1.835  0.00  0.00    +0.022 C 
ENDBRANCH  25  27
ENDBRANCH  10  23
TORSDOF 4
