REMARK  Name = ZINC43233296
REMARK  7 active torsions:
REMARK  status: ('A' for Active; 'I' for Inactive)
REMARK    1  A    between atoms: C_1  and  C_2
REMARK    2  A    between atoms: C_2  and  C_4
REMARK    3  A    between atoms: C_2  and  N_21
REMARK    4  A    between atoms: C_4  and  C_6
REMARK    5  A    between atoms: C_4  and  O_12
REMARK    6  A    between atoms: N_9  and  C_11
REMARK    7  A    between atoms: O_12  and  C_13
REMARK                            x       y       z     vdW  Elec       q    Type
REMARK                         _______ _______ _______ _____ _____    ______ ____
ROOT
ATOM      1  C   UNL     1       0.760  -0.527   1.259  0.00  0.00    +0.192 C 
ENDROOT
BRANCH   1   2
ATOM      2  C   UNL     1       2.238  -0.231   1.280  0.00  0.00    +0.028 A 
ATOM      3  C   UNL     1       2.836   0.936   1.768  0.00  0.00    +0.141 A 
ATOM      4  N   UNL     1       4.131   0.825   1.617  0.00  0.00    -0.180 NA
ATOM      5  N   UNL     1       4.398  -0.417   1.028  0.00  0.00    -0.274 N 
ATOM      6  C   UNL     1       3.220  -1.048   0.836  0.00  0.00    +0.115 A 
ATOM      7  C   UNL     1       5.722  -0.942   0.685  0.00  0.00    +0.172 C 
ENDBRANCH   1   2
BRANCH   1   9
ATOM      8  C   UNL     1       0.243   1.599   0.054  0.00  0.00    -0.010 C 
ATOM      9  C   UNL     1       0.137   0.074  -0.002  0.00  0.00    -0.032 C 
BRANCH   9  10
ATOM     10  N   UNL     1      -1.276  -0.317  -0.084  0.00  0.00    +0.382 N 
ATOM     11  H   UNL     1      -1.346  -1.323  -0.121  0.00  0.00    -0.089 HD
ATOM     12  H   UNL     1      -1.767   0.025   0.729  0.00  0.00    -0.089 HD
ATOM     13  H   UNL     1      -1.687   0.080  -0.916  0.00  0.00    -0.089 HD
ENDBRANCH   9  10
ENDBRANCH   1   9
BRANCH   1  14
ATOM     14  O   UNL     1       0.143   0.044   2.414  0.00  0.00    -0.484 OA
BRANCH  14  15
ATOM     15  C   UNL     1      -0.936  -0.607   2.923  0.00  0.00    +0.141 A 
ATOM     16  C   UNL     1      -1.345  -1.811   2.370  0.00  0.00    +0.067 A 
ATOM     17  C   UNL     1      -2.443  -2.471   2.890  0.00  0.00    +0.045 A 
ATOM     18  C   UNL     1      -3.133  -1.932   3.962  0.00  0.00    +0.021 A 
ATOM     19  C   UNL     1      -2.727  -0.732   4.514  0.00  0.00    +0.025 A 
ATOM     20  C   UNL     1      -1.627  -0.070   4.001  0.00  0.00    +0.083 A 
ATOM     21 CL   UNL     1      -1.113   1.433   4.701  0.00  0.00    -0.080 Cl
ATOM     22 CL   UNL     1      -2.957  -3.978   2.198  0.00  0.00    -0.083 Cl
ENDBRANCH  14  15
ENDBRANCH   1  14
TORSDOF 5
