REMARK  Name = ZINC11817941
REMARK  10 active torsions:
REMARK  status: ('A' for Active; 'I' for Inactive)
REMARK    1  A    between atoms: C_1  and  C_2
REMARK    2  A    between atoms: C_2  and  N_3
REMARK    3  A    between atoms: C_4  and  C_30
REMARK    4  A    between atoms: C_5  and  C_9
REMARK    5  A    between atoms: C_6  and  C_8
REMARK    6  A    between atoms: C_9  and  N_10
REMARK    7  A    between atoms: C_11  and  C_13
REMARK    8  A    between atoms: C_13  and  C_14
REMARK    9  A    between atoms: C_21  and  C_22
REMARK   10  A    between atoms: C_21  and  N_57
REMARK                            x       y       z     vdW  Elec       q    Type
REMARK                         _______ _______ _______ _____ _____    ______ ____
ROOT
ATOM      1  C   UNL     1       1.212   3.146   0.028  0.00  0.00    +0.028 C 
ATOM      2  C   UNL     1      -0.187   3.589  -0.295  0.00  0.00    +0.200 C 
ATOM      3  O   UNL     1      -0.542   3.592  -1.455  0.00  0.00    -0.278 OA
ATOM      4  N   UNL     1      -1.057   3.979   0.642  0.00  0.00    -0.318 N 
ATOM      5  C   UNL     1      -0.716   4.051   2.060  0.00  0.00    +0.085 C 
ATOM      6  C   UNL     1       0.533   3.211   2.341  0.00  0.00    -0.058 C 
ATOM      7  H   UNL     1      -1.953   4.230   0.367  0.00  0.00    +0.149 HD
ATOM      8  N   UNL     1       1.577   3.615   1.378  0.00  0.00    +0.391 N 
ATOM      9  H   UNL     1       1.648   4.639   1.370  0.00  0.00    -0.080 HD
ENDROOT
BRANCH   1  10
ATOM     10  C   UNL     1       2.183   3.751  -0.988  0.00  0.00    +0.089 C 
BRANCH  10  12
ATOM     11  N   UNL     1       2.833   6.006  -1.769  0.00  0.00    -0.311 N 
ATOM     12  C   UNL     1       2.138   5.254  -0.893  0.00  0.00    +0.212 C 
ATOM     13  O   UNL     1       1.476   5.787  -0.028  0.00  0.00    -0.276 OA
ATOM     14  H   UNL     1       3.363   5.580  -2.461  0.00  0.00    +0.149 HD
BRANCH  11  15
ATOM     15  C   UNL     1       2.789   7.468  -1.677  0.00  0.00    +0.143 C 
BRANCH  15  18
ATOM     16  N   UNL     1       5.355   8.880  -3.849  0.00  0.00    -0.268 N 
ATOM     17  C   UNL     1       4.960   8.370  -2.664  0.00  0.00    +0.041 A 
ATOM     18  C   UNL     1       3.645   8.066  -2.763  0.00  0.00    +0.013 A 
ATOM     19  C   UNL     1       3.220   8.409  -4.051  0.00  0.00    +0.065 A 
ATOM     20  N   UNL     1       4.244   8.898  -4.702  0.00  0.00    -0.176 NA
ATOM     21  C   UNL     1       1.824   8.246  -4.593  0.00  0.00    +0.068 C 
ATOM     22  C   UNL     1       5.829   8.172  -1.448  0.00  0.00    +0.065 C 
BRANCH  16  24
ATOM     23  C   UNL     1       6.839  10.824  -3.835  0.00  0.00    +0.029 C 
ATOM     24  C   UNL     1       6.705   9.340  -4.183  0.00  0.00    +0.140 C 
ENDBRANCH  16  24
ENDBRANCH  15  18
ENDBRANCH  11  15
ENDBRANCH  10  12
ENDBRANCH   1  10
BRANCH   8  25
ATOM     25  C   UNL     1       2.884   3.044   1.776  0.00  0.00    -0.040 C 
BRANCH  25  26
ATOM     26  C   UNL     1       3.078   3.235   3.259  0.00  0.00    -0.045 A 
ATOM     27  C   UNL     1       3.859   4.277   3.724  0.00  0.00    +0.006 A 
ATOM     28  C   UNL     1       4.034   4.457   5.083  0.00  0.00    +0.038 A 
ATOM     29  C   UNL     1       3.435   3.587   5.979  0.00  0.00    +0.125 A 
ATOM     30  C   UNL     1       2.658   2.541   5.513  0.00  0.00    +0.058 A 
ATOM     31  C   UNL     1       2.479   2.365   4.152  0.00  0.00    +0.045 A 
ATOM     32 CL   UNL     1       1.505   1.054   3.566  0.00  0.00    -0.083 Cl
ATOM     33  F   UNL     1       3.610   3.759   7.308  0.00  0.00    -0.205 F 
ENDBRANCH  25  26
ENDBRANCH   8  25
TORSDOF 7
