REMARK  Name = ZINC63731680
REMARK  9 active torsions:
REMARK  status: ('A' for Active; 'I' for Inactive)
REMARK    1  A    between atoms: C_1  and  C_2
REMARK    2  A    between atoms: C_3  and  N_9
REMARK    3  A    between atoms: C_10  and  S_21
REMARK    4  A    between atoms: C_15  and  C_18
REMARK    5  A    between atoms: S_21  and  C_22
REMARK    6  A    between atoms: C_22  and  C_23
REMARK    7  A    between atoms: N_25  and  C_26
REMARK    8  A    between atoms: C_31  and  O_32
REMARK    9  A    between atoms: O_32  and  C_33
REMARK                            x       y       z     vdW  Elec       q    Type
REMARK                         _______ _______ _______ _____ _____    ______ ____
ROOT
ATOM      1  N   UNL     1       0.015   0.002  -2.449  0.00  0.00    -0.253 N 
ATOM      2  C   UNL     1       1.262   0.403  -3.108  0.00  0.00    +0.260 C 
ATOM      3  N   UNL     1       1.281   0.065  -4.534  0.00  0.00    -0.230 NA
ATOM      4  C   UNL     1       0.177   0.002  -5.205  0.00  0.00    +0.185 C 
ATOM      5  C   UNL     1      -1.155   0.156  -4.525  0.00  0.00    +0.083 C 
ATOM      6  C   UNL     1      -2.065   0.049  -5.498  0.00  0.00    +0.075 C 
ATOM      7  N   UNL     1      -1.412  -0.176  -6.658  0.00  0.00    -0.152 NA
ATOM      8  N   UNL     1      -0.132  -0.219  -6.506  0.00  0.00    -0.129 NA
ATOM      9  C   UNL     1      -3.558   0.159  -5.330  0.00  0.00    +0.068 C 
ATOM     10  C   UNL     1      -1.202   0.348  -3.064  0.00  0.00    +0.133 C 
ATOM     11  N   UNL     1      -2.248   0.788  -2.420  0.00  0.00    -0.285 NA
ATOM     12  H   UNL     1      -3.059   1.009  -2.906  0.00  0.00    +0.188 HD
ENDROOT
BRANCH   1  15
ATOM     13  C   UNL     1       0.003   1.478  -0.016  0.00  0.00    +0.047 C 
ATOM     14  C   UNL     1       0.030  -0.029  -0.035  0.00  0.00    -0.011 A 
ATOM     15  C   UNL     1       0.035  -0.709  -1.246  0.00  0.00    +0.042 A 
ATOM     16  C   UNL     1       0.061  -2.098  -1.259  0.00  0.00    +0.024 A 
ATOM     17  C   UNL     1       0.080  -2.799  -0.069  0.00  0.00    +0.003 A 
ATOM     18  C   UNL     1       0.074  -2.119   1.135  0.00  0.00    +0.020 A 
ATOM     19  C   UNL     1       0.055  -0.735   1.153  0.00  0.00    +0.046 A 
ATOM     20 CL   UNL     1       0.056   0.113   2.667  0.00  0.00    -0.083 Cl
ENDBRANCH   1  15
BRANCH   2  21
ATOM     21  S   UNL     1       1.467   2.197  -2.931  0.00  0.00    -0.106 S 
BRANCH  21  22
ATOM     22  C   UNL     1       0.002   2.889  -3.746  0.00  0.00    +0.168 C 
BRANCH  22  23
ATOM     23  C   UNL     1       0.048   4.393  -3.670  0.00  0.00    +0.227 C 
ATOM     24  O   UNL     1       0.978   4.944  -3.120  0.00  0.00    -0.275 OA
ATOM     25  N   UNL     1      -0.945   5.126  -4.212  0.00  0.00    -0.282 N 
ATOM     26  H   UNL     1      -1.655   4.689  -4.708  0.00  0.00    +0.155 HD
BRANCH  25  27
ATOM     27  C   UNL     1      -0.950   6.519  -4.061  0.00  0.00    +0.076 A 
ATOM     28  C   UNL     1       0.246   7.221  -4.040  0.00  0.00    +0.027 A 
ATOM     29  C   UNL     1       0.238   8.595  -3.890  0.00  0.00    +0.002 A 
ATOM     30  C   UNL     1      -0.960   9.273  -3.762  0.00  0.00    +0.004 A 
ATOM     31  C   UNL     1      -2.156   8.580  -3.782  0.00  0.00    +0.047 A 
ATOM     32  C   UNL     1      -2.157   7.203  -3.937  0.00  0.00    +0.141 A 
BRANCH  32  33
ATOM     33  O   UNL     1      -3.333   6.521  -3.963  0.00  0.00    -0.493 OA
ATOM     34  C   UNL     1      -4.531   7.288  -3.830  0.00  0.00    +0.277 C 
ENDBRANCH  32  33
ENDBRANCH  25  27
ENDBRANCH  22  23
ENDBRANCH  21  22
ENDBRANCH   2  21
TORSDOF 6
