REMARK  Name = ZINC01056978
REMARK  9 active torsions:
REMARK  status: ('A' for Active; 'I' for Inactive)
REMARK    1  A    between atoms: C_1  and  C_2
REMARK    2  A    between atoms: C_2  and  C_34
REMARK    3  A    between atoms: C_6  and  C_22
REMARK    4  A    between atoms: C_8  and  C_20
REMARK    5  A    between atoms: C_9  and  N_19
REMARK    6  A    between atoms: N_10  and  C_11
REMARK    7  A    between atoms: C_14  and  O_17
REMARK    8  A    between atoms: O_17  and  C_18
REMARK    9  A    between atoms: C_25  and  N_28
REMARK                            x       y       z     vdW  Elec       q    Type
REMARK                         _______ _______ _______ _____ _____    ______ ____
ROOT
ATOM      1  C   UNL     1       1.909   4.272   2.409  0.00  0.00    +0.011 C 
ATOM      2  C   UNL     1       2.873   3.368   3.180  0.00  0.00    -0.023 C 
ATOM      3  C   UNL     1       4.167   3.199   2.387  0.00  0.00    +0.058 C 
ATOM      4  C   UNL     1       3.868   2.544   1.061  0.00  0.00    +0.025 C 
ATOM      5  C   UNL     1       2.845   1.674   0.930  0.00  0.00    +0.025 C 
ATOM      6  C   UNL     1       2.550   1.016  -0.394  0.00  0.00    +0.097 C 
ATOM      7  C   UNL     1       3.725   1.116  -1.322  0.00  0.00    +0.077 C 
ATOM      8  C   UNL     1       4.718   2.016  -1.103  0.00  0.00    +0.107 C 
ATOM      9  N   UNL     1       4.664   2.852  -0.011  0.00  0.00    -0.260 N 
ATOM     10  C   UNL     1       2.022   1.356   2.024  0.00  0.00    +0.162 C 
ATOM     11  O   UNL     1       1.119   0.557   1.878  0.00  0.00    -0.292 OA
ATOM     12  C   UNL     1       2.239   1.986   3.373  0.00  0.00    +0.086 C 
ATOM     13  C   UNL     1       3.179   3.988   4.545  0.00  0.00    +0.011 C 
ENDROOT
BRANCH   9  14
ATOM     14  C   UNL     1       5.428   4.026   0.005  0.00  0.00    +0.040 A 
ATOM     15  C   UNL     1       4.892   5.211  -0.481  0.00  0.00    +0.027 A 
ATOM     16  C   UNL     1       5.645   6.368  -0.462  0.00  0.00    +0.047 A 
ATOM     17  C   UNL     1       6.940   6.345   0.035  0.00  0.00    +0.120 A 
ATOM     18  C   UNL     1       7.478   5.161   0.517  0.00  0.00    +0.047 A 
ATOM     19  C   UNL     1       6.725   4.004   0.502  0.00  0.00    +0.027 A 
BRANCH  17  20
ATOM     20  O   UNL     1       7.682   7.484   0.050  0.00  0.00    -0.495 OA
ATOM     21  C   UNL     1       7.065   8.667  -0.461  0.00  0.00    +0.277 C 
ENDBRANCH  17  20
ENDBRANCH   9  14
BRANCH   6  22
ATOM     22  C   UNL     1       1.362   1.692  -1.028  0.00  0.00    -0.035 A 
ATOM     23  C   UNL     1       0.216   0.966  -1.298  0.00  0.00    +0.007 A 
ATOM     24  C   UNL     1      -0.872   1.585  -1.884  0.00  0.00    +0.033 A 
ATOM     25  C   UNL     1      -0.819   2.932  -2.191  0.00  0.00    +0.126 A 
ATOM     26  C   UNL     1       0.326   3.658  -1.920  0.00  0.00    +0.033 A 
ATOM     27  C   UNL     1       1.416   3.038  -1.338  0.00  0.00    +0.007 A 
BRANCH  25  28
ATOM     28  N   UNL     1      -1.986   3.595  -2.814  0.00  0.00    +0.056 N 
ATOM     29  O   UNL     1      -1.938   4.781  -3.088  0.00  0.00    -0.126 OA
ATOM     30  O   UNL     1      -2.995   2.956  -3.052  0.00  0.00    -0.126 OA
ENDBRANCH  25  28
ENDBRANCH   6  22
BRANCH   8  31
ATOM     31  N   UNL     1       5.779   2.092  -1.973  0.00  0.00    -0.345 N 
ATOM     32  H   UNL     1       5.861   1.450  -2.695  0.00  0.00    +0.144 HD
ATOM     33  H   UNL     1       6.446   2.789  -1.865  0.00  0.00    +0.144 HD
ENDBRANCH   8  31
BRANCH   7  34
ATOM     34  C   UNL     1       3.800   0.247  -2.458  0.00  0.00    +0.099 C 
ATOM     35  N   UNL     1       3.860  -0.442  -3.359  0.00  0.00    -0.191 NA
ENDBRANCH   7  34
TORSDOF 6
