REMARK  Name = ZINC40173481
REMARK  10 active torsions:
REMARK  status: ('A' for Active; 'I' for Inactive)
REMARK    1  A    between atoms: C_1  and  C_2
REMARK    2  A    between atoms: C_2  and  C_4
REMARK    3  A    between atoms: C_2  and  N_20
REMARK    4  A    between atoms: N_6  and  C_7
REMARK    5  A    between atoms: C_8  and  C_16
REMARK    6  A    between atoms: C_16  and  O_18
REMARK    7  A    between atoms: O_18  and  C_19
REMARK    8  A    between atoms: C_24  and  S_25
REMARK    9  A    between atoms: S_25  and  C_26
REMARK   10  A    between atoms: C_26  and  C_27
REMARK                            x       y       z     vdW  Elec       q    Type
REMARK                         _______ _______ _______ _____ _____    ______ ____
ROOT
ATOM      1  C   UNL     1       0.707  -0.490  -1.238  0.00  0.00    +0.240 C 
ATOM      2  O   UNL     1       1.704  -1.174  -1.140  0.00  0.00    -0.273 OA
ATOM      3  N   UNL     1       0.231  -0.164  -2.456  0.00  0.00    -0.278 N 
ATOM      4  H   UNL     1      -0.566   0.383  -2.534  0.00  0.00    +0.155 HD
ENDROOT
BRANCH   3   5
ATOM      5  C   UNL     1       0.880  -0.611  -3.596  0.00  0.00    +0.086 A 
ATOM      6  C   UNL     1       0.540  -0.372  -4.920  0.00  0.00    +0.091 A 
ATOM      7  C   UNL     1       1.392  -0.960  -5.940  0.00  0.00    -0.021 A 
ATOM      8  C   UNL     1       2.425  -1.678  -5.450  0.00  0.00    -0.004 A 
ATOM      9  S   UNL     1       2.262  -1.560  -3.693  0.00  0.00    -0.077 S 
ATOM     10  C   UNL     1       3.471  -2.403  -6.240  0.00  0.00    +0.043 C 
ATOM     11  C   UNL     1       2.982  -2.525  -7.691  0.00  0.00    +0.005 C 
ATOM     12  C   UNL     1       2.478  -1.157  -8.160  0.00  0.00    +0.005 C 
ATOM     13  C   UNL     1       1.175  -0.805  -7.438  0.00  0.00    +0.037 C 
BRANCH   6  14
ATOM     14  C   UNL     1      -0.628   0.437  -5.274  0.00  0.00    +0.342 C 
ATOM     15  O   UNL     1      -0.513   1.639  -5.419  0.00  0.00    -0.245 OA
BRANCH  14  16
ATOM     16  O   UNL     1      -1.831  -0.151  -5.439  0.00  0.00    -0.464 OA
ATOM     17  C   UNL     1      -2.926   0.700  -5.784  0.00  0.00    +0.280 C 
ENDBRANCH  14  16
ENDBRANCH   6  14
ENDBRANCH   3   5
BRANCH   1  19
ATOM     18  C   UNL     1      -0.019   1.526   0.010  0.00  0.00    +0.041 C 
ATOM     19  C   UNL     1       0.002  -0.004   0.002  0.00  0.00    +0.175 C 
BRANCH  19  20
ATOM     20  N   UNL     1       0.711  -0.489   1.189  0.00  0.00    -0.279 N 
ATOM     21  C   UNL     1       2.008  -0.215   1.518  0.00  0.00    +0.216 A 
ATOM     22  N   UNL     1       2.278  -0.825   2.645  0.00  0.00    -0.113 NA
ATOM     23  N   UNL     1       1.126  -1.510   3.054  0.00  0.00    -0.121 NA
ATOM     24  C   UNL     1       0.188  -1.291   2.165  0.00  0.00    +0.194 A 
ATOM     25  N   UNL     1       2.887   0.571   0.784  0.00  0.00    -0.328 N 
ATOM     26  H   UNL     1       2.594   0.984  -0.043  0.00  0.00    +0.145 HD
ATOM     27  H   UNL     1       3.794   0.709   1.100  0.00  0.00    +0.145 HD
BRANCH  24  28
ATOM     28  S   UNL     1      -1.456  -1.923   2.216  0.00  0.00    -0.071 S 
BRANCH  28  29
ATOM     29  C   UNL     1      -1.504  -2.897   3.745  0.00  0.00    +0.195 C 
BRANCH  29  30
ATOM     30  C   UNL     1      -2.842  -3.488   3.909  0.00  0.00    +0.074 C 
ATOM     31  N   UNL     1      -3.875  -3.943   4.035  0.00  0.00    -0.196 NA
ENDBRANCH  29  30
ENDBRANCH  28  29
ENDBRANCH  24  28
ENDBRANCH  19  20
ENDBRANCH   1  19
TORSDOF 8
