REMARK  Name = ZINC59153481
REMARK  8 active torsions:
REMARK  status: ('A' for Active; 'I' for Inactive)
REMARK    1  A    between atoms: C_1  and  C_2
REMARK    2  A    between atoms: C_4  and  C_27
REMARK    3  A    between atoms: C_5  and  O_9
REMARK    4  A    between atoms: C_6  and  C_8
REMARK    5  A    between atoms: O_9  and  C_10
REMARK    6  A    between atoms: C_10  and  C_11
REMARK    7  A    between atoms: N_13  and  N_14
REMARK    8  A    between atoms: N_22  and  C_25
REMARK                            x       y       z     vdW  Elec       q    Type
REMARK                         _______ _______ _______ _____ _____    ______ ____
ROOT
ATOM      1  C   UNL     1       1.160  -6.258  -0.038  0.00  0.00    +0.270 C 
ATOM      2  O   UNL     1       0.046  -6.736  -0.035  0.00  0.00    -0.270 OA
ATOM      3  N   UNL     1       2.239  -7.065  -0.048  0.00  0.00    -0.203 N 
ATOM      4  H   UNL     1       3.131  -6.683  -0.051  0.00  0.00    +0.177 HD
ENDROOT
BRANCH   3   5
ATOM      5  N   UNL     1       2.074  -8.456  -0.055  0.00  0.00    -0.174 NA
ATOM      6  C   UNL     1       3.123  -9.241  -0.064  0.00  0.00    +0.153 C 
ATOM      7  C   UNL     1       3.142 -10.722  -0.079  0.00  0.00    +0.029 A 
ATOM      8  C   UNL     1       2.141 -11.687  -0.086  0.00  0.00    +0.027 A 
ATOM      9  C   UNL     1       2.480 -13.026  -0.099  0.00  0.00    +0.019 A 
ATOM     10  C   UNL     1       3.813 -13.404  -0.105  0.00  0.00    +0.017 A 
ATOM     11  C   UNL     1       4.813 -12.453  -0.098  0.00  0.00    +0.025 A 
ATOM     12  C   UNL     1       4.491 -11.101  -0.085  0.00  0.00    +0.046 A 
ATOM     13  N   UNL     1       5.288  -9.961  -0.076  0.00  0.00    -0.269 N 
ATOM     14  C   UNL     1       4.545  -8.841  -0.070  0.00  0.00    +0.271 C 
ATOM     15  O   UNL     1       4.969  -7.701  -0.067  0.00  0.00    -0.268 OA
ATOM     16  C   UNL     1       6.753  -9.979  -0.079  0.00  0.00    +0.138 C 
ATOM     17 BR   UNL     1       1.124 -14.344  -0.108  0.00  0.00    -0.050 Br
ENDBRANCH   3   5
BRANCH   1  18
ATOM     18  C   UNL     1       1.338  -4.761  -0.031  0.00  0.00    +0.326 C 
BRANCH  18  19
ATOM     19  O   UNL     1       0.057  -4.129  -0.021  0.00  0.00    -0.482 OA
BRANCH  19  24
ATOM     20  C   UNL     1      -0.018   1.503   0.010  0.00  0.00    +0.044 C 
ATOM     21  C   UNL     1       0.002  -0.004   0.002  0.00  0.00    -0.050 A 
ATOM     22  C   UNL     1       0.006  -0.688  -1.200  0.00  0.00    +0.010 A 
ATOM     23  C   UNL     1       0.024  -2.069  -1.210  0.00  0.00    -0.008 A 
ATOM     24  C   UNL     1       0.039  -2.770  -0.013  0.00  0.00    +0.127 A 
ATOM     25  C   UNL     1       0.036  -2.082   1.191  0.00  0.00    -0.008 A 
ATOM     26  C   UNL     1       0.023  -0.701   1.196  0.00  0.00    +0.010 A 
ATOM     27  C   UNL     1       0.052  -2.841   2.493  0.00  0.00    +0.047 C 
ATOM     28  C   UNL     1       0.027  -2.813  -2.520  0.00  0.00    +0.047 C 
ENDBRANCH  19  24
ENDBRANCH  18  19
ENDBRANCH   1  18
TORSDOF 4
