REMARK  Name = ZINC31167890
REMARK  11 active torsions:
REMARK  status: ('A' for Active; 'I' for Inactive)
REMARK    1  A    between atoms: C_4  and  C_7
REMARK    2  A    between atoms: C_7  and  O_9
REMARK    3  A    between atoms: O_9  and  C_10
REMARK    4  A    between atoms: C_12  and  O_33
REMARK    5  A    between atoms: C_14  and  C_31
REMARK    6  A    between atoms: C_17  and  O_22
REMARK    7  A    between atoms: C_19  and  O_21
REMARK    8  A    between atoms: O_22  and  C_23
REMARK    9  A    between atoms: C_28  and  C_29
REMARK   10  A    between atoms: C_29  and  O_30
REMARK   11  A    between atoms: C_31  and  O_32
REMARK                            x       y       z     vdW  Elec       q    Type
REMARK                         _______ _______ _______ _____ _____    ______ ____
ROOT
ATOM      1  C   UNL     1       3.015  -1.102   5.280  0.00  0.00    +0.242 C 
ATOM      2  C   UNL     1       3.393   0.225   5.947  0.00  0.00    +0.189 C 
ATOM      3  C   UNL     1       2.178   1.155   5.940  0.00  0.00    +0.180 C 
ATOM      4  O   UNL     1       1.737   1.350   4.594  0.00  0.00    -0.331 OA
ATOM      5  C   UNL     1       1.326   0.150   3.936  0.00  0.00    +0.340 C 
ATOM      6  C   UNL     1       2.507  -0.821   3.863  0.00  0.00    +0.226 C 
ENDROOT
BRANCH   6   7
ATOM      7  O   UNL     1       2.084  -2.043   3.256  0.00  0.00    -0.382 OA
ATOM      8  H   UNL     1       1.685  -2.039   2.230  0.00  0.00    +0.210 HD
ENDBRANCH   6   7
BRANCH   2   9
ATOM      9  O   UNL     1       3.801  -0.018   7.295  0.00  0.00    -0.385 OA
ATOM     10  H   UNL     1       4.111   0.821   7.936  0.00  0.00    +0.210 HD
ENDBRANCH   2   9
BRANCH   1  11
ATOM     11  O   UNL     1       4.181  -1.965   5.216  0.00  0.00    -0.452 OA
BRANCH  11  12
ATOM     12  C   UNL     1       3.961  -3.293   5.253  0.00  0.00    +0.340 C 
ATOM     13  O   UNL     1       2.827  -3.719   5.337  0.00  0.00    -0.245 OA
BRANCH  12  17
ATOM     14  C   UNL     1       7.235  -5.993   5.076  0.00  0.00    +0.000 A 
ATOM     15  C   UNL     1       5.944  -6.481   5.172  0.00  0.00    +0.001 A 
ATOM     16  C   UNL     1       4.876  -5.610   5.230  0.00  0.00    +0.015 A 
ATOM     17  C   UNL     1       5.100  -4.232   5.192  0.00  0.00    +0.059 A 
ATOM     18  C   UNL     1       6.405  -3.747   5.090  0.00  0.00    +0.015 A 
ATOM     19  C   UNL     1       7.464  -4.629   5.038  0.00  0.00    +0.001 A 
ENDBRANCH  12  17
ENDBRANCH  11  12
ENDBRANCH   1  11
BRANCH   5  20
ATOM     20  O   UNL     1       0.882   0.461   2.614  0.00  0.00    -0.460 OA
BRANCH  20  21
ATOM     21  C   UNL     1      -0.232   1.232   2.502  0.00  0.00    +0.129 A 
ATOM     22  C   UNL     1      -0.881   1.685   3.641  0.00  0.00    +0.046 A 
ATOM     23  C   UNL     1      -2.015   2.465   3.525  0.00  0.00    +0.004 A 
ATOM     24  C   UNL     1      -2.501   2.798   2.274  0.00  0.00    +0.001 A 
ATOM     25  C   UNL     1      -1.853   2.352   1.137  0.00  0.00    +0.009 A 
ATOM     26  C   UNL     1      -0.718   1.572   1.248  0.00  0.00    +0.020 A 
BRANCH  26  27
ATOM     27  C   UNL     1      -0.013   1.086   0.008  0.00  0.00    +0.194 C 
BRANCH  27  28
ATOM     28  O   UNL     1      -0.704   1.559  -1.150  0.00  0.00    -0.390 OA
ATOM     29  H   UNL     1      -0.334   1.304  -2.154  0.00  0.00    +0.210 HD
ENDBRANCH  27  28
ENDBRANCH  26  27
ENDBRANCH  20  21
ENDBRANCH   5  20
BRANCH   3  30
ATOM     30  C   UNL     1       2.564   2.504   6.551  0.00  0.00    +0.190 C 
BRANCH  30  31
ATOM     31  O   UNL     1       1.403   3.332   6.650  0.00  0.00    -0.392 OA
ATOM     32  H   UNL     1       1.485   4.346   7.069  0.00  0.00    +0.210 HD
ENDBRANCH  30  31
ENDBRANCH   3  30
TORSDOF 11
