REMARK  Name = ZINC05095143
REMARK  6 active torsions:
REMARK  status: ('A' for Active; 'I' for Inactive)
REMARK    1  A    between atoms: C_3  and  O_30
REMARK    2  A    between atoms: C_6  and  C_7
REMARK    3  A    between atoms: C_11  and  C_21
REMARK    4  A    between atoms: C_16  and  N_20
REMARK    5  A    between atoms: C_17  and  C_18
REMARK    6  A    between atoms: C_24  and  N_27
REMARK                            x       y       z     vdW  Elec       q    Type
REMARK                         _______ _______ _______ _____ _____    ______ ____
ROOT
ATOM      1  C   UNL     1      -0.952  -1.008   0.124  0.00  0.00    +0.082 C 
ATOM      2  C   UNL     1      -1.259  -1.796   1.403  0.00  0.00    +0.140 C 
ATOM      3  C   UNL     1      -1.921  -0.910   2.434  0.00  0.00    +0.084 C 
ATOM      4  N   UNL     1      -3.117  -1.401   2.618  0.00  0.00    -0.150 NA
ATOM      5  N   UNL     1      -3.367  -2.504   1.801  0.00  0.00    -0.115 NA
ATOM      6  C   UNL     1      -2.360  -2.784   1.030  0.00  0.00    +0.227 C 
ATOM      7  O   UNL     1      -2.198  -3.663   0.018  0.00  0.00    -0.425 OA
ATOM      8  C   UNL     1      -1.527  -3.166  -1.053  0.00  0.00    +0.200 C 
ATOM      9  C   UNL     1      -0.933  -1.954  -1.046  0.00  0.00    +0.095 C 
ENDROOT
BRANCH   1  15
ATOM     10  C   UNL     1       0.492   1.036   0.169  0.00  0.00    +0.008 A 
ATOM     11  C   UNL     1       1.723   1.651   0.288  0.00  0.00    +0.045 A 
ATOM     12  C   UNL     1       2.862   0.885   0.493  0.00  0.00    +0.117 A 
ATOM     13  C   UNL     1       2.760  -0.496   0.578  0.00  0.00    +0.045 A 
ATOM     14  C   UNL     1       1.527  -1.105   0.458  0.00  0.00    +0.008 A 
ATOM     15  C   UNL     1       0.393  -0.340   0.254  0.00  0.00    -0.038 A 
BRANCH  12  16
ATOM     16  O   UNL     1       4.075   1.487   0.610  0.00  0.00    -0.507 OA
ATOM     17  H   UNL     1       4.311   1.724   1.517  0.00  0.00    +0.292 HD
ENDBRANCH  12  16
ENDBRANCH   1  15
BRANCH   3  18
ATOM     18  C   UNL     1      -1.337   0.267   3.096  0.00  0.00    -0.001 A 
ATOM     19  C   UNL     1      -2.166   1.266   3.614  0.00  0.00    +0.012 A 
ATOM     20  C   UNL     1      -1.611   2.366   4.234  0.00  0.00    +0.033 A 
ATOM     21  C   UNL     1      -0.236   2.482   4.344  0.00  0.00    +0.126 A 
ATOM     22  C   UNL     1       0.592   1.496   3.835  0.00  0.00    +0.033 A 
ATOM     23  C   UNL     1       0.051   0.388   3.217  0.00  0.00    +0.012 A 
BRANCH  21  24
ATOM     24  N   UNL     1       0.352   3.665   5.011  0.00  0.00    +0.056 N 
ATOM     25  O   UNL     1      -0.368   4.528   5.457  0.00  0.00    -0.126 OA
ATOM     26  O   UNL     1       1.552   3.770   5.109  0.00  0.00    -0.126 OA
ENDBRANCH  21  24
ENDBRANCH   3  18
BRANCH   8  27
ATOM     27  N   UNL     1      -1.451  -3.928  -2.192  0.00  0.00    -0.328 N 
ATOM     28  H   UNL     1      -1.872  -4.801  -2.221  0.00  0.00    +0.145 HD
ATOM     29  H   UNL     1      -0.977  -3.592  -2.969  0.00  0.00    +0.145 HD
ENDBRANCH   8  27
BRANCH   9  30
ATOM     30  C   UNL     1      -0.238  -1.542  -2.228  0.00  0.00    +0.100 C 
ATOM     31  N   UNL     1       0.314  -1.215  -3.166  0.00  0.00    -0.191 NA
ENDBRANCH   9  30
TORSDOF 6
