REMARK  Name = ZINC39631234
REMARK  14 active torsions:
REMARK  status: ('A' for Active; 'I' for Inactive)
REMARK    1  A    between atoms: C_1  and  C_2
REMARK    2  A    between atoms: C_2  and  C_4
REMARK    3  A    between atoms: C_2  and  N_11
REMARK    4  A    between atoms: C_4  and  C_5
REMARK    5  A    between atoms: C_5  and  C_6
REMARK    6  A    between atoms: C_6  and  C_7
REMARK    7  A    between atoms: C_7  and  C_8
REMARK    8  A    between atoms: C_7  and  C_9
REMARK    9  A    between atoms: C_7  and  O_10
REMARK   10  A    between atoms: C_12  and  C_14
REMARK   11  A    between atoms: C_25  and  C_27
REMARK   12  A    between atoms: C_32  and  O_33
REMARK   13  A    between atoms: O_33  and  C_34
REMARK   14  A    between atoms: C_34  and  C_36
REMARK                            x       y       z     vdW  Elec       q    Type
REMARK                         _______ _______ _______ _____ _____    ______ ____
ROOT
ATOM      1  C   UNL     1       0.963  -0.945   3.982  0.00  0.00    +0.100 C 
ATOM      2  C   UNL     1       1.322  -2.399   3.600  0.00  0.00    +0.121 C 
ATOM      3  N   UNL     1       1.048  -3.186   4.825  0.00  0.00    -0.296 N 
ATOM      4  C   UNL     1      -0.195  -2.592   5.374  0.00  0.00    +0.115 C 
ATOM      5  C   UNL     1      -0.033  -1.077   5.145  0.00  0.00    -0.004 C 
ATOM      6  C   UNL     1       0.527  -0.411   6.399  0.00  0.00    -0.010 C 
ATOM      7  C   UNL     1      -0.505  -0.505   7.526  0.00  0.00    -0.082 C 
ATOM      8  N   UNL     1      -1.748   0.156   7.110  0.00  0.00    +0.379 N 
ATOM      9  C   UNL     1      -2.329  -0.546   5.960  0.00  0.00    -0.082 C 
ATOM     10  C   UNL     1      -1.374  -0.454   4.767  0.00  0.00    -0.010 C 
ATOM     11  C   UNL     1       1.766  -4.210   5.327  0.00  0.00    +0.250 C 
ATOM     12  O   UNL     1       1.358  -4.821   6.296  0.00  0.00    -0.270 OA
ATOM     13  H   UNL     1      -2.405   0.146   7.876  0.00  0.00    -0.086 HD
ATOM     14  H   UNL     1      -1.549   1.112   6.853  0.00  0.00    -0.086 HD
ENDROOT
BRANCH  11  15
ATOM     15  C   UNL     1       3.047  -4.590   4.701  0.00  0.00    +0.079 A 
ATOM     16  C   UNL     1       3.208  -4.492   3.317  0.00  0.00    +0.017 A 
ATOM     17  C   UNL     1       4.407  -4.848   2.738  0.00  0.00    +0.001 A 
ATOM     18  C   UNL     1       5.454  -5.303   3.523  0.00  0.00    +0.004 A 
ATOM     19  C   UNL     1       5.308  -5.404   4.892  0.00  0.00    +0.047 A 
ATOM     20  C   UNL     1       4.110  -5.045   5.492  0.00  0.00    +0.144 A 
BRANCH  20  21
ATOM     21  O   UNL     1       3.967  -5.139   6.838  0.00  0.00    -0.425 OA
BRANCH  21  22
ATOM     22  C   UNL     1       4.234  -4.051   7.578  0.00  0.00    +0.309 C 
ATOM     23  O   UNL     1       4.502  -3.004   7.038  0.00  0.00    -0.251 OA
ATOM     24  C   UNL     1       4.201  -4.136   9.082  0.00  0.00    +0.136 C 
ENDBRANCH  21  22
ENDBRANCH  20  21
ENDBRANCH  11  15
BRANCH   1  26
ATOM     25  N   UNL     1       0.359   1.104   2.735  0.00  0.00    -0.312 N 
ATOM     26  C   UNL     1       0.319  -0.240   2.816  0.00  0.00    +0.218 C 
ATOM     27  O   UNL     1      -0.237  -0.884   1.950  0.00  0.00    -0.275 OA
ATOM     28  H   UNL     1       0.803   1.619   3.427  0.00  0.00    +0.149 HD
BRANCH  25  30
ATOM     29  C   UNL     1      -1.756   1.997   1.891  0.00  0.00    +0.028 C 
ATOM     30  C   UNL     1      -0.268   1.789   1.601  0.00  0.00    +0.070 C 
BRANCH  30  31
ATOM     31  C   UNL     1       0.405   3.146   1.390  0.00  0.00    +0.022 C 
BRANCH  31  32
ATOM     32  C   UNL     1       1.863   2.934   0.978  0.00  0.00    +0.005 C 
BRANCH  32  33
ATOM     33  C   UNL     1       2.537   4.291   0.766  0.00  0.00    +0.034 C 
BRANCH  33  34
ATOM     34  C   UNL     1       3.995   4.078   0.354  0.00  0.00    +0.061 C 
ATOM     35  C   UNL     1       4.702   5.432   0.264  0.00  0.00    +0.041 C 
ATOM     36  C   UNL     1       4.697   3.205   1.396  0.00  0.00    +0.041 C 
BRANCH  34  37
ATOM     37  O   UNL     1       4.041   3.431  -0.919  0.00  0.00    -0.389 OA
ATOM     38  H   UNL     1       3.613   3.929  -1.629  0.00  0.00    +0.210 HD
ENDBRANCH  34  37
ENDBRANCH  33  34
ENDBRANCH  32  33
ENDBRANCH  31  32
ENDBRANCH  30  31
ENDBRANCH  25  30
ENDBRANCH   1  26
TORSDOF 10
