REMARK  Name = ZINC50900264
REMARK  9 active torsions:
REMARK  status: ('A' for Active; 'I' for Inactive)
REMARK    1  A    between atoms: C_1  and  C_2
REMARK    2  A    between atoms: C_2  and  C_3
REMARK    3  A    between atoms: C_3  and  N_4
REMARK    4  A    between atoms: C_5  and  C_7
REMARK    5  A    between atoms: N_12  and  C_14
REMARK    6  A    between atoms: C_14  and  N_15
REMARK    7  A    between atoms: C_18  and  C_22
REMARK    8  A    between atoms: C_18  and  C_24
REMARK    9  A    between atoms: C_22  and  C_23
REMARK                            x       y       z     vdW  Elec       q    Type
REMARK                         _______ _______ _______ _____ _____    ______ ____
ROOT
ATOM      1  N   UNL     1       2.957  -8.019  -4.681  0.00  0.00    -0.241 N 
ATOM      2  C   UNL     1       3.974  -8.666  -4.079  0.00  0.00    +0.249 C 
ATOM      3  O   UNL     1       4.918  -8.170  -3.501  0.00  0.00    -0.272 OA
ATOM      4  C   UNL     1       3.691 -10.143  -4.271  0.00  0.00    +0.138 C 
ATOM      5  N   UNL     1       2.429 -10.158  -5.032  0.00  0.00    -0.281 N 
ATOM      6  C   UNL     1       2.078  -8.873  -5.218  0.00  0.00    +0.308 C 
ATOM      7  O   UNL     1       1.075  -8.526  -5.811  0.00  0.00    -0.252 OA
ATOM      8  H   UNL     1       1.945 -10.941  -5.336  0.00  0.00    +0.152 HD
ENDROOT
BRANCH   4   9
ATOM      9  C   UNL     1       3.516 -10.828  -2.941  0.00  0.00    -0.015 A 
ATOM     10  C   UNL     1       4.609 -11.379  -2.298  0.00  0.00    +0.006 A 
ATOM     11  C   UNL     1       4.448 -12.007  -1.077  0.00  0.00    +0.000 A 
ATOM     12  C   UNL     1       3.195 -12.083  -0.498  0.00  0.00    +0.000 A 
ATOM     13  C   UNL     1       2.102 -11.531  -1.141  0.00  0.00    +0.000 A 
ATOM     14  C   UNL     1       2.264 -10.899  -2.360  0.00  0.00    +0.006 A 
ENDBRANCH   4   9
BRANCH   4  15
ATOM     15  C   UNL     1       4.812 -10.805  -5.075  0.00  0.00    +0.037 C 
ATOM     16  C   UNL     1       4.930 -10.125  -6.441  0.00  0.00    +0.007 C 
ENDBRANCH   4  15
BRANCH   1  17
ATOM     17  C   UNL     1       2.827  -6.561  -4.736  0.00  0.00    +0.043 C 
BRANCH  17  22
ATOM     18  C   UNL     1       1.341  -4.130  -2.293  0.00  0.00    +0.058 C 
ATOM     19  C   UNL     1      -0.095  -4.661  -2.284  0.00  0.00    +0.009 C 
ATOM     20  C   UNL     1      -0.064  -6.189  -2.372  0.00  0.00    -0.018 C 
ATOM     21  C   UNL     1       0.701  -6.607  -3.630  0.00  0.00    -0.077 C 
ATOM     22  N   UNL     1       2.074  -6.092  -3.565  0.00  0.00    +0.391 N 
ATOM     23  C   UNL     1       2.056  -4.624  -3.553  0.00  0.00    -0.064 C 
ATOM     24  H   UNL     1       2.519  -6.428  -2.725  0.00  0.00    -0.079 HD
BRANCH  18  26
ATOM     25  N   UNL     1       0.738  -1.962  -1.265  0.00  0.00    -0.315 N 
ATOM     26  C   UNL     1       1.321  -2.623  -2.285  0.00  0.00    +0.214 C 
ATOM     27  O   UNL     1       1.829  -2.004  -3.196  0.00  0.00    -0.276 OA
ATOM     28  H   UNL     1       0.332  -2.457  -0.536  0.00  0.00    +0.149 HD
BRANCH  25  29
ATOM     29  C   UNL     1       0.718  -0.497  -1.257  0.00  0.00    +0.104 C 
BRANCH  29  31
ATOM     30  C   UNL     1      -0.019   1.526   0.010  0.00  0.00    +0.005 C 
ATOM     31  C   UNL     1       0.002  -0.004   0.002  0.00  0.00    +0.015 C 
ENDBRANCH  29  31
ENDBRANCH  25  29
ENDBRANCH  18  26
ENDBRANCH  17  22
ENDBRANCH   1  17
TORSDOF 7
