REMARK  Name = ZINC61594048
REMARK  7 active torsions:
REMARK  status: ('A' for Active; 'I' for Inactive)
REMARK    1  A    between atoms: C_1  and  C_2
REMARK    2  A    between atoms: C_2  and  C_3
REMARK    3  A    between atoms: C_3  and  N_4
REMARK    4  A    between atoms: C_10  and  S_11
REMARK    5  A    between atoms: S_11  and  C_12
REMARK    6  A    between atoms: C_15  and  N_19
REMARK    7  A    between atoms: C_16  and  C_18
REMARK                            x       y       z     vdW  Elec       q    Type
REMARK                         _______ _______ _______ _____ _____    ______ ____
ROOT
ATOM      1  S   UNL     1      -1.383  -2.261   2.791  0.00  0.00    -0.050 S 
ENDROOT
BRANCH   1   8
ATOM      2  N   UNL     1      -1.405  -2.000   0.005  0.00  0.00    -0.270 N 
ATOM      3  C   UNL     1      -1.388  -2.783  -1.092  0.00  0.00    +0.345 A 
ATOM      4  O   UNL     1      -1.397  -2.402  -2.249  0.00  0.00    -0.245 OA
ATOM      5  N   UNL     1      -1.359  -4.066  -0.676  0.00  0.00    -0.226 N 
ATOM      6  H   UNL     1      -1.342  -4.853  -1.242  0.00  0.00    +0.194 HD
ATOM      7  N   UNL     1      -1.359  -4.053   0.726  0.00  0.00    -0.144 NA
ATOM      8  C   UNL     1      -1.381  -2.811   1.117  0.00  0.00    +0.197 A 
BRANCH   2   9
ATOM      9  C   UNL     1      -1.436  -0.535   0.012  0.00  0.00    +0.129 C 
BRANCH   9  11
ATOM     10  C   UNL     1      -0.038   1.536   0.014  0.00  0.00    +0.005 C 
ATOM     11  C   UNL     1      -0.005   0.006   0.006  0.00  0.00    +0.018 C 
ENDBRANCH   9  11
ENDBRANCH   2   9
ENDBRANCH   1   8
BRANCH   1  12
ATOM     12  C   UNL     1      -1.503  -3.748   3.728  0.00  0.00    +0.016 A 
ATOM     13  C   UNL     1      -0.353  -4.359   4.213  0.00  0.00    +0.017 A 
ATOM     14  C   UNL     1      -0.447  -5.524   4.947  0.00  0.00    +0.024 A 
ATOM     15  C   UNL     1      -1.692  -6.085   5.202  0.00  0.00    +0.028 A 
ATOM     16  C   UNL     1      -2.841  -5.475   4.717  0.00  0.00    -0.029 A 
ATOM     17  C   UNL     1      -2.748  -4.306   3.988  0.00  0.00    +0.020 A 
ATOM     18  C   UNL     1      -4.191  -6.085   4.993  0.00  0.00    +0.045 C 
BRANCH  15  19
ATOM     19  N   UNL     1      -1.787  -7.266   5.946  0.00  0.00    -0.358 N 
ATOM     20  H   UNL     1      -0.984  -7.693   6.285  0.00  0.00    +0.142 HD
ATOM     21  H   UNL     1      -2.656  -7.659   6.124  0.00  0.00    +0.142 HD
ENDBRANCH  15  19
ENDBRANCH   1  12
TORSDOF 5
