REMARK  Name = ZINC24992021
REMARK  9 active torsions:
REMARK  status: ('A' for Active; 'I' for Inactive)
REMARK    1  A    between atoms: C_1  and  C_2
REMARK    2  A    between atoms: C_3  and  C_8
REMARK    3  A    between atoms: C_4  and  N_7
REMARK    4  A    between atoms: C_8  and  O_10
REMARK    5  A    between atoms: O_10  and  C_11
REMARK    6  A    between atoms: C_11  and  C_13
REMARK    7  A    between atoms: C_11  and  C_14
REMARK    8  A    between atoms: C_26  and  C_27
REMARK    9  A    between atoms: C_26  and  C_28
REMARK                            x       y       z     vdW  Elec       q    Type
REMARK                         _______ _______ _______ _____ _____    ______ ____
ROOT
ATOM      1  C   UNL     1      -0.180  -0.699  -1.148  0.00  0.00    +0.261 C 
ATOM      2  O   UNL     1      -1.151  -0.002  -1.356  0.00  0.00    -0.271 OA
ATOM      3  N   UNL     1       0.939  -0.157  -0.629  0.00  0.00    -0.252 N 
ATOM      4  C   UNL     1       2.082  -0.939  -0.396  0.00  0.00    +0.059 A 
ATOM      5  C   UNL     1       1.977  -2.287  -0.101  0.00  0.00    +0.025 A 
ATOM      6  C   UNL     1       3.121  -3.030   0.127  0.00  0.00    +0.002 A 
ATOM      7  C   UNL     1       4.365  -2.429   0.062  0.00  0.00    +0.002 A 
ATOM      8  C   UNL     1       4.477  -1.083  -0.234  0.00  0.00    +0.025 A 
ATOM      9  C   UNL     1       3.336  -0.331  -0.466  0.00  0.00    +0.055 A 
ATOM     10  N   UNL     1       3.427   1.031  -0.772  0.00  0.00    -0.282 N 
ATOM     11  C   UNL     1       2.338   1.821  -0.724  0.00  0.00    +0.241 C 
ATOM     12  O   UNL     1       2.431   2.990  -1.036  0.00  0.00    -0.273 OA
ATOM     13  C   UNL     1       1.004   1.272  -0.288  0.00  0.00    +0.113 C 
ATOM     14  C   UNL     1      -0.119   2.021  -1.009  0.00  0.00    +0.042 C 
ATOM     15  C   UNL     1       0.849   1.445   1.224  0.00  0.00    +0.042 C 
ATOM     16  H   UNL     1       4.396   1.467  -1.056  0.00  0.00    +0.155 HD
ENDROOT
BRANCH   1  17
ATOM     17  C   UNL     1      -0.227  -2.171  -1.468  0.00  0.00    +0.259 C 
ATOM     18  C   UNL     1      -0.867  -2.927  -0.302  0.00  0.00    +0.062 C 
BRANCH  17  19
ATOM     19  O   UNL     1      -1.013  -2.380  -2.671  0.00  0.00    -0.449 OA
BRANCH  19  20
ATOM     20  C   UNL     1      -0.684  -3.436  -3.442  0.00  0.00    +0.344 C 
ATOM     21  O   UNL     1       0.236  -4.162  -3.118  0.00  0.00    -0.245 OA
BRANCH  20  24
ATOM     22  C   UNL     1      -3.066  -5.168  -3.424  0.00  0.00    +0.067 C 
ATOM     23  C   UNL     1      -2.565  -4.523  -4.691  0.00  0.00    +0.063 A 
ATOM     24  C   UNL     1      -1.434  -3.708  -4.671  0.00  0.00    +0.109 A 
ATOM     25  C   UNL     1      -1.071  -3.163  -5.909  0.00  0.00    +0.097 A 
ATOM     26  S   UNL     1      -2.284  -3.816  -6.959  0.00  0.00    +0.027 S 
ATOM     27  N   UNL     1      -3.182  -4.719  -5.822  0.00  0.00    -0.213 NA
BRANCH  25  28
ATOM     28  N   UNL     1      -0.018  -2.324  -6.213  0.00  0.00    -0.351 N 
ATOM     29  H   UNL     1       0.131  -1.982  -7.248  0.00  0.00    +0.143 HD
ATOM     30  H   UNL     1       0.672  -1.998  -5.421  0.00  0.00    +0.143 HD
ENDBRANCH  25  28
ENDBRANCH  20  24
ENDBRANCH  19  20
ENDBRANCH  17  19
ENDBRANCH   1  17
TORSDOF 5
