REMARK  Name = ZINC37352154
REMARK  6 active torsions:
REMARK  status: ('A' for Active; 'I' for Inactive)
REMARK    1  A    between atoms: C_4  and  S_10
REMARK    2  A    between atoms: C_5  and  N_7
REMARK    3  A    between atoms: S_10  and  C_11
REMARK    4  A    between atoms: C_11  and  C_12
REMARK    5  A    between atoms: C_12  and  C_14
REMARK    6  A    between atoms: C_19  and  O_20
REMARK                            x       y       z     vdW  Elec       q    Type
REMARK                         _______ _______ _______ _____ _____    ______ ____
ROOT
ATOM      1  C   UNL     1       5.179   0.497  -0.047  0.00  0.00    +0.154 C 
ENDROOT
BRANCH   1   2
ATOM      2  C   UNL     1       6.559  -0.108  -0.065  0.00  0.00    +0.177 C 
ATOM      3  O   UNL     1       6.693  -1.314  -0.072  0.00  0.00    -0.291 OA
BRANCH   2   4
ATOM      4  C   UNL     1       7.742   0.762  -0.072  0.00  0.00    +0.062 A 
ATOM      5  C   UNL     1       7.593   2.154  -0.057  0.00  0.00    +0.053 A 
ATOM      6  C   UNL     1       8.709   2.964  -0.064  0.00  0.00    +0.124 A 
ATOM      7  C   UNL     1       9.979   2.405  -0.086  0.00  0.00    +0.042 A 
ATOM      8  C   UNL     1      10.140   1.034  -0.100  0.00  0.00    +0.049 A 
ATOM      9  C   UNL     1       9.030   0.203  -0.088  0.00  0.00    +0.128 A 
ATOM     10  F   UNL     1       8.565   4.307  -0.050  0.00  0.00    -0.205 F 
BRANCH   9  11
ATOM     11  O   UNL     1       9.188  -1.145  -0.097  0.00  0.00    -0.506 OA
ATOM     12  H   UNL     1       9.225  -1.530  -0.983  0.00  0.00    +0.292 HD
ENDBRANCH   9  11
ENDBRANCH   2   4
ENDBRANCH   1   2
BRANCH   1  13
ATOM     13  S   UNL     1       3.939  -0.827  -0.042  0.00  0.00    -0.115 S 
BRANCH  13  17
ATOM     14  C   UNL     1      -0.017   1.379   0.010  0.00  0.00    +0.002 A 
ATOM     15  C   UNL     1       1.170   2.090   0.002  0.00  0.00    +0.001 A 
ATOM     16  C   UNL     1       2.377   1.421  -0.013  0.00  0.00    +0.017 A 
ATOM     17  C   UNL     1       2.400   0.031  -0.021  0.00  0.00    +0.038 A 
ATOM     18  C   UNL     1       1.206  -0.680  -0.013  0.00  0.00    +0.140 A 
ATOM     19  C   UNL     1       0.002  -0.004   0.002  0.00  0.00    +0.034 A 
BRANCH  18  20
ATOM     20  N   UNL     1       1.225  -2.160  -0.022  0.00  0.00    +0.058 N 
ATOM     21  O   UNL     1       0.186  -2.778  -0.015  0.00  0.00    -0.126 OA
ATOM     22  O   UNL     1       2.280  -2.751  -0.036  0.00  0.00    -0.126 OA
ENDBRANCH  18  20
ENDBRANCH  13  17
ENDBRANCH   1  13
TORSDOF 6
