REMARK  Name = ZINC65547927
REMARK  9 active torsions:
REMARK  status: ('A' for Active; 'I' for Inactive)
REMARK    1  A    between atoms: C_1  and  C_2
REMARK    2  A    between atoms: C_7  and  C_9
REMARK    3  A    between atoms: C_7  and  O_31
REMARK    4  A    between atoms: C_9  and  N_10
REMARK    5  A    between atoms: N_10  and  C_11
REMARK    6  A    between atoms: C_14  and  S_20
REMARK    7  A    between atoms: C_16  and  N_17
REMARK    8  A    between atoms: S_20  and  N_23
REMARK    9  A    between atoms: N_23  and  C_24
REMARK                            x       y       z     vdW  Elec       q    Type
REMARK                         _______ _______ _______ _____ _____    ______ ____
ROOT
ATOM      1  C   UNL     1       2.499  -4.719   3.309  0.00  0.00    +0.058 A 
ATOM      2  C   UNL     1       3.106  -4.021   4.346  0.00  0.00    +0.027 A 
ATOM      3  C   UNL     1       3.513  -4.692   5.482  0.00  0.00    +0.031 A 
ATOM      4  C   UNL     1       3.317  -6.057   5.589  0.00  0.00    +0.113 A 
ATOM      5  C   UNL     1       2.714  -6.755   4.559  0.00  0.00    +0.063 A 
ATOM      6  C   UNL     1       2.299  -6.089   3.422  0.00  0.00    +0.149 A 
ENDROOT
BRANCH   6   7
ATOM      7  N   UNL     1       1.647  -6.835   2.322  0.00  0.00    +0.058 N 
ATOM      8  O   UNL     1       0.736  -6.332   1.707  0.00  0.00    -0.126 OA
ATOM      9  O   UNL     1       2.026  -7.948   2.039  0.00  0.00    -0.126 OA
ENDBRANCH   6   7
BRANCH   4  10
ATOM     10  S   UNL     1       3.838  -6.909   7.040  0.00  0.00    +0.092 S 
ATOM     11  O   UNL     1       4.036  -8.266   6.666  0.00  0.00    -0.148 OA
ATOM     12  O   UNL     1       4.867  -6.123   7.626  0.00  0.00    -0.148 OA
BRANCH  10  13
ATOM     13  N   UNL     1       2.567  -6.891   8.101  0.00  0.00    -0.096 NA
BRANCH  13  14
ATOM     14  C   UNL     1       2.693  -7.500   9.353  0.00  0.00    +0.093 A 
ATOM     15  C   UNL     1       3.885  -8.117   9.710  0.00  0.00    +0.028 A 
ATOM     16  C   UNL     1       4.006  -8.717  10.948  0.00  0.00    +0.002 A 
ATOM     17  C   UNL     1       2.942  -8.707  11.832  0.00  0.00    +0.002 A 
ATOM     18  C   UNL     1       1.754  -8.094  11.479  0.00  0.00    +0.022 A 
ATOM     19  C   UNL     1       1.627  -7.486  10.245  0.00  0.00    +0.065 A 
ATOM     20 CL   UNL     1       0.137  -6.712   9.806  0.00  0.00    -0.082 Cl
ENDBRANCH  13  14
ENDBRANCH  10  13
ENDBRANCH   4  10
BRANCH   1  21
ATOM     21  N   UNL     1       2.086  -4.043   2.159  0.00  0.00    -0.339 N 
ATOM     22  H   UNL     1       1.740  -4.542   1.402  0.00  0.00    +0.146 HD
BRANCH  21  23
ATOM     23  C   UNL     1       2.174  -2.582   2.096  0.00  0.00    +0.136 C 
BRANCH  23  29
ATOM     24  C   UNL     1       1.564   1.408  -0.849  0.00  0.00    +0.007 C 
ATOM     25  C   UNL     1       1.357  -0.103  -0.735  0.00  0.00    -0.011 C 
ATOM     26  C   UNL     1       2.127  -0.810  -1.852  0.00  0.00    +0.003 C 
ATOM     27  C   UNL     1       1.920  -2.321  -1.738  0.00  0.00    +0.003 C 
ATOM     28  C   UNL     1       2.432  -2.805  -0.379  0.00  0.00    +0.036 C 
ATOM     29  C   UNL     1       1.662  -2.099   0.738  0.00  0.00    +0.082 C 
ATOM     30  C   UNL     1       1.869  -0.587   0.623  0.00  0.00    +0.039 C 
BRANCH  29  31
ATOM     31  O   UNL     1       0.269  -2.399   0.620  0.00  0.00    -0.387 OA
ATOM     32  H   UNL     1       0.063  -3.341   0.683  0.00  0.00    +0.210 HD
ENDBRANCH  29  31
ENDBRANCH  23  29
ENDBRANCH  21  23
ENDBRANCH   1  21
TORSDOF 8
