REMARK  Name = ZINC52459978
REMARK  12 active torsions:
REMARK  status: ('A' for Active; 'I' for Inactive)
REMARK    1  A    between atoms: C_1  and  C_2
REMARK    2  A    between atoms: C_2  and  C_3
REMARK    3  A    between atoms: C_3  and  N_4
REMARK    4  A    between atoms: C_5  and  C_7
REMARK    5  A    between atoms: C_7  and  C_9
REMARK    6  A    between atoms: C_7  and  S_10
REMARK    7  A    between atoms: S_10  and  C_11
REMARK    8  A    between atoms: C_14  and  C_17
REMARK    9  A    between atoms: N_15  and  N_16
REMARK   10  A    between atoms: C_22  and  O_23
REMARK   11  A    between atoms: O_23  and  C_24
REMARK   12  A    between atoms: C_24  and  C_25
REMARK                            x       y       z     vdW  Elec       q    Type
REMARK                         _______ _______ _______ _____ _____    ______ ____
ROOT
ATOM      1  C   UNL     1      -3.886  -6.570  -0.713  0.00  0.00    +0.209 A 
ATOM      2  N   UNL     1      -2.767  -7.214  -0.470  0.00  0.00    -0.121 NA
ATOM      3  N   UNL     1      -2.917  -8.467  -0.710  0.00  0.00    -0.127 NA
ATOM      4  C   UNL     1      -4.142  -8.701  -1.122  0.00  0.00    +0.185 A 
ATOM      5  N   UNL     1      -4.802  -7.494  -1.131  0.00  0.00    -0.224 N 
ENDROOT
BRANCH   4   6
ATOM      6  C   UNL     1      -4.707 -10.013  -1.500  0.00  0.00    +0.062 A 
ATOM      7  C   UNL     1      -5.442 -10.148  -2.678  0.00  0.00    +0.015 A 
ATOM      8  C   UNL     1      -5.966 -11.376  -3.025  0.00  0.00    +0.001 A 
ATOM      9  C   UNL     1      -5.767 -12.475  -2.208  0.00  0.00    +0.004 A 
ATOM     10  C   UNL     1      -5.040 -12.354  -1.039  0.00  0.00    +0.046 A 
ATOM     11  C   UNL     1      -4.501 -11.130  -0.680  0.00  0.00    +0.131 A 
BRANCH  11  12
ATOM     12  O   UNL     1      -3.782 -11.011   0.466  0.00  0.00    -0.492 OA
BRANCH  12  13
ATOM     13  C   UNL     1      -3.614 -12.193   1.252  0.00  0.00    +0.226 C 
ATOM     14  C   UNL     1      -2.783 -11.865   2.494  0.00  0.00    +0.048 C 
ENDBRANCH  12  13
ENDBRANCH  11  12
ENDBRANCH   4   6
BRANCH   5  15
ATOM     15  N   UNL     1      -6.101  -7.266  -1.487  0.00  0.00    -0.295 N 
ATOM     16  H   UNL     1      -6.187  -7.152  -2.486  0.00  0.00    +0.163 HD
ATOM     17  H   UNL     1      -6.702  -8.004  -1.154  0.00  0.00    +0.163 HD
ENDBRANCH   5  15
BRANCH   1  18
ATOM     18  S   UNL     1      -4.157  -4.839  -0.527  0.00  0.00    -0.072 S 
BRANCH  18  19
ATOM     19  C   UNL     1      -2.560  -4.204   0.052  0.00  0.00    +0.137 C 
ATOM     20  C   UNL     1      -2.253  -4.781   1.435  0.00  0.00    +0.029 C 
BRANCH  19  22
ATOM     21  N   UNL     1      -1.485  -1.976   0.044  0.00  0.00    -0.314 N 
ATOM     22  C   UNL     1      -2.618  -2.700   0.136  0.00  0.00    +0.226 C 
ATOM     23  O   UNL     1      -3.684  -2.142   0.286  0.00  0.00    -0.275 OA
ATOM     24  H   UNL     1      -0.632  -2.423  -0.077  0.00  0.00    +0.149 HD
BRANCH  21  25
ATOM     25  C   UNL     1      -1.541  -0.514   0.126  0.00  0.00    +0.104 C 
BRANCH  25  27
ATOM     26  C   UNL     1      -0.187   1.585   0.080  0.00  0.00    +0.005 C 
ATOM     27  C   UNL     1      -0.128   0.058  -0.006  0.00  0.00    +0.015 C 
ENDBRANCH  25  27
ENDBRANCH  21  25
ENDBRANCH  19  22
ENDBRANCH  18  19
ENDBRANCH   1  18
TORSDOF 9
