REMARK  Name = ZINC65383077
REMARK  5 active torsions:
REMARK  status: ('A' for Active; 'I' for Inactive)
REMARK    1  A    between atoms: C_10  and  C_12
REMARK    2  A    between atoms: C_12  and  N_13
REMARK    3  A    between atoms: N_13  and  C_14
REMARK    4  A    between atoms: C_14  and  C_15
REMARK    5  A    between atoms: C_17  and  C_20
REMARK                            x       y       z     vdW  Elec       q    Type
REMARK                         _______ _______ _______ _____ _____    ______ ____
ROOT
ATOM      1  N   UNL     1       6.012  -0.615   0.827  0.00  0.00    -0.305 NA
ATOM      2  H   UNL     1       5.968  -1.612   0.975  0.00  0.00    +0.122 HD
ENDROOT
BRANCH   1   3
ATOM      3  C   UNL     1       4.679  -0.008   0.936  0.00  0.00    +0.117 C 
BRANCH   3  13
ATOM      4  C   UNL     1      -0.017   1.377   0.010  0.00  0.00    +0.000 A 
ATOM      5  C   UNL     1       1.173   2.081   0.002  0.00  0.00    +0.000 A 
ATOM      6  C   UNL     1       2.375   1.402  -0.015  0.00  0.00    +0.006 A 
ATOM      7  C   UNL     1       2.395   0.016  -0.024  0.00  0.00    -0.014 A 
ATOM      8  C   UNL     1       1.208  -0.686  -0.013  0.00  0.00    -0.040 A 
ATOM      9  C   UNL     1       0.002  -0.004   0.002  0.00  0.00    +0.004 A 
ATOM     10  C   UNL     1       1.189  -2.194  -0.009  0.00  0.00    +0.063 C 
ATOM     11  C   UNL     1       2.555  -2.730  -0.442  0.00  0.00    +0.165 C 
ATOM     12  O   UNL     1       3.568  -2.059   0.316  0.00  0.00    -0.370 OA
ATOM     13  C   UNL     1       3.727  -0.688  -0.050  0.00  0.00    +0.162 C 
ENDBRANCH   3  13
ENDBRANCH   1   3
BRANCH   1  14
ATOM     14  C   UNL     1       6.955   0.015   1.761  0.00  0.00    +0.180 C 
BRANCH  14  15
ATOM     15  C   UNL     1       8.308  -0.633   1.621  0.00  0.00    +0.242 A 
ATOM     16  N   UNL     1       9.255  -0.249   0.813  0.00  0.00    -0.188 NA
ATOM     17  C   UNL     1      10.329  -1.050   0.948  0.00  0.00    +0.237 A 
ATOM     18  N   UNL     1      10.061  -1.959   1.856  0.00  0.00    -0.053 NA
ATOM     19  O   UNL     1       8.742  -1.696   2.311  0.00  0.00    -0.336 OA
BRANCH  17  20
ATOM     20  C   UNL     1      11.596  -0.927   0.198  0.00  0.00    +0.175 A 
ATOM     21  C   UNL     1      12.681  -1.737   0.326  0.00  0.00    +0.053 A 
ATOM     22  C   UNL     1      13.652  -1.258  -0.574  0.00  0.00    +0.042 A 
ATOM     23  C   UNL     1      13.119  -0.191  -1.201  0.00  0.00    +0.196 A 
ATOM     24  O   UNL     1      11.875   0.003  -0.736  0.00  0.00    -0.460 OA
ENDBRANCH  17  20
ENDBRANCH  14  15
ENDBRANCH   1  14
TORSDOF 5
