REMARK  Name = ZINC12037359
REMARK  12 active torsions:
REMARK  status: ('A' for Active; 'I' for Inactive)
REMARK    1  A    between atoms: C_1  and  C_2
REMARK    2  A    between atoms: C_5  and  C_7
REMARK    3  A    between atoms: C_7  and  C_9
REMARK    4  A    between atoms: C_7  and  C_10
REMARK    5  A    between atoms: C_10  and  C_11
REMARK    6  A    between atoms: C_11  and  N_59
REMARK    7  A    between atoms: C_17  and  C_21
REMARK    8  A    between atoms: C_21  and  N_22
REMARK    9  A    between atoms: N_22  and  S_23
REMARK   10  A    between atoms: S_23  and  C_26
REMARK   11  A    between atoms: C_26  and  C_27
REMARK   12  A    between atoms: C_26  and  C_28
REMARK                            x       y       z     vdW  Elec       q    Type
REMARK                         _______ _______ _______ _____ _____    ______ ____
ROOT
ATOM      1  C   UNL     1       4.080  -0.158  -1.034  0.00  0.00    -0.071 C 
ATOM      2  C   UNL     1       3.533   0.818   0.013  0.00  0.00    +0.058 C 
ATOM      3  C   UNL     1       2.027   0.758  -0.007  0.00  0.00    +0.132 A 
ATOM      4  N   UNL     1       1.191   1.754   0.000  0.00  0.00    -0.134 NA
ATOM      5  N   UNL     1      -0.016   1.303   0.009  0.00  0.00    -0.133 NA
ATOM      6  C   UNL     1       0.002  -0.004   0.002  0.00  0.00    +0.149 A 
ATOM      7  N   UNL     1       1.297  -0.384  -0.021  0.00  0.00    -0.316 N 
ATOM      8  C   UNL     1       1.830  -1.746  -0.068  0.00  0.00    +0.106 C 
ATOM      9  C   UNL     1       3.219  -1.765   0.578  0.00  0.00    -0.057 C 
ATOM     10  N   UNL     1       4.277  -1.490  -0.422  0.00  0.00    +0.381 N 
ATOM     11  H   UNL     1       5.189  -1.505   0.049  0.00  0.00    -0.082 HD
ENDROOT
BRANCH  10  12
ATOM     12  C   UNL     1       4.262  -2.529  -1.467  0.00  0.00    -0.078 C 
BRANCH  12  13
ATOM     13  C   UNL     1       5.491  -2.341  -2.359  0.00  0.00    -0.008 C 
BRANCH  13  14
ATOM     14  C   UNL     1       5.512  -3.429  -3.435  0.00  0.00    +0.050 C 
ATOM     15  C   UNL     1       4.308  -3.253  -4.362  0.00  0.00    +0.015 C 
BRANCH  14  20
ATOM     16  C   UNL     1       9.123  -1.562  -6.420  0.00  0.00    +0.086 C 
ATOM     17  C   UNL     1       8.354  -2.508  -5.534  0.00  0.00    +0.102 A 
ATOM     18  C   UNL     1       8.735  -3.752  -5.192  0.00  0.00    +0.044 A 
ATOM     19  C   UNL     1       7.723  -4.275  -4.356  0.00  0.00    +0.045 A 
ATOM     20  C   UNL     1       6.784  -3.320  -4.236  0.00  0.00    +0.108 A 
ATOM     21  O   UNL     1       7.168  -2.253  -4.956  0.00  0.00    -0.465 OA
ENDBRANCH  14  20
ENDBRANCH  13  14
ENDBRANCH  12  13
ENDBRANCH  10  12
BRANCH   6  22
ATOM     22  C   UNL     1      -1.198  -0.915   0.015  0.00  0.00    +0.181 C 
BRANCH  22  23
ATOM     23  N   UNL     1      -1.608  -1.203  -1.361  0.00  0.00    -0.187 NA
ATOM     24  H   UNL     1      -1.271  -0.661  -2.091  0.00  0.00    +0.148 HD
BRANCH  23  25
ATOM     25  S   UNL     1      -2.649  -2.454  -1.671  0.00  0.00    +0.032 S 
ATOM     26  O   UNL     1      -2.803  -2.455  -3.083  0.00  0.00    -0.158 OA
ATOM     27  O   UNL     1      -2.080  -3.572  -1.003  0.00  0.00    -0.158 OA
BRANCH  25  28
ATOM     28  C   UNL     1      -4.205  -1.974  -0.873  0.00  0.00    +0.142 C 
ATOM     29  C   UNL     1      -4.704  -0.660  -1.476  0.00  0.00    +0.033 C 
ATOM     30  C   UNL     1      -5.252  -3.068  -1.096  0.00  0.00    +0.033 C 
ENDBRANCH  25  28
ENDBRANCH  23  25
ENDBRANCH  22  23
ENDBRANCH   6  22
TORSDOF 8
