REMARK  Name = ZINC59989185
REMARK  9 active torsions:
REMARK  status: ('A' for Active; 'I' for Inactive)
REMARK    1  A    between atoms: C_1  and  C_2
REMARK    2  A    between atoms: C_2  and  C_3
REMARK    3  A    between atoms: C_3  and  C_11
REMARK    4  A    between atoms: C_14  and  N_17
REMARK    5  A    between atoms: C_18  and  C_20
REMARK    6  A    between atoms: C_20  and  C_21
REMARK    7  A    between atoms: C_21  and  C_22
REMARK    8  A    between atoms: C_22  and  C_23
REMARK    9  A    between atoms: C_23  and  C_24
REMARK                            x       y       z     vdW  Elec       q    Type
REMARK                         _______ _______ _______ _____ _____    ______ ____
ROOT
ATOM      1  N   UNL     1       6.216   1.219  -1.662  0.00  0.00    -0.285 N 
ATOM      2  C   UNL     1       6.502   2.536  -1.629  0.00  0.00    +0.217 C 
ATOM      3  O   UNL     1       5.621   3.343  -1.416  0.00  0.00    -0.275 OA
ATOM      4  H   UNL     1       6.930   0.570  -1.759  0.00  0.00    +0.155 HD
ENDROOT
BRANCH   1   8
ATOM      5  C   UNL     1       2.264  -0.064  -1.350  0.00  0.00    -0.032 A 
ATOM      6  C   UNL     1       2.554   1.131  -1.983  0.00  0.00    +0.006 A 
ATOM      7  C   UNL     1       3.863   1.560  -2.088  0.00  0.00    +0.023 A 
ATOM      8  C   UNL     1       4.888   0.789  -1.557  0.00  0.00    +0.033 A 
ATOM      9  C   UNL     1       4.594  -0.410  -0.921  0.00  0.00    +0.023 A 
ATOM     10  C   UNL     1       3.283  -0.831  -0.815  0.00  0.00    +0.006 A 
BRANCH   5  11
ATOM     11  C   UNL     1       0.835  -0.527  -1.237  0.00  0.00    +0.072 C 
ATOM     12  C   UNL     1      -0.077   0.424  -2.018  0.00  0.00    +0.030 C 
ATOM     13  C   UNL     1      -1.532  -0.003  -1.797  0.00  0.00    +0.097 C 
ATOM     14  C   UNL     1      -1.818  -0.036  -0.319  0.00  0.00    +0.219 C 
ATOM     15  O   UNL     1      -2.945   0.177   0.074  0.00  0.00    -0.275 OA
ATOM     16  N   UNL     1      -0.850  -0.298   0.572  0.00  0.00    -0.256 N 
ATOM     17  C   UNL     1       0.420  -0.532   0.211  0.00  0.00    +0.230 C 
ATOM     18  O   UNL     1       1.251  -0.753   1.066  0.00  0.00    -0.274 OA
ATOM     19  H   UNL     1      -1.077  -0.318   1.515  0.00  0.00    +0.157 HD
BRANCH  11  21
ATOM     20  C   UNL     1       1.200  -1.949  -3.259  0.00  0.00    +0.005 C 
ATOM     21  C   UNL     1       0.709  -1.941  -1.810  0.00  0.00    +0.017 C 
ENDBRANCH  11  21
ENDBRANCH   5  11
ENDBRANCH   1   8
BRANCH   2  22
ATOM     22  C   UNL     1       7.915   3.006  -1.859  0.00  0.00    +0.096 C 
BRANCH  22  23
ATOM     23  C   UNL     1       7.965   4.533  -1.769  0.00  0.00    +0.009 C 
BRANCH  23  24
ATOM     24  C   UNL     1       9.400   5.010  -2.001  0.00  0.00    +0.002 C 
BRANCH  24  25
ATOM     25  C   UNL     1       9.451   6.537  -1.912  0.00  0.00    +0.016 C 
BRANCH  25  26
ATOM     26  C   UNL     1      10.886   7.014  -2.144  0.00  0.00    +0.069 C 
ATOM     27  C   UNL     1      10.970   8.555  -2.104  0.00  0.00    +0.108 C 
ATOM     28  C   UNL     1      12.215   9.084  -1.385  0.00  0.00    +0.105 C 
ATOM     29  C   UNL     1      13.133   7.972  -0.834  0.00  0.00    +0.093 C 
ATOM     30  S   UNL     1      11.976   6.551  -0.729  0.00  0.00    -0.154 S 
ATOM     31  N   UNL     1      11.674   9.854  -0.254  0.00  0.00    -0.294 N 
ATOM     32  C   UNL     1      10.335   9.797  -0.287  0.00  0.00    +0.300 C 
ATOM     33  O   UNL     1       9.627  10.348   0.533  0.00  0.00    -0.253 OA
ATOM     34  N   UNL     1       9.854   9.077  -1.300  0.00  0.00    -0.294 N 
ATOM     35  H   UNL     1      12.201  10.326   0.410  0.00  0.00    +0.151 HD
ATOM     36  H   UNL     1       8.913   8.926  -1.478  0.00  0.00    +0.151 HD
ENDBRANCH  25  26
ENDBRANCH  24  25
ENDBRANCH  23  24
ENDBRANCH  22  23
ENDBRANCH   2  22
TORSDOF 8
