REMARK  Name = ZINC63778709
REMARK  7 active torsions:
REMARK  status: ('A' for Active; 'I' for Inactive)
REMARK    1  A    between atoms: N_9  and  C_10
REMARK    2  A    between atoms: C_15  and  N_16
REMARK    3  A    between atoms: C_17  and  C_19
REMARK    4  A    between atoms: C_19  and  C_20
REMARK    5  A    between atoms: C_20  and  C_21
REMARK    6  A    between atoms: C_21  and  C_22
REMARK    7  A    between atoms: C_22  and  N_23
REMARK                            x       y       z     vdW  Elec       q    Type
REMARK                         _______ _______ _______ _____ _____    ______ ____
ROOT
ATOM      1  C   UNL     1       4.856  -0.455  -0.045  0.00  0.00    +0.055 A 
ATOM      2  C   UNL     1       5.543  -0.273   1.146  0.00  0.00    +0.025 A 
ATOM      3  C   UNL     1       6.866   0.124   1.127  0.00  0.00    +0.002 A 
ATOM      4  C   UNL     1       7.510   0.342  -0.077  0.00  0.00    +0.002 A 
ATOM      5  C   UNL     1       6.833   0.163  -1.269  0.00  0.00    +0.025 A 
ATOM      6  C   UNL     1       5.507  -0.241  -1.260  0.00  0.00    +0.055 A 
ENDROOT
BRANCH   1  15
ATOM      7  C   UNL     1       0.003   1.376   0.049  0.00  0.00    +0.000 A 
ATOM      8  C   UNL     1       1.195   2.078   0.037  0.00  0.00    +0.002 A 
ATOM      9  C   UNL     1       2.397   1.404   0.011  0.00  0.00    +0.024 A 
ATOM     10  C   UNL     1       2.421   0.008  -0.003  0.00  0.00    +0.037 A 
ATOM     11  C   UNL     1       1.221  -0.686   0.009  0.00  0.00    -0.025 A 
ATOM     12  C   UNL     1       0.019  -0.006   0.035  0.00  0.00    +0.005 A 
ATOM     13  C   UNL     1       1.522  -2.168  -0.011  0.00  0.00    +0.056 C 
ATOM     14  C   UNL     1       3.058  -2.249  -0.035  0.00  0.00    +0.116 C 
ATOM     15  N   UNL     1       3.516  -0.858  -0.029  0.00  0.00    -0.298 N 
ENDBRANCH   1  15
BRANCH   6  16
ATOM     16  N   UNL     1       4.821  -0.429  -2.468  0.00  0.00    -0.284 N 
ATOM     17  C   UNL     1       5.087   0.365  -3.524  0.00  0.00    +0.217 C 
ATOM     18  O   UNL     1       5.976   1.187  -3.456  0.00  0.00    -0.275 OA
ATOM     19  H   UNL     1       4.155  -1.130  -2.543  0.00  0.00    +0.155 HD
BRANCH  17  20
ATOM     20  C   UNL     1       4.281   0.230  -4.790  0.00  0.00    +0.096 C 
BRANCH  20  21
ATOM     21  C   UNL     1       4.783   1.239  -5.824  0.00  0.00    +0.011 C 
BRANCH  21  22
ATOM     22  C   UNL     1       3.964   1.102  -7.110  0.00  0.00    +0.019 C 
BRANCH  22  23
ATOM     23  C   UNL     1       4.465   2.111  -8.144  0.00  0.00    +0.106 C 
BRANCH  23  24
ATOM     24  N   UNL     1       3.681   1.980  -9.375  0.00  0.00    -0.300 N 
ATOM     25  C   UNL     1       3.948   2.773 -10.431  0.00  0.00    +0.297 C 
ATOM     26  O   UNL     1       4.838   3.598 -10.363  0.00  0.00    -0.253 OA
ATOM     27  N   UNL     1       3.226   2.653 -11.563  0.00  0.00    -0.313 N 
ATOM     28  H   UNL     1       2.971   1.322  -9.429  0.00  0.00    +0.150 HD
ATOM     29  H   UNL     1       2.515   1.995 -11.618  0.00  0.00    +0.146 HD
ATOM     30  H   UNL     1       3.418   3.224 -12.324  0.00  0.00    +0.146 HD
ENDBRANCH  23  24
ENDBRANCH  22  23
ENDBRANCH  21  22
ENDBRANCH  20  21
ENDBRANCH  17  20
ENDBRANCH   6  16
TORSDOF 7
