REMARK  Name = ZINC10756459
REMARK  9 active torsions:
REMARK  status: ('A' for Active; 'I' for Inactive)
REMARK    1  A    between atoms: C_1  and  C_2
REMARK    2  A    between atoms: C_5  and  N_9
REMARK    3  A    between atoms: C_6  and  C_8
REMARK    4  A    between atoms: C_10  and  C_12
REMARK    5  A    between atoms: C_12  and  C_14
REMARK    6  A    between atoms: C_12  and  O_15
REMARK    7  A    between atoms: O_15  and  C_16
REMARK    8  A    between atoms: C_16  and  C_18
REMARK    9  A    between atoms: C_25  and  C_27
REMARK                            x       y       z     vdW  Elec       q    Type
REMARK                         _______ _______ _______ _____ _____    ______ ____
ROOT
ATOM      1  C   UNL     1       1.280   1.980  -0.015  0.00  0.00    +0.259 C 
ATOM      2  C   UNL     1       1.386   2.765  -1.324  0.00  0.00    +0.062 C 
ENDROOT
BRANCH   1   4
ATOM      3  N   UNL     1      -1.191   1.867   0.018  0.00  0.00    -0.282 N 
ATOM      4  C   UNL     1      -0.014   1.209   0.005  0.00  0.00    +0.258 C 
ATOM      5  O   UNL     1       0.003  -0.004   0.005  0.00  0.00    -0.271 OA
ATOM      6  H   UNL     1      -1.205   2.833   0.099  0.00  0.00    +0.155 HD
BRANCH   3  11
ATOM      7  C   UNL     1      -6.057  -1.018  -0.402  0.00  0.00    +0.044 C 
ATOM      8  C   UNL     1      -4.765  -0.252  -0.291  0.00  0.00    -0.050 A 
ATOM      9  C   UNL     1      -3.597  -0.791  -0.800  0.00  0.00    +0.005 A 
ATOM     10  C   UNL     1      -2.411  -0.091  -0.699  0.00  0.00    +0.024 A 
ATOM     11  C   UNL     1      -2.391   1.155  -0.086  0.00  0.00    +0.036 A 
ATOM     12  C   UNL     1      -3.564   1.691   0.428  0.00  0.00    -0.029 A 
ATOM     13  C   UNL     1      -4.748   0.989   0.320  0.00  0.00    +0.008 A 
ATOM     14  C   UNL     1      -3.546   3.040   1.100  0.00  0.00    +0.045 C 
ENDBRANCH   3  11
ENDBRANCH   1   4
BRANCH   1  15
ATOM     15  O   UNL     1       2.396   1.057   0.088  0.00  0.00    -0.452 OA
BRANCH  15  16
ATOM     16  C   UNL     1       3.509   1.509   0.686  0.00  0.00    +0.312 C 
ATOM     17  O   UNL     1       3.549   2.640   1.111  0.00  0.00    -0.250 OA
BRANCH  16  18
ATOM     18  C   UNL     1       4.708   0.607   0.829  0.00  0.00    +0.115 C 
ATOM     19  C   UNL     1       5.834   1.363   1.537  0.00  0.00    +0.018 C 
ATOM     20  C   UNL     1       7.040   0.438   1.712  0.00  0.00    +0.020 C 
ATOM     21  C   UNL     1       7.545  -0.002   0.334  0.00  0.00    +0.108 C 
ATOM     22  N   UNL     1       6.429  -0.600  -0.410  0.00  0.00    -0.301 N 
ATOM     23  C   UNL     1       5.186   0.170  -0.559  0.00  0.00    +0.122 C 
ATOM     24  C   UNL     1       6.542  -1.832  -0.946  0.00  0.00    +0.212 C 
ATOM     25  O   UNL     1       5.613  -2.314  -1.558  0.00  0.00    -0.276 OA
ATOM     26  C   UNL     1       7.823  -2.609  -0.784  0.00  0.00    +0.109 C 
ENDBRANCH  16  18
ENDBRANCH  15  16
ENDBRANCH   1  15
TORSDOF 5
