REMARK  Name = ZINC63003197
REMARK  5 active torsions:
REMARK  status: ('A' for Active; 'I' for Inactive)
REMARK    1  A    between atoms: C_1  and  C_2
REMARK    2  A    between atoms: C_4  and  C_17
REMARK    3  A    between atoms: C_8  and  C_11
REMARK    4  A    between atoms: C_20  and  O_23
REMARK    5  A    between atoms: O_23  and  C_24
REMARK                            x       y       z     vdW  Elec       q    Type
REMARK                         _______ _______ _______ _____ _____    ______ ____
ROOT
ATOM      1  C   UNL     1      -0.019   1.526   0.010  0.00  0.00    +0.027 C 
ATOM      2  C   UNL     1       0.002  -0.004   0.002  0.00  0.00    +0.084 C 
ATOM      3  C   UNL     1       0.720  -0.499  -1.256  0.00  0.00    +0.165 C 
ATOM      4  O   UNL     1       2.082  -0.062  -1.225  0.00  0.00    -0.369 OA
ATOM      5  C   UNL     1       2.807  -0.519  -0.080  0.00  0.00    +0.184 C 
ATOM      6  C   UNL     1       2.110  -0.025   1.190  0.00  0.00    +0.110 C 
ATOM      7  N   UNL     1       0.715  -0.492   1.192  0.00  0.00    -0.302 NA
ATOM      8  H   UNL     1       0.240  -0.213   2.037  0.00  0.00    +0.123 HD
ENDROOT
BRANCH   6   9
ATOM      9  C   UNL     1       2.824  -0.569   2.401  0.00  0.00    -0.028 A 
ATOM     10  C   UNL     1       2.593  -1.867   2.815  0.00  0.00    +0.005 A 
ATOM     11  C   UNL     1       3.248  -2.366   3.925  0.00  0.00    +0.000 A 
ATOM     12  C   UNL     1       4.136  -1.566   4.621  0.00  0.00    +0.000 A 
ATOM     13  C   UNL     1       4.368  -0.268   4.206  0.00  0.00    +0.000 A 
ATOM     14  C   UNL     1       3.715   0.230   3.093  0.00  0.00    +0.005 A 
ENDBRANCH   6   9
BRANCH   3  15
ATOM     15  C   UNL     1       0.039   0.062  -2.478  0.00  0.00    -0.017 A 
ATOM     16  C   UNL     1       0.382   1.318  -2.943  0.00  0.00    +0.010 A 
ATOM     17  C   UNL     1      -0.242   1.835  -4.063  0.00  0.00    +0.046 A 
ATOM     18  C   UNL     1      -1.212   1.092  -4.720  0.00  0.00    +0.120 A 
ATOM     19  C   UNL     1      -1.553  -0.168  -4.251  0.00  0.00    +0.046 A 
ATOM     20  C   UNL     1      -0.923  -0.682  -3.135  0.00  0.00    +0.010 A 
BRANCH  18  21
ATOM     21  O   UNL     1      -1.827   1.598  -5.821  0.00  0.00    -0.495 OA
ATOM     22  C   UNL     1      -2.815   0.778  -6.447  0.00  0.00    +0.277 C 
ENDBRANCH  18  21
ENDBRANCH   3  15
TORSDOF 3
