REMARK  Name = ZINC02801894
REMARK  3 active torsions:
REMARK  status: ('A' for Active; 'I' for Inactive)
REMARK    1  A    between atoms: C_1  and  C_2
REMARK    2  A    between atoms: C_5  and  N_9
REMARK    3  A    between atoms: C_7  and  C_8
REMARK                            x       y       z     vdW  Elec       q    Type
REMARK                         _______ _______ _______ _____ _____    ______ ____
ROOT
ATOM      1  N   UNL     1       1.255   1.511  -0.002  0.00  0.00    -0.214 N 
ATOM      2  C   UNL     1       1.355   2.475  -0.925  0.00  0.00    +0.153 C 
ATOM      3  S   UNL     1       2.683   3.549  -1.052  0.00  0.00    -0.017 S 
ATOM      4  N   UNL     1       0.286   2.498  -1.739  0.00  0.00    -0.306 N 
ATOM      5  C   UNL     1      -0.620   1.422  -1.292  0.00  0.00    +0.101 C 
ATOM      6  N   UNL     1       0.089   0.816  -0.142  0.00  0.00    -0.211 NA
ATOM      7  C   UNL     1      -1.908   2.086  -0.753  0.00  0.00    +0.043 C 
ATOM      8  C   UNL     1      -2.341   3.158  -1.713  0.00  0.00    +0.003 C 
ATOM      9  C   UNL     1      -3.375   2.654  -2.740  0.00  0.00    +0.000 C 
ATOM     10  C   UNL     1      -3.040   1.254  -3.288  0.00  0.00    +0.000 C 
ATOM     11  C   UNL     1      -1.572   1.091  -3.577  0.00  0.00    +0.003 C 
ATOM     12  C   UNL     1      -0.901   0.454  -2.345  0.00  0.00    +0.043 C 
ATOM     13  H   UNL     1       0.139   3.105  -2.481  0.00  0.00    +0.150 HD
ATOM     14  H   UNL     1       0.270  -0.163  -0.303  0.00  0.00    +0.147 HD
ENDROOT
BRANCH   1  19
ATOM     15  C   UNL     1       5.163   0.455   3.972  0.00  0.00    +0.044 C 
ATOM     16  C   UNL     1       4.125   0.735   2.916  0.00  0.00    -0.047 A 
ATOM     17  C   UNL     1       2.792   0.842   3.270  0.00  0.00    +0.005 A 
ATOM     18  C   UNL     1       1.839   1.105   2.306  0.00  0.00    +0.025 A 
ATOM     19  C   UNL     1       2.219   1.250   0.978  0.00  0.00    +0.052 A 
ATOM     20  C   UNL     1       3.558   1.141   0.626  0.00  0.00    +0.028 A 
ATOM     21  C   UNL     1       4.507   0.884   1.596  0.00  0.00    -0.046 A 
ATOM     22  C   UNL     1       5.960   0.766   1.214  0.00  0.00    +0.044 C 
ENDBRANCH   1  19
TORSDOF 1
