REMARK  Name = ZINC64903860
REMARK  7 active torsions:
REMARK  status: ('A' for Active; 'I' for Inactive)
REMARK    1  A    between atoms: C_1  and  C_2
REMARK    2  A    between atoms: C_2  and  C_3
REMARK    3  A    between atoms: C_3  and  C_4
REMARK    4  A    between atoms: C_3  and  C_5
REMARK    5  A    between atoms: C_5  and  C_6
REMARK    6  A    between atoms: C_5  and  N_16
REMARK    7  A    between atoms: C_17  and  C_19
REMARK                            x       y       z     vdW  Elec       q    Type
REMARK                         _______ _______ _______ _____ _____    ______ ____
ROOT
ATOM      1  N   UNL     1       2.534   1.245   1.271  0.00  0.00    -0.301 N 
ATOM      2  C   UNL     1       2.517   2.016   0.166  0.00  0.00    +0.250 C 
ATOM      3  O   UNL     1       2.243   1.525  -0.913  0.00  0.00    -0.270 OA
ATOM      4  H   UNL     1       2.681   1.649   2.141  0.00  0.00    +0.150 HD
ENDROOT
BRANCH   2   5
ATOM      5  C   UNL     1       2.832   3.450   0.263  0.00  0.00    +0.102 A 
ATOM      6  C   UNL     1       2.696   4.286  -0.836  0.00  0.00    +0.031 A 
ATOM      7  C   UNL     1       3.008   5.655  -0.694  0.00  0.00    +0.037 A 
ATOM      8  C   UNL     1       3.436   6.160   0.522  0.00  0.00    +0.030 A 
ATOM      9  N   UNL     1       3.574   5.347   1.590  0.00  0.00    -0.325 N 
ATOM     10  H   UNL     1       3.882   5.722   2.430  0.00  0.00    +0.169 HD
ATOM     11  C   UNL     1       3.291   4.036   1.526  0.00  0.00    +0.261 A 
ATOM     12  O   UNL     1       3.420   3.334   2.513  0.00  0.00    -0.267 OA
ATOM     13  C   UNL     1       3.753   7.623   0.698  0.00  0.00    +0.054 C 
ATOM     14  C   UNL     1       4.100   8.280  -0.634  0.00  0.00    +0.014 C 
ATOM     15  C   UNL     1       2.958   8.036  -1.630  0.00  0.00    +0.080 C 
ATOM     16  C   UNL     1       2.877   6.542  -1.863  0.00  0.00    +0.165 C 
ATOM     17  O   UNL     1       2.708   6.090  -2.976  0.00  0.00    -0.292 OA
ENDBRANCH   2   5
BRANCH   1  18
ATOM     18  C   UNL     1       2.330  -0.201   1.159  0.00  0.00    +0.142 C 
BRANCH  18  19
ATOM     19  C   UNL     1       3.063  -0.900   2.276  0.00  0.00    +0.129 A 
ATOM     20  N   UNL     1       4.117  -1.744   2.107  0.00  0.00    -0.340 N 
ATOM     21  H   UNL     1       4.521  -1.997   1.263  0.00  0.00    +0.167 HD
ATOM     22  C   UNL     1       4.504  -2.172   3.361  0.00  0.00    +0.066 A 
ATOM     23  C   UNL     1       5.496  -3.023   3.829  0.00  0.00    +0.028 A 
ATOM     24  C   UNL     1       5.621  -3.248   5.183  0.00  0.00    +0.002 A 
ATOM     25  C   UNL     1       4.763  -2.629   6.080  0.00  0.00    +0.002 A 
ATOM     26  C   UNL     1       3.781  -1.788   5.639  0.00  0.00    +0.030 A 
ATOM     27  C   UNL     1       3.635  -1.546   4.271  0.00  0.00    +0.089 A 
ATOM     28  N   UNL     1       2.784  -0.779   3.541  0.00  0.00    -0.231 NA
ENDBRANCH  18  19
BRANCH  18  29
ATOM     29  C   UNL     1       0.836  -0.514   1.257  0.00  0.00    +0.013 C 
ATOM     30  C   UNL     1       0.283   0.037   2.572  0.00  0.00    +0.010 C 
BRANCH  29  32
ATOM     31  C   UNL     1       1.064  -2.564  -0.153  0.00  0.00    +0.004 C 
ATOM     32  C   UNL     1       0.628  -2.030   1.212  0.00  0.00    +0.002 C 
ENDBRANCH  29  32
ENDBRANCH  18  29
ENDBRANCH   1  18
TORSDOF 5
