REMARK  Name = ZINC36610243
REMARK  14 active torsions:
REMARK  status: ('A' for Active; 'I' for Inactive)
REMARK    1  A    between atoms: C_1  and  C_2
REMARK    2  A    between atoms: C_2  and  C_3
REMARK    3  A    between atoms: C_2  and  C_4
REMARK    4  A    between atoms: C_2  and  N_5
REMARK    5  A    between atoms: C_6  and  C_8
REMARK    6  A    between atoms: C_8  and  C_10
REMARK    7  A    between atoms: C_8  and  N_19
REMARK    8  A    between atoms: C_13  and  O_18
REMARK    9  A    between atoms: C_14  and  O_16
REMARK   10  A    between atoms: O_16  and  C_17
REMARK   11  A    between atoms: N_19  and  C_20
REMARK   12  A    between atoms: C_26  and  C_28
REMARK   13  A    between atoms: C_29  and  O_35
REMARK   14  A    between atoms: C_33  and  O_34
REMARK                            x       y       z     vdW  Elec       q    Type
REMARK                         _______ _______ _______ _____ _____    ______ ____
ROOT
ATOM      1  C   UNL     1       3.125  -0.923  -2.567  0.00  0.00    +0.198 C 
ENDROOT
BRANCH   1   2
ATOM      2  C   UNL     1       3.314  -2.418  -2.577  0.00  0.00    -0.014 A 
ATOM      3  C   UNL     1       4.539  -2.960  -2.237  0.00  0.00    +0.010 A 
ATOM      4  C   UNL     1       4.717  -4.331  -2.245  0.00  0.00    +0.049 A 
ATOM      5  C   UNL     1       3.666  -5.165  -2.592  0.00  0.00    +0.158 A 
ATOM      6  C   UNL     1       2.433  -4.619  -2.933  0.00  0.00    +0.162 A 
ATOM      7  C   UNL     1       2.259  -3.244  -2.919  0.00  0.00    +0.055 A 
BRANCH   6   8
ATOM      8  O   UNL     1       1.398  -5.432  -3.275  0.00  0.00    -0.491 OA
ATOM      9  C   UNL     1       0.161  -4.802  -3.614  0.00  0.00    +0.277 C 
ENDBRANCH   6   8
BRANCH   5  10
ATOM     10  O   UNL     1       3.840  -6.513  -2.600  0.00  0.00    -0.503 OA
ATOM     11  H   UNL     1       3.640  -6.941  -1.756  0.00  0.00    +0.292 HD
ENDBRANCH   5  10
ENDBRANCH   1   2
BRANCH   1  13
ATOM     12  N   UNL     1       2.614  -0.825  -0.149  0.00  0.00    -0.309 N 
ATOM     13  C   UNL     1       3.371  -0.394  -1.178  0.00  0.00    +0.239 C 
ATOM     14  O   UNL     1       4.250   0.419  -0.985  0.00  0.00    -0.273 OA
ATOM     15  H   UNL     1       1.911  -1.474  -0.303  0.00  0.00    +0.149 HD
BRANCH  12  17
ATOM     16  C   UNL     1       2.662   1.207   1.212  0.00  0.00    +0.031 C 
ATOM     17  C   UNL     1       2.853  -0.311   1.202  0.00  0.00    +0.026 C 
ATOM     18  C   UNL     1       4.284  -0.647   1.629  0.00  0.00    +0.031 C 
ATOM     19  C   UNL     1       1.865  -0.956   2.176  0.00  0.00    +0.031 C 
ENDBRANCH  12  17
ENDBRANCH   1  13
BRANCH   1  20
ATOM     20  N   UNL     1       4.071  -0.305  -3.499  0.00  0.00    -0.251 N 
ATOM     21  C   UNL     1       4.016   1.021  -3.736  0.00  0.00    +0.259 C 
ATOM     22  O   UNL     1       3.130   1.691  -3.240  0.00  0.00    -0.269 OA
BRANCH  20  23
ATOM     23  C   UNL     1       5.032  -1.091  -4.144  0.00  0.00    +0.038 A 
ATOM     24  C   UNL     1       4.694  -1.809  -5.283  0.00  0.00    +0.023 A 
ATOM     25  C   UNL     1       5.645  -2.585  -5.916  0.00  0.00    +0.002 A 
ATOM     26  C   UNL     1       6.934  -2.646  -5.418  0.00  0.00    +0.000 A 
ATOM     27  C   UNL     1       7.274  -1.932  -4.283  0.00  0.00    +0.002 A 
ATOM     28  C   UNL     1       6.328  -1.150  -3.648  0.00  0.00    +0.023 A 
ENDBRANCH  20  23
BRANCH  21  29
ATOM     29  C   UNL     1       5.026   1.658  -4.597  0.00  0.00    +0.120 A 
ATOM     30  C   UNL     1       4.793   1.804  -5.972  0.00  0.00    +0.133 A 
ATOM     31  C   UNL     1       5.751   2.405  -6.772  0.00  0.00    +0.046 A 
ATOM     32  C   UNL     1       6.933   2.860  -6.219  0.00  0.00    +0.007 A 
ATOM     33  C   UNL     1       7.174   2.721  -4.865  0.00  0.00    +0.046 A 
ATOM     34  C   UNL     1       6.227   2.128  -4.046  0.00  0.00    +0.133 A 
BRANCH  34  35
ATOM     35  O   UNL     1       6.464   1.997  -2.716  0.00  0.00    -0.506 OA
ATOM     36  H   UNL     1       6.903   1.171  -2.474  0.00  0.00    +0.292 HD
ENDBRANCH  34  35
BRANCH  30  37
ATOM     37  O   UNL     1       3.633   1.358  -6.517  0.00  0.00    -0.506 OA
ATOM     38  H   UNL     1       2.925   2.016  -6.528  0.00  0.00    +0.292 HD
ENDBRANCH  30  37
ENDBRANCH  21  29
ENDBRANCH   1  20
TORSDOF 10
