REMARK  Name = ZINC39665330
REMARK  12 active torsions:
REMARK  status: ('A' for Active; 'I' for Inactive)
REMARK    1  A    between atoms: C_1  and  C_2
REMARK    2  A    between atoms: C_4  and  C_11
REMARK    3  A    between atoms: N_5  and  C_7
REMARK    4  A    between atoms: C_7  and  C_8
REMARK    5  A    between atoms: C_7  and  C_9
REMARK    6  A    between atoms: C_7  and  C_10
REMARK    7  A    between atoms: C_15  and  C_24
REMARK    8  A    between atoms: N_26  and  C_27
REMARK    9  A    between atoms: C_27  and  C_28
REMARK   10  A    between atoms: C_28  and  C_30
REMARK   11  A    between atoms: C_28  and  O_31
REMARK   12  A    between atoms: O_31  and  C_32
REMARK                            x       y       z     vdW  Elec       q    Type
REMARK                         _______ _______ _______ _____ _____    ______ ____
ROOT
ATOM      1  C   UNL     1       0.598  -5.490  -2.953  0.00  0.00    +0.265 C 
ATOM      2  O   UNL     1       0.472  -5.634  -4.154  0.00  0.00    -0.268 OA
ATOM      3  N   UNL     1       0.357  -6.522  -2.122  0.00  0.00    -0.295 N 
ATOM      4  C   UNL     1       0.327  -6.507  -0.640  0.00  0.00    +0.121 C 
ATOM      5  C   UNL     1      -0.851  -7.434  -0.264  0.00  0.00    +0.100 C 
ATOM      6  C   UNL     1      -1.020  -8.366  -1.475  0.00  0.00    -0.004 C 
ATOM      7  C   UNL     1       0.054  -7.928  -2.482  0.00  0.00    +0.115 C 
ATOM      8  C   UNL     1      -0.797  -9.817  -1.061  0.00  0.00    -0.010 C 
ATOM      9  C   UNL     1      -1.027 -10.729  -2.269  0.00  0.00    -0.082 C 
ATOM     10  N   UNL     1      -2.395 -10.547  -2.769  0.00  0.00    +0.379 N 
ATOM     11  C   UNL     1      -2.572  -9.172  -3.252  0.00  0.00    -0.082 C 
ATOM     12  C   UNL     1      -2.408  -8.194  -2.085  0.00  0.00    -0.010 C 
ATOM     13  H   UNL     1      -2.564 -11.192  -3.526  0.00  0.00    -0.086 HD
ATOM     14  H   UNL     1      -3.051 -10.727  -2.024  0.00  0.00    -0.086 HD
ENDROOT
BRANCH   1  18
ATOM     15  C   UNL     1       2.107  -1.752   0.124  0.00  0.00    +0.067 C 
ATOM     16  C   UNL     1       1.673  -2.547  -1.080  0.00  0.00    +0.061 A 
ATOM     17  C   UNL     1       1.351  -3.906  -1.096  0.00  0.00    +0.057 A 
ATOM     18  C   UNL     1       1.015  -4.188  -2.409  0.00  0.00    +0.124 A 
ATOM     19  N   UNL     1       1.149  -3.016  -3.097  0.00  0.00    -0.254 N 
ATOM     20  N   UNL     1       1.527  -2.086  -2.296  0.00  0.00    -0.175 NA
BRANCH  19  21
ATOM     21  C   UNL     1       0.895  -2.845  -4.530  0.00  0.00    +0.056 C 
ATOM     22  C   UNL     1      -0.521  -3.321  -4.857  0.00  0.00    +0.036 C 
ATOM     23  C   UNL     1       1.035  -1.367  -4.900  0.00  0.00    +0.036 C 
ATOM     24  C   UNL     1       1.907  -3.668  -5.329  0.00  0.00    +0.036 C 
ENDBRANCH  19  21
ENDBRANCH   1  18
BRANCH   5  25
ATOM     25  C   UNL     1      -0.519  -8.230   0.972  0.00  0.00    +0.218 C 
ATOM     26  O   UNL     1       0.637  -8.487   1.234  0.00  0.00    -0.275 OA
ATOM     27  N   UNL     1      -1.506  -8.656   1.784  0.00  0.00    -0.312 N 
ATOM     28  H   UNL     1      -2.433  -8.521   1.534  0.00  0.00    +0.149 HD
BRANCH  27  29
ATOM     29  C   UNL     1      -1.178  -9.323   3.047  0.00  0.00    +0.148 C 
BRANCH  29  30
ATOM     30  C   UNL     1      -2.470  -9.703   3.774  0.00  0.00    +0.187 C 
ATOM     31  C   UNL     1      -2.130 -10.286   5.147  0.00  0.00    +0.053 C 
BRANCH  30  32
ATOM     32  O   UNL     1      -3.179 -10.676   3.005  0.00  0.00    -0.488 OA
BRANCH  32  33
ATOM     33  C   UNL     1      -4.521 -10.762   3.206  0.00  0.00    +0.121 A 
ATOM     34  C   UNL     1      -5.130  -9.980   4.177  0.00  0.00    +0.045 A 
ATOM     35  C   UNL     1      -6.493 -10.069   4.379  0.00  0.00    +0.004 A 
ATOM     36  C   UNL     1      -7.251 -10.937   3.615  0.00  0.00    +0.000 A 
ATOM     37  C   UNL     1      -6.647 -11.718   2.647  0.00  0.00    +0.004 A 
ATOM     38  C   UNL     1      -5.285 -11.628   2.437  0.00  0.00    +0.045 A 
ENDBRANCH  32  33
ENDBRANCH  30  32
ENDBRANCH  29  30
ENDBRANCH  27  29
ENDBRANCH   5  25
TORSDOF 7
