REMARK  Name = ZINC44865761
REMARK  6 active torsions:
REMARK  status: ('A' for Active; 'I' for Inactive)
REMARK    1  A    between atoms: C_1  and  C_2
REMARK    2  A    between atoms: C_2  and  C_3
REMARK    3  A    between atoms: C_3  and  C_5
REMARK    4  A    between atoms: C_3  and  C_9
REMARK    5  A    between atoms: N_6  and  O_7
REMARK    6  A    between atoms: N_11  and  C_12
REMARK                            x       y       z     vdW  Elec       q    Type
REMARK                         _______ _______ _______ _____ _____    ______ ____
ROOT
ATOM      1  C   UNL     1       0.632  -2.001  -1.322  0.00  0.00    +0.228 C 
ATOM      2  O   UNL     1       1.645  -2.667  -1.336  0.00  0.00    -0.275 OA
ATOM      3  N   UNL     1      -0.572  -2.604  -1.380  0.00  0.00    -0.284 N 
ATOM      4  H   UNL     1      -1.383  -2.077  -1.303  0.00  0.00    +0.155 HD
ENDROOT
BRANCH   3   5
ATOM      5  C   UNL     1      -0.652  -3.992  -1.551  0.00  0.00    +0.048 A 
ATOM      6  C   UNL     1       0.303  -4.820  -0.977  0.00  0.00    +0.027 A 
ATOM      7  C   UNL     1       0.222  -6.188  -1.147  0.00  0.00    +0.040 A 
ATOM      8  C   UNL     1      -0.811  -6.735  -1.889  0.00  0.00    +0.125 A 
ATOM      9  C   UNL     1      -1.766  -5.912  -2.462  0.00  0.00    +0.055 A 
ATOM     10  C   UNL     1      -1.692  -4.543  -2.290  0.00  0.00    +0.042 A 
ATOM     11 BR   UNL     1      -3.000  -3.419  -3.066  0.00  0.00    -0.048 Br
ATOM     12  F   UNL     1      -0.888  -8.074  -2.054  0.00  0.00    -0.205 F 
ENDBRANCH   3   5
BRANCH   1  13
ATOM     13  C   UNL     1       0.719  -0.499  -1.239  0.00  0.00    +0.141 C 
BRANCH  13  14
ATOM     14  C   UNL     1       2.166  -0.082  -1.186  0.00  0.00    +0.144 C 
ATOM     15  N   UNL     1       2.735   0.131  -0.046  0.00  0.00    -0.076 NA
ATOM     16  N   UNL     1       2.881   0.073  -2.352  0.00  0.00    -0.343 N 
ATOM     17  H   UNL     1       2.454  -0.087  -3.208  0.00  0.00    +0.144 HD
ATOM     18  H   UNL     1       3.813   0.342  -2.318  0.00  0.00    +0.144 HD
BRANCH  15  19
ATOM     19  O   UNL     1       4.095   0.523   0.004  0.00  0.00    -0.408 OA
ATOM     20  H   UNL     1       4.432   0.659   0.900  0.00  0.00    +0.328 HD
ENDBRANCH  15  19
ENDBRANCH  13  14
BRANCH  13  22
ATOM     21  C   UNL     1      -0.019   1.515   0.043  0.00  0.00    +0.005 C 
ATOM     22  C   UNL     1       0.001  -0.015   0.023  0.00  0.00    +0.017 C 
ENDBRANCH  13  22
ENDBRANCH   1  13
TORSDOF 5
