REMARK  Name = ZINC10683664
REMARK  16 active torsions:
REMARK  status: ('A' for Active; 'I' for Inactive)
REMARK    1  A    between atoms: C_1  and  C_2
REMARK    2  A    between atoms: C_2  and  C_3
REMARK    3  A    between atoms: C_3  and  C_5
REMARK    4  A    between atoms: C_3  and  C_6
REMARK    5  A    between atoms: C_11  and  O_12
REMARK    6  A    between atoms: O_12  and  C_13
REMARK    7  A    between atoms: C_13  and  C_15
REMARK    8  A    between atoms: C_13  and  C_17
REMARK    9  A    between atoms: C_15  and  C_16
REMARK   10  A    between atoms: N_19  and  N_20
REMARK   11  A    between atoms: C_21  and  C_23
REMARK   12  A    between atoms: C_26  and  N_29
REMARK   13  A    between atoms: C_30  and  C_32
REMARK   14  A    between atoms: C_32  and  C_33
REMARK   15  A    between atoms: C_33  and  C_34
REMARK   16  A    between atoms: C_33  and  C_35
REMARK                            x       y       z     vdW  Elec       q    Type
REMARK                         _______ _______ _______ _____ _____    ______ ____
ROOT
ATOM      1  C   UNL     1      -5.738   6.658   0.186  0.00  0.00    +0.270 C 
ATOM      2  O   UNL     1      -4.669   7.225   0.268  0.00  0.00    -0.270 OA
ATOM      3  N   UNL     1      -5.788   5.311   0.193  0.00  0.00    -0.231 N 
ATOM      4  H   UNL     1      -6.643   4.858   0.127  0.00  0.00    +0.173 HD
ENDROOT
BRANCH   3   5
ATOM      5  N   UNL     1      -4.606   4.566   0.294  0.00  0.00    -0.230 N 
ATOM      6  C   UNL     1      -4.657   3.219   0.300  0.00  0.00    +0.260 C 
ATOM      7  O   UNL     1      -5.729   2.651   0.218  0.00  0.00    -0.269 OA
ATOM      8  H   UNL     1      -3.751   5.020   0.359  0.00  0.00    +0.173 HD
BRANCH   6   9
ATOM      9  C   UNL     1      -3.411   2.435   0.407  0.00  0.00    +0.038 A 
ATOM     10  C   UNL     1      -3.462   1.038   0.414  0.00  0.00    +0.015 A 
ATOM     11  C   UNL     1      -2.299   0.309   0.514  0.00  0.00    +0.024 A 
ATOM     12  C   UNL     1      -1.073   0.961   0.607  0.00  0.00    +0.033 A 
ATOM     13  C   UNL     1      -1.019   2.351   0.606  0.00  0.00    +0.024 A 
ATOM     14  C   UNL     1      -2.179   3.086   0.501  0.00  0.00    +0.015 A 
BRANCH  12  15
ATOM     15  N   UNL     1       0.104   0.220   0.707  0.00  0.00    -0.285 N 
ATOM     16  C   UNL     1       1.122   0.672   1.465  0.00  0.00    +0.217 C 
ATOM     17  O   UNL     1       1.048   1.761   1.993  0.00  0.00    -0.275 OA
ATOM     18  H   UNL     1       0.190  -0.620   0.229  0.00  0.00    +0.155 HD
BRANCH  16  19
ATOM     19  C   UNL     1       2.353  -0.177   1.657  0.00  0.00    +0.099 C 
BRANCH  19  20
ATOM     20  C   UNL     1       3.349   0.564   2.552  0.00  0.00    -0.008 C 
ATOM     21  C   UNL     1       4.543  -0.346   2.848  0.00  0.00    +0.008 C 
ATOM     22  C   UNL     1       3.834   1.827   1.839  0.00  0.00    +0.008 C 
ENDBRANCH  19  20
ENDBRANCH  16  19
ENDBRANCH  12  15
ENDBRANCH   6   9
ENDBRANCH   3   5
BRANCH   1  23
ATOM     23  C   UNL     1      -7.009   7.459   0.077  0.00  0.00    +0.260 C 
BRANCH  23  24
ATOM     24  C   UNL     1      -7.722   7.110  -1.231  0.00  0.00    +0.051 C 
ATOM     25  C   UNL     1      -9.072   7.828  -1.284  0.00  0.00    +0.008 C 
ENDBRANCH  23  24
BRANCH  23  26
ATOM     26  O   UNL     1      -6.696   8.854   0.091  0.00  0.00    -0.479 OA
BRANCH  26  32
ATOM     27  C   UNL     1      -7.261  11.021   0.891  0.00  0.00    -0.003 A 
ATOM     28  C   UNL     1      -8.128  11.850   1.578  0.00  0.00    +0.007 A 
ATOM     29  C   UNL     1      -9.280  11.332   2.140  0.00  0.00    +0.001 A 
ATOM     30  C   UNL     1      -9.568   9.985   2.017  0.00  0.00    +0.004 A 
ATOM     31  C   UNL     1      -8.707   9.154   1.327  0.00  0.00    +0.046 A 
ATOM     32  C   UNL     1      -7.548   9.670   0.766  0.00  0.00    +0.125 A 
BRANCH  27  33
ATOM     33  C   UNL     1      -6.005  11.586   0.279  0.00  0.00    +0.019 C 
ATOM     34  C   UNL     1      -6.375  12.662  -0.744  0.00  0.00    +0.012 C 
BRANCH  33  36
ATOM     35  C   UNL     1      -3.807  12.664   0.775  0.00  0.00    +0.004 C 
ATOM     36  C   UNL     1      -5.136  12.203   1.376  0.00  0.00    +0.004 C 
ENDBRANCH  33  36
ENDBRANCH  27  33
ENDBRANCH  26  32
ENDBRANCH  23  26
ENDBRANCH   1  23
TORSDOF 11
