REMARK  Name = ZINC35289709
REMARK  6 active torsions:
REMARK  status: ('A' for Active; 'I' for Inactive)
REMARK    1  A    between atoms: C_1  and  C_2
REMARK    2  A    between atoms: C_7  and  C_15
REMARK    3  A    between atoms: C_15  and  N_16
REMARK    4  A    between atoms: N_16  and  C_17
REMARK    5  A    between atoms: N_24  and  C_25
REMARK    6  A    between atoms: C_30  and  C_31
REMARK                            x       y       z     vdW  Elec       q    Type
REMARK                         _______ _______ _______ _____ _____    ______ ____
ROOT
ATOM      1  N   UNL     1       1.806  -6.922   1.229  0.00  0.00    -0.278 N 
ATOM      2  C   UNL     1       2.413  -7.025   0.029  0.00  0.00    +0.307 C 
ATOM      3  O   UNL     1       2.053  -6.324  -0.896  0.00  0.00    -0.252 OA
ATOM      4  N   UNL     1       3.418  -7.906  -0.144  0.00  0.00    -0.269 N 
ATOM      5  H   UNL     1       3.669  -8.504   0.578  0.00  0.00    +0.156 HD
ENDROOT
BRANCH   4   6
ATOM      6  C   UNL     1       4.100  -7.958  -1.365  0.00  0.00    +0.038 A 
ATOM      7  C   UNL     1       3.463  -7.567  -2.535  0.00  0.00    +0.023 A 
ATOM      8  C   UNL     1       4.139  -7.619  -3.738  0.00  0.00    +0.002 A 
ATOM      9  C   UNL     1       5.450  -8.059  -3.778  0.00  0.00    +0.000 A 
ATOM     10  C   UNL     1       6.087  -8.449  -2.614  0.00  0.00    +0.005 A 
ATOM     11  C   UNL     1       5.418  -8.394  -1.407  0.00  0.00    -0.029 A 
ATOM     12  C   UNL     1       6.115  -8.813  -0.139  0.00  0.00    +0.045 C 
ENDBRANCH   4   6
BRANCH   1  13
ATOM     13  C   UNL     1       2.310  -7.687   2.372  0.00  0.00    +0.078 C 
ATOM     14  C   UNL     1       3.825  -7.449   2.542  0.00  0.00    +0.022 C 
ATOM     15  C   UNL     1       4.378  -8.825   2.985  0.00  0.00    +0.002 C 
ATOM     16  C   UNL     1       3.538  -9.819   2.145  0.00  0.00    +0.002 C 
ATOM     17  C   UNL     1       2.127  -9.194   2.120  0.00  0.00    +0.022 C 
ENDBRANCH   1  13
BRANCH   1  18
ATOM     18  C   UNL     1       0.644  -6.045   1.389  0.00  0.00    +0.148 C 
BRANCH  18  25
ATOM     19  C   UNL     1       3.044   1.488   2.486  0.00  0.00    +0.044 C 
ATOM     20  C   UNL     1       2.582   0.120   2.057  0.00  0.00    -0.048 A 
ATOM     21  C   UNL     1       2.354  -0.138   0.712  0.00  0.00    +0.004 A 
ATOM     22  C   UNL     1       1.935  -1.371   0.302  0.00  0.00    +0.010 A 
ATOM     23  C   UNL     1       1.734  -2.385   1.245  0.00  0.00    +0.001 A 
ATOM     24  C   UNL     1       1.286  -3.718   0.838  0.00  0.00    +0.019 A 
ATOM     25  C   UNL     1       1.105  -4.667   1.786  0.00  0.00    +0.017 A 
ATOM     26  C   UNL     1       1.347  -4.370   3.147  0.00  0.00    +0.184 A 
ATOM     27  N   UNL     1       1.250  -5.097   4.251  0.00  0.00    -0.108 NA
ATOM     28  N   UNL     1       1.577  -4.396   5.277  0.00  0.00    -0.022 NA
ATOM     29  N   UNL     1       1.899  -3.198   4.927  0.00  0.00    -0.039 NA
ATOM     30  N   UNL     1       1.764  -3.130   3.533  0.00  0.00    -0.192 N 
ATOM     31  C   UNL     1       1.964  -2.127   2.609  0.00  0.00    +0.077 A 
ATOM     32  C   UNL     1       2.396  -0.865   3.002  0.00  0.00    +0.032 A 
ENDBRANCH  18  25
ENDBRANCH   1  18
TORSDOF 4
