REMARK  Name = ZINC66832039
REMARK  8 active torsions:
REMARK  status: ('A' for Active; 'I' for Inactive)
REMARK    1  A    between atoms: C_1  and  C_2
REMARK    2  A    between atoms: C_5  and  N_9
REMARK    3  A    between atoms: C_10  and  C_12
REMARK    4  A    between atoms: C_12  and  N_13
REMARK    5  A    between atoms: C_14  and  C_16
REMARK    6  A    between atoms: C_16  and  C_18
REMARK    7  A    between atoms: C_16  and  N_19
REMARK    8  A    between atoms: C_20  and  C_22
REMARK                            x       y       z     vdW  Elec       q    Type
REMARK                         _______ _______ _______ _____ _____    ______ ____
ROOT
ATOM      1  N   UNL     1      -0.234  -6.825  -2.571  0.00  0.00    -0.305 N 
ATOM      2  C   UNL     1      -0.329  -8.147  -2.818  0.00  0.00    +0.233 C 
ATOM      3  O   UNL     1      -0.333  -8.937  -1.897  0.00  0.00    -0.274 OA
ATOM      4  H   UNL     1      -0.231  -6.193  -3.307  0.00  0.00    +0.149 HD
ENDROOT
BRANCH   2   5
ATOM      5  C   UNL     1      -0.429  -8.643  -4.237  0.00  0.00    +0.156 C 
ATOM      6  C   UNL     1       0.813  -8.209  -5.018  0.00  0.00    +0.038 C 
BRANCH   5   7
ATOM      7  N   UNL     1      -0.521 -10.105  -4.238  0.00  0.00    -0.304 N 
ATOM      8  C   UNL     1      -1.106 -10.743  -5.271  0.00  0.00    +0.217 C 
ATOM      9  O   UNL     1      -1.557 -10.106  -6.200  0.00  0.00    -0.275 OA
ATOM     10  H   UNL     1      -0.160 -10.614  -3.496  0.00  0.00    +0.149 HD
BRANCH   8  11
ATOM     11  C   UNL     1      -1.200 -12.247  -5.272  0.00  0.00    +0.079 C 
ATOM     12  C   UNL     1       0.208 -12.848  -5.229  0.00  0.00    +0.041 C 
ATOM     13  C   UNL     1       0.105 -14.374  -5.310  0.00  0.00    +0.160 C 
ATOM     14  O   UNL     1      -0.587 -14.741  -6.505  0.00  0.00    -0.380 OA
ATOM     15  C   UNL     1      -1.925 -14.246  -6.580  0.00  0.00    +0.160 C 
ATOM     16  C   UNL     1      -1.904 -12.715  -6.550  0.00  0.00    +0.041 C 
ENDBRANCH   8  11
ENDBRANCH   5   7
ENDBRANCH   2   5
BRANCH   1  17
ATOM     17  C   UNL     1      -0.136  -6.343  -1.191  0.00  0.00    +0.200 C 
BRANCH  17  19
ATOM     18  N   UNL     1       0.057  -4.171  -0.023  0.00  0.00    -0.283 N 
ATOM     19  C   UNL     1      -0.042  -4.839  -1.190  0.00  0.00    +0.234 C 
ATOM     20  O   UNL     1      -0.055  -4.230  -2.238  0.00  0.00    -0.274 OA
ATOM     21  H   UNL     1       0.149  -4.660   0.809  0.00  0.00    +0.155 HD
BRANCH  18  26
ATOM     22  C   UNL     1      -0.064   1.502   0.016  0.00  0.00    +0.044 C 
ATOM     23  C   UNL     1      -0.031  -0.005   0.006  0.00  0.00    -0.049 A 
ATOM     24  C   UNL     1      -0.622  -0.701  -1.033  0.00  0.00    +0.005 A 
ATOM     25  C   UNL     1      -0.594  -2.082  -1.045  0.00  0.00    +0.025 A 
ATOM     26  C   UNL     1       0.028  -2.772  -0.014  0.00  0.00    +0.052 A 
ATOM     27  C   UNL     1       0.621  -2.070   1.029  0.00  0.00    +0.062 A 
ATOM     28  C   UNL     1       0.595  -0.688   1.032  0.00  0.00    +0.025 A 
ATOM     29 CL   UNL     1       1.401  -2.928   2.321  0.00  0.00    -0.082 Cl
ENDBRANCH  18  26
ENDBRANCH  17  19
ENDBRANCH   1  17
TORSDOF 6
