REMARK  Name = ZINC15162762
REMARK  6 active torsions:
REMARK  status: ('A' for Active; 'I' for Inactive)
REMARK    1  A    between atoms: C_3  and  S_31
REMARK    2  A    between atoms: C_6  and  N_7
REMARK    3  A    between atoms: C_10  and  C_17
REMARK    4  A    between atoms: C_12  and  C_15
REMARK    5  A    between atoms: C_13  and  N_14
REMARK    6  A    between atoms: S_31  and  N_34
REMARK                            x       y       z     vdW  Elec       q    Type
REMARK                         _______ _______ _______ _____ _____    ______ ____
ROOT
ATOM      1  N   UNL     1      -1.233   2.065  -0.002  0.00  0.00    -0.260 N 
ATOM      2  C   UNL     1      -1.238   3.431   0.110  0.00  0.00    +0.024 C 
ATOM      3  C   UNL     1      -2.329   4.146  -0.236  0.00  0.00    +0.025 C 
ATOM      4  C   UNL     1      -3.562   3.465  -0.775  0.00  0.00    +0.097 C 
ATOM      5  C   UNL     1      -3.560   2.001  -0.448  0.00  0.00    +0.077 C 
ATOM      6  C   UNL     1      -2.416   1.366  -0.089  0.00  0.00    +0.107 C 
ATOM      7  C   UNL     1      -2.349   5.545  -0.108  0.00  0.00    +0.162 C 
ATOM      8  O   UNL     1      -3.345   6.160  -0.437  0.00  0.00    -0.292 OA
ATOM      9  C   UNL     1      -1.161   6.297   0.427  0.00  0.00    +0.080 C 
ATOM     10  C   UNL     1      -0.381   5.385   1.380  0.00  0.00    +0.014 C 
ATOM     11  C   UNL     1       0.006   4.112   0.624  0.00  0.00    +0.052 C 
ENDROOT
BRANCH   4  12
ATOM     12  C   UNL     1      -3.608   3.637  -2.271  0.00  0.00    -0.031 A 
ATOM     13  C   UNL     1      -2.576   3.150  -3.053  0.00  0.00    +0.008 A 
ATOM     14  C   UNL     1      -2.615   3.301  -4.426  0.00  0.00    +0.050 A 
ATOM     15  C   UNL     1      -3.685   3.950  -5.022  0.00  0.00    +0.166 A 
ATOM     16  C   UNL     1      -4.721   4.445  -4.235  0.00  0.00    +0.167 A 
ATOM     17  C   UNL     1      -4.678   4.285  -2.859  0.00  0.00    +0.054 A 
ATOM     18  O   UNL     1      -5.644   5.035  -5.049  0.00  0.00    -0.453 OA
ATOM     19  C   UNL     1      -5.364   4.539  -6.371  0.00  0.00    +0.466 C 
ATOM     20  O   UNL     1      -3.958   4.230  -6.330  0.00  0.00    -0.453 OA
ENDBRANCH   4  12
BRANCH   1  26
ATOM     21  C   UNL     1       0.532   0.876   1.140  0.00  0.00    +0.026 A 
ATOM     22  C   UNL     1       1.737   0.201   1.106  0.00  0.00    +0.030 A 
ATOM     23  C   UNL     1       2.397   0.022  -0.096  0.00  0.00    +0.105 A 
ATOM     24  C   UNL     1       1.855   0.519  -1.267  0.00  0.00    +0.030 A 
ATOM     25  C   UNL     1       0.651   1.194  -1.239  0.00  0.00    +0.026 A 
ATOM     26  C   UNL     1      -0.015   1.375  -0.034  0.00  0.00    +0.040 A 
BRANCH  23  27
ATOM     27  S   UNL     1       3.933  -0.841  -0.135  0.00  0.00    +0.056 S 
ATOM     28  O   UNL     1       3.957  -1.679   1.012  0.00  0.00    -0.153 OA
ATOM     29  O   UNL     1       4.080  -1.349  -1.454  0.00  0.00    -0.153 OA
BRANCH  27  30
ATOM     30  N   UNL     1       5.131   0.283   0.075  0.00  0.00    -0.204 NA
ATOM     31  H   UNL     1       5.963   0.031   0.507  0.00  0.00    +0.144 HD
ATOM     32  H   UNL     1       5.002   1.194  -0.234  0.00  0.00    +0.144 HD
ENDBRANCH  27  30
ENDBRANCH  23  27
ENDBRANCH   1  26
BRANCH   6  33
ATOM     33  N   UNL     1      -2.440   0.021   0.193  0.00  0.00    -0.345 N 
ATOM     34  H   UNL     1      -1.646  -0.417   0.537  0.00  0.00    +0.144 HD
ATOM     35  H   UNL     1      -3.251  -0.490   0.048  0.00  0.00    +0.144 HD
ENDBRANCH   6  33
BRANCH   5  36
ATOM     36  C   UNL     1      -4.784   1.261  -0.520  0.00  0.00    +0.099 C 
ATOM     37  N   UNL     1      -5.754   0.674  -0.578  0.00  0.00    -0.191 NA
ENDBRANCH   5  36
TORSDOF 6
