REMARK  Name = ZINC05221885
REMARK  6 active torsions:
REMARK  status: ('A' for Active; 'I' for Inactive)
REMARK    1  A    between atoms: C_1  and  C_2
REMARK    2  A    between atoms: C_2  and  C_3
REMARK    3  A    between atoms: C_3  and  N_4
REMARK    4  A    between atoms: C_8  and  C_10
REMARK    5  A    between atoms: C_10  and  O_11
REMARK    6  A    between atoms: O_11  and  C_12
REMARK                            x       y       z     vdW  Elec       q    Type
REMARK                         _______ _______ _______ _____ _____    ______ ____
ROOT
ATOM      1  C   UNL     1      -1.156   3.466   0.026  0.00  0.00    +0.325 C 
ENDROOT
BRANCH   1   6
ATOM      2  N   UNL     1      -4.216   7.174   0.061  0.00  0.00    -0.299 N 
ATOM      3  C   UNL     1      -4.014   5.841   0.053  0.00  0.00    +0.306 C 
ATOM      4  O   UNL     1      -4.965   5.083   0.053  0.00  0.00    -0.252 OA
ATOM      5  N   UNL     1      -2.760   5.349   0.044  0.00  0.00    -0.237 N 
ATOM      6  C   UNL     1      -2.559   4.016   0.036  0.00  0.00    +0.258 C 
ATOM      7  O   UNL     1      -3.506   3.260   0.036  0.00  0.00    -0.272 OA
ATOM      8  H   UNL     1      -3.457   7.779   0.061  0.00  0.00    +0.150 HD
ATOM      9  H   UNL     1      -2.002   5.954   0.044  0.00  0.00    +0.159 HD
BRANCH   2  10
ATOM     10  C   UNL     1      -5.579   7.709   0.070  0.00  0.00    +0.105 C 
BRANCH  10  12
ATOM     11  C   UNL     1      -6.952   9.797   0.088  0.00  0.00    +0.005 C 
ATOM     12  C   UNL     1      -5.527   9.238   0.078  0.00  0.00    +0.015 C 
ENDBRANCH  10  12
ENDBRANCH   2  10
ENDBRANCH   1   6
BRANCH   1  13
ATOM     13  O   UNL     1      -1.204   2.038   0.019  0.00  0.00    -0.483 OA
BRANCH  13  14
ATOM     14  C   UNL     1      -0.017   1.381   0.010  0.00  0.00    +0.125 A 
ATOM     15  C   UNL     1       1.174   2.106   0.002  0.00  0.00    +0.046 A 
ATOM     16  C   UNL     1       2.376   1.460  -0.012  0.00  0.00    +0.015 A 
ATOM     17  C   UNL     1       2.414   0.061  -0.021  0.00  0.00    +0.018 A 
ATOM     18  C   UNL     1       3.689  -0.659  -0.037  0.00  0.00    +0.018 A 
ATOM     19  C   UNL     1       3.659  -2.017  -0.044  0.00  0.00    +0.092 A 
ATOM     20  C   UNL     1       2.421  -2.692  -0.035  0.00  0.00    +0.337 A 
ATOM     21  O   UNL     1       2.409  -3.910  -0.042  0.00  0.00    -0.245 OA
ATOM     22  O   UNL     1       1.256  -2.026  -0.020  0.00  0.00    -0.422 OA
ATOM     23  C   UNL     1       1.215  -0.676  -0.013  0.00  0.00    +0.143 A 
ATOM     24  C   UNL     1       0.002  -0.004   0.002  0.00  0.00    +0.092 A 
ENDBRANCH  13  14
ENDBRANCH   1  13
TORSDOF 5
