REMARK  Name = ZINC66406114
REMARK  6 active torsions:
REMARK  status: ('A' for Active; 'I' for Inactive)
REMARK    1  A    between atoms: C_8  and  C_10
REMARK    2  A    between atoms: C_11  and  C_16
REMARK    3  A    between atoms: C_17  and  C_18
REMARK    4  A    between atoms: C_17  and  C_20
REMARK    5  A    between atoms: N_22  and  C_23
REMARK    6  A    between atoms: C_23  and  C_24
REMARK                            x       y       z     vdW  Elec       q    Type
REMARK                         _______ _______ _______ _____ _____    ______ ____
ROOT
ATOM      1  C   UNL     1       3.836  -3.853  -0.454  0.00  0.00    +0.135 A 
ATOM      2  C   UNL     1       4.825  -3.703  -1.531  0.00  0.00    +0.024 A 
ATOM      3  C   UNL     1       4.740  -4.854  -2.298  0.00  0.00    +0.113 A 
ATOM      4  N   UNL     1       3.797  -5.639  -1.757  0.00  0.00    -0.283 N 
ATOM      5  H   UNL     1       3.534  -6.509  -2.096  0.00  0.00    +0.188 HD
ATOM      6  N   UNL     1       3.255  -5.020  -0.628  0.00  0.00    -0.170 NA
ENDROOT
BRANCH   1  14
ATOM      7  C   UNL     1       2.189  -0.018   3.923  0.00  0.00    +0.001 A 
ATOM      8  C   UNL     1       3.542   0.289   3.899  0.00  0.00    +0.004 A 
ATOM      9  C   UNL     1       4.394  -0.350   3.023  0.00  0.00    +0.047 A 
ATOM     10  C   UNL     1       3.898  -1.313   2.154  0.00  0.00    +0.136 A 
ATOM     11  C   UNL     1       2.526  -1.621   2.183  0.00  0.00    +0.021 A 
ATOM     12  C   UNL     1       1.679  -0.963   3.076  0.00  0.00    +0.011 A 
ATOM     13  C   UNL     1       2.331  -2.654   1.164  0.00  0.00    +0.060 A 
ATOM     14  C   UNL     1       3.552  -2.881   0.621  0.00  0.00    +0.157 A 
ATOM     15  O   UNL     1       4.469  -2.088   1.209  0.00  0.00    -0.453 OA
ENDBRANCH   1  14
BRANCH   2  16
ATOM     16  C   UNL     1       5.693  -2.602  -1.743  0.00  0.00    +0.035 C 
ATOM     17  C   UNL     1       7.030  -2.818  -2.014  0.00  0.00    +0.114 C 
BRANCH  17  18
ATOM     18  C   UNL     1       7.609  -4.157  -1.834  0.00  0.00    +0.254 C 
ATOM     19  O   UNL     1       6.946  -5.043  -1.327  0.00  0.00    -0.269 OA
ATOM     20  N   UNL     1       8.873  -4.403  -2.230  0.00  0.00    -0.308 N 
ATOM     21  H   UNL     1       9.401  -3.696  -2.634  0.00  0.00    +0.149 HD
BRANCH  20  22
ATOM     22  C   UNL     1       9.450  -5.738  -2.051  0.00  0.00    +0.136 C 
BRANCH  22  23
ATOM     23  C   UNL     1      10.885  -5.748  -2.580  0.00  0.00    +0.135 C 
ATOM     24  C   UNL     1      11.503  -7.161  -2.432  0.00  0.00    +0.035 C 
ATOM     25  C   UNL     1      12.588  -7.126  -3.543  0.00  0.00    +0.031 C 
ATOM     26  C   UNL     1      11.919  -6.257  -4.628  0.00  0.00    +0.160 C 
ATOM     27  O   UNL     1      10.899  -5.476  -3.991  0.00  0.00    -0.375 OA
ENDBRANCH  22  23
ENDBRANCH  20  22
ENDBRANCH  17  18
BRANCH  17  28
ATOM     28  C   UNL     1       7.852  -1.738  -2.469  0.00  0.00    +0.104 C 
ATOM     29  N   UNL     1       8.504  -0.880  -2.831  0.00  0.00    -0.191 NA
ENDBRANCH  17  28
ENDBRANCH   2  16
TORSDOF 6
