REMARK  Name = ZINC07040177
REMARK  7 active torsions:
REMARK  status: ('A' for Active; 'I' for Inactive)
REMARK    1  A    between atoms: C_1  and  C_2
REMARK    2  A    between atoms: C_2  and  C_3
REMARK    3  A    between atoms: C_2  and  N_4
REMARK    4  A    between atoms: C_5  and  N_9
REMARK    5  A    between atoms: C_10  and  C_12
REMARK    6  A    between atoms: C_12  and  O_13
REMARK    7  A    between atoms: O_13  and  C_14
REMARK                            x       y       z     vdW  Elec       q    Type
REMARK                         _______ _______ _______ _____ _____    ______ ____
ROOT
ATOM      1  N   UNL     1      -1.249  -0.615   2.203  0.00  0.00    -0.268 N 
ATOM      2  C   UNL     1      -1.828  -1.266   3.231  0.00  0.00    +0.256 C 
ATOM      3  O   UNL     1      -2.343  -0.640   4.133  0.00  0.00    -0.272 OA
ATOM      4  H   UNL     1      -0.837  -1.115   1.481  0.00  0.00    +0.156 HD
ENDROOT
BRANCH   1   6
ATOM      5  N   UNL     1      -0.698   1.558   1.213  0.00  0.00    -0.248 N 
ATOM      6  C   UNL     1      -1.241   0.780   2.177  0.00  0.00    +0.123 A 
ATOM      7  C   UNL     1      -1.776   1.605   3.119  0.00  0.00    +0.065 A 
ATOM      8  C   UNL     1      -1.557   2.922   2.707  0.00  0.00    +0.136 A 
ATOM      9  N   UNL     1      -0.913   2.896   1.568  0.00  0.00    -0.178 NA
BRANCH   5  11
ATOM     10  C   UNL     1       1.423   1.615  -0.003  0.00  0.00    +0.032 C 
ATOM     11  C   UNL     1      -0.013   1.086   0.008  0.00  0.00    +0.103 C 
ATOM     12  C   UNL     1      -0.753   1.593  -1.232  0.00  0.00    +0.032 C 
ENDBRANCH   5  11
ENDBRANCH   1   6
BRANCH   2  13
ATOM     13  C   UNL     1      -1.836  -2.773   3.259  0.00  0.00    +0.325 C 
BRANCH  13  14
ATOM     14  O   UNL     1      -2.503  -3.224   4.439  0.00  0.00    -0.481 OA
BRANCH  14  15
ATOM     15  C   UNL     1      -2.598  -4.568   4.619  0.00  0.00    +0.141 A 
ATOM     16  C   UNL     1      -2.066  -5.434   3.676  0.00  0.00    +0.067 A 
ATOM     17  C   UNL     1      -2.160  -6.801   3.863  0.00  0.00    +0.045 A 
ATOM     18  C   UNL     1      -2.794  -7.305   4.986  0.00  0.00    +0.021 A 
ATOM     19  C   UNL     1      -3.330  -6.443   5.925  0.00  0.00    +0.025 A 
ATOM     20  C   UNL     1      -3.234  -5.076   5.744  0.00  0.00    +0.083 A 
ATOM     21 CL   UNL     1      -3.906  -3.994   6.924  0.00  0.00    -0.080 Cl
ATOM     22 CL   UNL     1      -1.489  -7.886   2.686  0.00  0.00    -0.083 Cl
ENDBRANCH  14  15
ENDBRANCH  13  14
ENDBRANCH   2  13
TORSDOF 5
