REMARK  Name = ZINC26804708
REMARK  7 active torsions:
REMARK  status: ('A' for Active; 'I' for Inactive)
REMARK    1  A    between atoms: C_1  and  C_2
REMARK    2  A    between atoms: C_2  and  C_3
REMARK    3  A    between atoms: C_2  and  N_4
REMARK    4  A    between atoms: C_5  and  C_7
REMARK    5  A    between atoms: C_7  and  N_16
REMARK    6  A    between atoms: C_8  and  C_9
REMARK    7  A    between atoms: C_17  and  C_19
REMARK                            x       y       z     vdW  Elec       q    Type
REMARK                         _______ _______ _______ _____ _____    ______ ____
ROOT
ATOM      1  C   UNL     1      -3.666   1.665   0.123  0.00  0.00    +0.097 C 
ATOM      2  C   UNL     1      -2.513   0.983  -0.065  0.00  0.00    +0.036 C 
ENDROOT
BRANCH   2   3
ATOM      3  C   UNL     1      -1.228   1.700  -0.084  0.00  0.00    -0.023 A 
ATOM      4  C   UNL     1      -0.117   1.135  -0.719  0.00  0.00    +0.009 A 
ATOM      5  C   UNL     1       1.081   1.814  -0.737  0.00  0.00    +0.020 A 
ATOM      6  C   UNL     1       1.189   3.052  -0.123  0.00  0.00    +0.041 A 
ATOM      7  C   UNL     1       0.095   3.615   0.512  0.00  0.00    +0.020 A 
ATOM      8  C   UNL     1      -1.111   2.947   0.538  0.00  0.00    +0.009 A 
ATOM      9 CL   UNL     1       2.703   3.901  -0.152  0.00  0.00    -0.084 Cl
ENDBRANCH   2   3
BRANCH   1  11
ATOM     10  N   UNL     1      -4.956  -0.406   0.192  0.00  0.00    -0.308 N 
ATOM     11  C   UNL     1      -4.930   0.937   0.306  0.00  0.00    +0.258 C 
ATOM     12  O   UNL     1      -5.952   1.547   0.559  0.00  0.00    -0.269 OA
ATOM     13  H   UNL     1      -4.032  -0.957  -0.036  0.00  0.00    +0.149 HD
BRANCH  10  15
ATOM     14  C   UNL     1      -6.151  -2.461  -0.379  0.00  0.00    +0.027 C 
ATOM     15  C   UNL     1      -6.216  -1.131   0.374  0.00  0.00    +0.067 C 
ATOM     16  C   UNL     1      -6.440  -1.399   1.864  0.00  0.00    +0.027 C 
ENDBRANCH  10  15
ENDBRANCH   1  11
BRANCH   1  17
ATOM     17  N   UNL     1      -3.655   3.063   0.144  0.00  0.00    -0.277 N 
ATOM     18  C   UNL     1      -4.146   3.725   1.211  0.00  0.00    +0.250 C 
ATOM     19  O   UNL     1      -4.518   3.108   2.190  0.00  0.00    -0.270 OA
ATOM     20  H   UNL     1      -3.246   3.623  -0.710  0.00  0.00    +0.155 HD
BRANCH  18  21
ATOM     21  C   UNL     1      -4.232   5.199   1.190  0.00  0.00    +0.055 A 
ATOM     22  C   UNL     1      -3.805   5.911   0.066  0.00  0.00    +0.016 A 
ATOM     23  C   UNL     1      -3.887   7.287   0.052  0.00  0.00    +0.021 A 
ATOM     24  C   UNL     1      -4.393   7.965   1.150  0.00  0.00    +0.042 A 
ATOM     25  C   UNL     1      -4.817   7.267   2.268  0.00  0.00    +0.040 A 
ATOM     26  C   UNL     1      -4.746   5.888   2.292  0.00  0.00    +0.054 A 
ATOM     27 CL   UNL     1      -5.286   5.013   3.690  0.00  0.00    -0.083 Cl
ATOM     28 CL   UNL     1      -4.492   9.698   1.124  0.00  0.00    -0.083 Cl
ENDBRANCH  18  21
ENDBRANCH   1  17
TORSDOF 5
