REMARK  Name = ZINC53620403
REMARK  8 active torsions:
REMARK  status: ('A' for Active; 'I' for Inactive)
REMARK    1  A    between atoms: C_1  and  C_2
REMARK    2  A    between atoms: C_6  and  C_8
REMARK    3  A    between atoms: C_11  and  O_14
REMARK    4  A    between atoms: O_14  and  C_15
REMARK    5  A    between atoms: C_15  and  C_16
REMARK    6  A    between atoms: C_15  and  C_17
REMARK    7  A    between atoms: C_19  and  C_21
REMARK    8  A    between atoms: C_24  and  C_28
REMARK                            x       y       z     vdW  Elec       q    Type
REMARK                         _______ _______ _______ _____ _____    ______ ____
ROOT
ATOM      1  C   UNL     1      -0.371  -0.406  -0.551  0.00  0.00    +0.066 C 
ATOM      2  C   UNL     1      -1.106   0.139  -1.749  0.00  0.00    +0.054 A 
ATOM      3  N   UNL     1      -2.356   0.555  -1.661  0.00  0.00    -0.229 NA
ATOM      4  C   UNL     1      -2.991   1.029  -2.711  0.00  0.00    +0.165 A 
ATOM      5  N   UNL     1      -4.294   1.504  -2.791  0.00  0.00    -0.261 N 
ATOM      6  C   UNL     1      -5.075   1.514  -1.693  0.00  0.00    +0.250 C 
ATOM      7  O   UNL     1      -4.640   1.107  -0.633  0.00  0.00    -0.270 OA
ATOM      8  S   UNL     1      -1.841   0.920  -3.935  0.00  0.00    -0.053 S 
ATOM      9  C   UNL     1      -0.511   0.229  -2.964  0.00  0.00    +0.059 A 
ATOM     10  H   UNL     1      -4.641   1.829  -3.636  0.00  0.00    +0.157 HD
ENDROOT
BRANCH   9  11
ATOM     11  C   UNL     1       0.886  -0.152  -3.381  0.00  0.00    +0.250 C 
ATOM     12  N   UNL     1       0.891  -0.572  -4.800  0.00  0.00    -0.265 NA
ATOM     13  C   UNL     1       1.865  -1.696  -4.841  0.00  0.00    +0.180 C 
ATOM     14  N   UNL     1       1.619  -2.374  -3.541  0.00  0.00    -0.177 NA
ATOM     15  O   UNL     1       1.340  -1.269  -2.601  0.00  0.00    -0.274 OA
ATOM     16  H   UNL     1      -0.026  -0.878  -5.090  0.00  0.00    +0.127 HD
ATOM     17  H   UNL     1       0.832  -3.003  -3.604  0.00  0.00    +0.156 HD
BRANCH  13  18
ATOM     18  C   UNL     1       1.572  -2.618  -5.996  0.00  0.00    -0.014 A 
ATOM     19  C   UNL     1       0.999  -2.119  -7.151  0.00  0.00    +0.009 A 
ATOM     20  C   UNL     1       0.730  -2.963  -8.211  0.00  0.00    +0.039 A 
ATOM     21  C   UNL     1       1.034  -4.311  -8.116  0.00  0.00    +0.123 A 
ATOM     22  C   UNL     1       1.608  -4.810  -6.959  0.00  0.00    +0.039 A 
ATOM     23  C   UNL     1       1.881  -3.962  -5.902  0.00  0.00    +0.009 A 
ATOM     24  F   UNL     1       0.771  -5.138  -9.152  0.00  0.00    -0.205 F 
ENDBRANCH  13  18
ENDBRANCH   9  11
BRANCH   6  25
ATOM     25  C   UNL     1      -6.459   2.019  -1.777  0.00  0.00    +0.037 A 
ATOM     26  C   UNL     1      -6.963   2.481  -2.996  0.00  0.00    +0.016 A 
ATOM     27  C   UNL     1      -8.255   2.952  -3.070  0.00  0.00    +0.046 A 
ATOM     28  C   UNL     1      -9.058   2.967  -1.936  0.00  0.00    +0.121 A 
ATOM     29  C   UNL     1      -8.560   2.508  -0.722  0.00  0.00    +0.046 A 
ATOM     30  C   UNL     1      -7.272   2.030  -0.640  0.00  0.00    +0.016 A 
BRANCH  28  31
ATOM     31  O   UNL     1     -10.331   3.432  -2.013  0.00  0.00    -0.489 OA
BRANCH  31  32
ATOM     32  C   UNL     1     -10.740   3.997  -3.260  0.00  0.00    +0.167 C 
ATOM     33  C   UNL     1     -11.212   2.882  -4.196  0.00  0.00    +0.051 C 
ATOM     34  C   UNL     1     -11.886   4.982  -3.022  0.00  0.00    +0.051 C 
ENDBRANCH  31  32
ENDBRANCH  28  31
ENDBRANCH   6  25
TORSDOF 5
