REMARK  Name = ZINC01273951
REMARK  3 active torsions:
REMARK  status: ('A' for Active; 'I' for Inactive)
REMARK    1  A    between atoms: C_4  and  N_7
REMARK    2  A    between atoms: C_11  and  C_16
REMARK    3  A    between atoms: C_16  and  N_45
REMARK                            x       y       z     vdW  Elec       q    Type
REMARK                         _______ _______ _______ _____ _____    ______ ____
ROOT
ATOM      1  N   UNL     1      -5.255   2.852   0.484  0.00  0.00    -0.213 NA
ATOM      2  C   UNL     1      -4.409   2.067  -0.163  0.00  0.00    +0.233 A 
ATOM      3  N   UNL     1      -3.088   2.436  -0.311  0.00  0.00    -0.314 N 
ATOM      4  H   UNL     1      -2.768   3.274   0.058  0.00  0.00    +0.170 HD
ATOM      5  C   UNL     1      -2.244   1.614  -0.977  0.00  0.00    +0.097 A 
ATOM      6  N   UNL     1      -2.686   0.488  -1.474  0.00  0.00    -0.204 NA
ATOM      7  C   UNL     1      -3.968   0.125  -1.327  0.00  0.00    +0.217 A 
ATOM      8  N   UNL     1      -4.823   0.902  -0.682  0.00  0.00    -0.179 NA
ATOM      9  N   UNL     1      -4.401  -1.067  -1.856  0.00  0.00    -0.327 N 
ATOM     10  H   UNL     1      -5.329  -1.333  -1.757  0.00  0.00    +0.145 HD
ATOM     11  H   UNL     1      -3.780  -1.641  -2.330  0.00  0.00    +0.145 HD
ENDROOT
BRANCH   1  15
ATOM     12  C   UNL     1      -3.884   6.273   2.362  0.00  0.00    +0.000 A 
ATOM     13  C   UNL     1      -4.393   6.349   1.077  0.00  0.00    +0.002 A 
ATOM     14  C   UNL     1      -4.852   5.213   0.445  0.00  0.00    +0.028 A 
ATOM     15  C   UNL     1      -4.802   3.982   1.105  0.00  0.00    +0.068 A 
ATOM     16  C   UNL     1      -4.292   3.913   2.404  0.00  0.00    +0.028 A 
ATOM     17  C   UNL     1      -3.833   5.058   3.022  0.00  0.00    +0.002 A 
ENDBRANCH   1  15
BRANCH   5  18
ATOM     18  C   UNL     1      -0.798   2.000  -1.150  0.00  0.00    -0.003 C 
BRANCH  18  28
ATOM     19  C   UNL     1       1.356   2.019  -0.039  0.00  0.00    -0.073 C 
ATOM     20  C   UNL     1       1.999   1.758   1.323  0.00  0.00    +0.017 C 
ATOM     21  C   UNL     1       1.825   0.310   1.705  0.00  0.00    -0.048 A 
ATOM     22  C   UNL     1       2.624  -0.208   2.713  0.00  0.00    +0.004 A 
ATOM     23  C   UNL     1       2.494  -1.528   3.097  0.00  0.00    +0.000 A 
ATOM     24  C   UNL     1       1.563  -2.337   2.473  0.00  0.00    +0.000 A 
ATOM     25  C   UNL     1       0.768  -1.822   1.468  0.00  0.00    +0.002 A 
ATOM     26  C   UNL     1       0.898  -0.497   1.081  0.00  0.00    -0.061 A 
ATOM     27  C   UNL     1       0.012   0.018  -0.023  0.00  0.00    -0.042 C 
ATOM     28  N   UNL     1      -0.022   1.490   0.004  0.00  0.00    +0.387 N 
ATOM     29  H   UNL     1      -0.473   1.800   0.872  0.00  0.00    -0.081 HD
ENDBRANCH  18  28
ENDBRANCH   5  18
TORSDOF 3
