REMARK  Name = ZINC03652523
REMARK  3 active torsions:
REMARK  status: ('A' for Active; 'I' for Inactive)
REMARK    1  A    between atoms: C_3  and  S_15
REMARK    2  A    between atoms: C_6  and  C_7
REMARK    3  A    between atoms: S_15  and  C_16
REMARK                            x       y       z     vdW  Elec       q    Type
REMARK                         _______ _______ _______ _____ _____    ______ ____
ROOT
ATOM      1  C   UNL     1       3.470   3.035  -0.181  0.00  0.00    +0.009 A 
ATOM      2  C   UNL     1       4.831   3.021  -0.294  0.00  0.00    +0.015 A 
ATOM      3  C   UNL     1       5.543   4.217  -0.304  0.00  0.00    +0.013 A 
ATOM      4  C   UNL     1       4.872   5.434  -0.204  0.00  0.00    +0.015 A 
ATOM      5  C   UNL     1       3.510   5.458  -0.095  0.00  0.00    +0.009 A 
ATOM      6  C   UNL     1       2.789   4.256  -0.085  0.00  0.00    -0.023 A 
ENDROOT
BRANCH   6   7
ATOM      7  C   UNL     1       1.327   4.277   0.032  0.00  0.00    +0.036 C 
ATOM      8  C   UNL     1       0.722   5.202   0.820  0.00  0.00    +0.098 C 
ATOM      9  C   UNL     1       1.366   6.145   1.746  0.00  0.00    +0.266 C 
ATOM     10  O   UNL     1       2.558   6.255   1.964  0.00  0.00    -0.268 OA
ATOM     11  N   UNL     1       0.370   6.861   2.306  0.00  0.00    -0.235 N 
ATOM     12  C   UNL     1      -0.813   6.452   1.823  0.00  0.00    +0.311 C 
ATOM     13  O   UNL     1      -1.888   6.915   2.152  0.00  0.00    -0.252 OA
ATOM     14  N   UNL     1      -0.652   5.463   0.926  0.00  0.00    -0.265 N 
ATOM     15  H   UNL     1       0.491   7.565   2.962  0.00  0.00    +0.159 HD
ATOM     16  H   UNL     1      -1.359   5.010   0.441  0.00  0.00    +0.157 HD
ENDBRANCH   6   7
BRANCH   3  17
ATOM     17  S   UNL     1       7.300   4.193  -0.444  0.00  0.00    -0.089 S 
BRANCH  17  18
ATOM     18  C   UNL     1       7.682   2.493  -0.709  0.00  0.00    +0.013 A 
ATOM     19  C   UNL     1       8.029   1.682   0.364  0.00  0.00    +0.016 A 
ATOM     20  C   UNL     1       8.324   0.350   0.154  0.00  0.00    +0.021 A 
ATOM     21  C   UNL     1       8.284  -0.176  -1.126  0.00  0.00    +0.041 A 
ATOM     22  C   UNL     1       7.945   0.631  -2.198  0.00  0.00    +0.021 A 
ATOM     23  C   UNL     1       7.644   1.963  -1.993  0.00  0.00    +0.016 A 
ATOM     24 CL   UNL     1       8.661  -1.850  -1.387  0.00  0.00    -0.084 Cl
ENDBRANCH  17  18
ENDBRANCH   3  17
TORSDOF 3
