REMARK  Name = ZINC38980958
REMARK  11 active torsions:
REMARK  status: ('A' for Active; 'I' for Inactive)
REMARK    1  A    between atoms: C_1  and  C_2
REMARK    2  A    between atoms: C_4  and  C_8
REMARK    3  A    between atoms: C_12  and  S_29
REMARK    4  A    between atoms: N_14  and  N_15
REMARK    5  A    between atoms: C_16  and  C_17
REMARK    6  A    between atoms: C_18  and  O_27
REMARK    7  A    between atoms: C_20  and  O_25
REMARK    8  A    between atoms: C_22  and  O_23
REMARK    9  A    between atoms: O_23  and  C_24
REMARK   10  A    between atoms: O_25  and  C_26
REMARK   11  A    between atoms: O_27  and  C_28
REMARK                            x       y       z     vdW  Elec       q    Type
REMARK                         _______ _______ _______ _____ _____    ______ ____
ROOT
ATOM      1  C   UNL     1       0.184  -4.577  -2.487  0.00  0.00    +0.206 C 
ATOM      2  N   UNL     1       0.305  -3.264  -3.159  0.00  0.00    -0.231 NA
ATOM      3  N   UNL     1       0.214  -2.283  -2.065  0.00  0.00    -0.225 NA
ATOM      4  C   UNL     1      -0.799  -2.886  -1.160  0.00  0.00    +0.231 C 
ATOM      5  N   UNL     1      -0.518  -4.336  -1.214  0.00  0.00    -0.207 N 
ATOM      6  H   UNL     1       1.187  -3.185  -3.643  0.00  0.00    +0.143 HD
ATOM      7  H   UNL     1      -0.096  -1.387  -2.409  0.00  0.00    +0.143 HD
ENDROOT
BRANCH   1  11
ATOM      8  C   UNL     1      -0.343  -5.537  -7.076  0.00  0.00    +0.067 C 
ATOM      9  C   UNL     1      -0.657  -5.433  -5.606  0.00  0.00    +0.058 C 
ATOM     10  C   UNL     1       0.134  -5.882  -4.628  0.00  0.00    +0.029 C 
ATOM     11  C   UNL     1      -0.625  -5.540  -3.358  0.00  0.00    +0.190 C 
ATOM     12  N   UNL     1      -1.845  -4.888  -3.866  0.00  0.00    -0.177 NA
ATOM     13  N   UNL     1      -1.775  -4.868  -5.098  0.00  0.00    -0.159 NA
ENDBRANCH   1  11
BRANCH   5  14
ATOM     14  N   UNL     1      -0.854  -5.293  -0.247  0.00  0.00    -0.188 NA
ATOM     15  C   UNL     1      -0.450  -6.519  -0.380  0.00  0.00    +0.145 C 
BRANCH  15  16
ATOM     16  C   UNL     1      -0.896  -7.549   0.575  0.00  0.00    +0.078 A 
ATOM     17  C   UNL     1      -1.761  -7.210   1.623  0.00  0.00    +0.136 A 
ATOM     18  C   UNL     1      -2.176  -8.183   2.516  0.00  0.00    +0.092 A 
ATOM     19  C   UNL     1      -1.737  -9.492   2.374  0.00  0.00    +0.127 A 
ATOM     20  C   UNL     1      -0.880  -9.835   1.338  0.00  0.00    +0.092 A 
ATOM     21  C   UNL     1      -0.461  -8.874   0.435  0.00  0.00    +0.136 A 
BRANCH  21  22
ATOM     22  O   UNL     1       0.374  -9.213  -0.581  0.00  0.00    -0.494 OA
ATOM     23  C   UNL     1       0.776 -10.582  -0.662  0.00  0.00    +0.277 C 
ENDBRANCH  21  22
BRANCH  19  24
ATOM     24  O   UNL     1      -2.148 -10.442   3.255  0.00  0.00    -0.495 OA
ATOM     25  C   UNL     1      -1.659 -11.769   3.052  0.00  0.00    +0.277 C 
ENDBRANCH  19  24
BRANCH  17  26
ATOM     26  O   UNL     1      -2.192  -5.929   1.764  0.00  0.00    -0.494 OA
ATOM     27  C   UNL     1      -3.072  -5.657   2.855  0.00  0.00    +0.277 C 
ENDBRANCH  17  26
ENDBRANCH  15  16
ENDBRANCH   5  14
BRANCH   4  28
ATOM     28  S   UNL     1      -0.593  -2.260   0.530  0.00  0.00    -0.138 S 
ATOM     29  H   UNL     1      -0.795  -0.935   0.413  0.00  0.00    +0.105 HD
ENDBRANCH   4  28
TORSDOF 7
