REMARK  Name = ZINC15114443
REMARK  11 active torsions:
REMARK  status: ('A' for Active; 'I' for Inactive)
REMARK    1  A    between atoms: C_3  and  N_11
REMARK    2  A    between atoms: C_6  and  C_7
REMARK    3  A    between atoms: C_15  and  N_18
REMARK    4  A    between atoms: N_18  and  C_19
REMARK    5  A    between atoms: C_19  and  C_20
REMARK    6  A    between atoms: C_20  and  C_21
REMARK    7  A    between atoms: C_21  and  C_22
REMARK    8  A    between atoms: C_22  and  C_23
REMARK    9  A    between atoms: C_23  and  C_24
REMARK   10  A    between atoms: C_25  and  C_31
REMARK   11  A    between atoms: C_26  and  N_30
REMARK                            x       y       z     vdW  Elec       q    Type
REMARK                         _______ _______ _______ _____ _____    ______ ____
ROOT
ATOM      1  N   UNL     1      12.189   1.267  -5.107  0.00  0.00    -0.177 N 
ATOM      2  C   UNL     1      11.335   1.235  -6.149  0.00  0.00    +0.293 A 
ATOM      3  O   UNL     1      11.760   1.261  -7.294  0.00  0.00    -0.264 OA
ATOM      4  C   UNL     1       9.954   1.172  -5.910  0.00  0.00    +0.129 A 
ATOM      5  C   UNL     1       9.500   1.144  -4.604  0.00  0.00    +0.071 A 
ATOM      6  C   UNL     1      10.432   1.185  -3.545  0.00  0.00    +0.158 A 
ATOM      7  N   UNL     1      11.711   1.237  -3.793  0.00  0.00    -0.168 NA
ATOM      8 CL   UNL     1       8.833   1.129  -7.235  0.00  0.00    -0.076 Cl
ENDROOT
BRANCH   1  11
ATOM      9  C   UNL     1      15.806   1.424  -4.514  0.00  0.00    +0.017 A 
ATOM     10  C   UNL     1      14.445   1.363  -4.268  0.00  0.00    +0.049 A 
ATOM     11  C   UNL     1      13.564   1.330  -5.342  0.00  0.00    +0.158 A 
ATOM     12  N   UNL     1      14.017   1.352  -6.586  0.00  0.00    -0.235 NA
ATOM     13  C   UNL     1      15.307   1.416  -6.851  0.00  0.00    +0.125 A 
ATOM     14  C   UNL     1      16.239   1.451  -5.832  0.00  0.00    +0.073 A 
BRANCH  14  15
ATOM     15  C   UNL     1      17.711   1.518  -6.148  0.00  0.00    +0.419 C 
ATOM     16  F   UNL     1      18.225   0.221  -6.254  0.00  0.00    -0.166 F 
ATOM     17  F   UNL     1      17.898   2.193  -7.359  0.00  0.00    -0.166 F 
ATOM     18  F   UNL     1      18.378   2.201  -5.125  0.00  0.00    -0.166 F 
ENDBRANCH  14  15
ENDBRANCH   1  11
BRANCH   5  19
ATOM     19  N   UNL     1       8.142   1.081  -4.338  0.00  0.00    -0.341 N 
ATOM     20  H   UNL     1       7.505   1.057  -5.069  0.00  0.00    +0.146 HD
BRANCH  19  21
ATOM     21  C   UNL     1       7.668   1.052  -2.952  0.00  0.00    +0.101 C 
BRANCH  21  22
ATOM     22  C   UNL     1       6.139   0.983  -2.938  0.00  0.00    +0.019 C 
BRANCH  22  23
ATOM     23  C   UNL     1       5.644   0.953  -1.490  0.00  0.00    +0.002 C 
BRANCH  23  24
ATOM     24  C   UNL     1       4.116   0.884  -1.476  0.00  0.00    +0.006 C 
BRANCH  24  25
ATOM     25  C   UNL     1       3.621   0.853  -0.028  0.00  0.00    +0.058 C 
BRANCH  25  26
ATOM     26  C   UNL     1       2.115   0.786  -0.014  0.00  0.00    +0.082 A 
ATOM     27  C   UNL     1       1.338  -0.396  -0.013  0.00  0.00    +0.113 A 
ATOM     28  C   UNL     1       0.002  -0.004   0.002  0.00  0.00    +0.129 A 
ATOM     29  N   UNL     1      -0.016   1.345   0.009  0.00  0.00    -0.263 N 
ATOM     30  H   UNL     1      -0.836   1.918   0.020  0.00  0.00    +0.190 HD
ATOM     31  N   UNL     1       1.304   1.806  -0.001  0.00  0.00    -0.176 NA
BRANCH  28  32
ATOM     32  N   UNL     1      -1.098  -0.840   0.008  0.00  0.00    -0.342 N 
ATOM     33  H   UNL     1      -1.993  -0.464   0.018  0.00  0.00    +0.144 HD
ATOM     34  H   UNL     1      -0.976  -1.802   0.002  0.00  0.00    +0.144 HD
ENDBRANCH  28  32
BRANCH  27  35
ATOM     35  C   UNL     1       1.831  -1.740  -0.025  0.00  0.00    +0.104 C 
ATOM     36  N   UNL     1       2.223  -2.806  -0.035  0.00  0.00    -0.191 NA
ENDBRANCH  27  35
ENDBRANCH  25  26
ENDBRANCH  24  25
ENDBRANCH  23  24
ENDBRANCH  22  23
ENDBRANCH  21  22
ENDBRANCH  19  21
ENDBRANCH   5  19
TORSDOF 11
