REMARK  Name = ZINC66402693
REMARK  8 active torsions:
REMARK  status: ('A' for Active; 'I' for Inactive)
REMARK    1  A    between atoms: C_1  and  C_2
REMARK    2  A    between atoms: C_2  and  C_3
REMARK    3  A    between atoms: N_5  and  C_6
REMARK    4  A    between atoms: C_9  and  C_12
REMARK    5  A    between atoms: C_12  and  C_14
REMARK    6  A    between atoms: C_12  and  N_15
REMARK    7  A    between atoms: N_18  and  C_19
REMARK    8  A    between atoms: C_21  and  C_27
REMARK                            x       y       z     vdW  Elec       q    Type
REMARK                         _______ _______ _______ _____ _____    ______ ____
ROOT
ATOM      1  N   UNL     1      -7.225  -4.736   0.589  0.00  0.00    -0.293 N 
ATOM      2  C   UNL     1      -8.454  -5.008   1.071  0.00  0.00    +0.304 C 
ATOM      3  O   UNL     1      -9.397  -4.305   0.763  0.00  0.00    -0.252 OA
ATOM      4  N   UNL     1      -8.637  -6.059   1.895  0.00  0.00    -0.265 N 
ATOM      5  H   UNL     1      -6.473  -5.297   0.835  0.00  0.00    +0.151 HD
ATOM      6  H   UNL     1      -7.875  -6.578   2.196  0.00  0.00    +0.157 HD
ENDROOT
BRANCH   4   7
ATOM      7  C   UNL     1      -9.930  -6.403   2.315  0.00  0.00    +0.100 A 
ATOM      8  C   UNL     1     -10.444  -7.639   2.032  0.00  0.00    +0.042 A 
ATOM      9  C   UNL     1     -11.739  -7.958   2.465  0.00  0.00    +0.073 A 
ATOM     10  C   UNL     1     -12.465  -7.048   3.154  0.00  0.00    +0.098 A 
ATOM     11  N   UNL     1     -11.957  -5.819   3.436  0.00  0.00    -0.327 N 
ATOM     12  H   UNL     1     -12.493  -5.181   3.931  0.00  0.00    +0.168 HD
ATOM     13  C   UNL     1     -10.714  -5.481   3.041  0.00  0.00    +0.270 A 
ATOM     14  O   UNL     1     -10.269  -4.376   3.306  0.00  0.00    -0.266 OA
BRANCH   9  15
ATOM     15  C   UNL     1     -12.322  -9.314   2.161  0.00  0.00    +0.419 C 
ATOM     16  F   UNL     1     -13.614  -9.395   2.691  0.00  0.00    -0.166 F 
ATOM     17  F   UNL     1     -12.373  -9.500   0.776  0.00  0.00    -0.166 F 
ATOM     18  F   UNL     1     -11.520 -10.305   2.736  0.00  0.00    -0.166 F 
ENDBRANCH   9  15
ENDBRANCH   4   7
BRANCH   1  19
ATOM     19  C   UNL     1      -7.026  -3.593  -0.306  0.00  0.00    +0.102 C 
ATOM     20  C   UNL     1      -7.338  -4.012  -1.744  0.00  0.00    +0.033 C 
BRANCH  19  24
ATOM     21  C   UNL     1      -2.968  -2.276  -0.053  0.00  0.00    +0.033 A 
ATOM     22  C   UNL     1      -3.998  -1.347  -0.138  0.00  0.00    +0.023 A 
ATOM     23  C   UNL     1      -5.308  -1.776  -0.219  0.00  0.00    +0.007 A 
ATOM     24  C   UNL     1      -5.595  -3.129  -0.217  0.00  0.00    -0.027 A 
ATOM     25  C   UNL     1      -4.573  -4.056  -0.132  0.00  0.00    +0.007 A 
ATOM     26  C   UNL     1      -3.260  -3.633  -0.056  0.00  0.00    +0.023 A 
BRANCH  21  29
ATOM     27  C   UNL     1      -0.663  -2.553  -0.570  0.00  0.00    +0.217 C 
ATOM     28  O   UNL     1      -0.922  -3.607  -1.111  0.00  0.00    -0.275 OA
ATOM     29  N   UNL     1      -1.640  -1.844   0.030  0.00  0.00    -0.286 N 
ATOM     30  H   UNL     1      -1.422  -1.035   0.519  0.00  0.00    +0.155 HD
BRANCH  27  32
ATOM     31  C   UNL     1       1.657  -3.021  -1.310  0.00  0.00    +0.013 C 
ATOM     32  C   UNL     1       0.753  -2.035  -0.568  0.00  0.00    +0.093 C 
ENDBRANCH  27  32
ENDBRANCH  21  29
ENDBRANCH  19  24
ENDBRANCH   1  19
TORSDOF 6
