REMARK  Name = ZINC40471598
REMARK  6 active torsions:
REMARK  status: ('A' for Active; 'I' for Inactive)
REMARK    1  A    between atoms: C_1  and  C_2
REMARK    2  A    between atoms: C_2  and  C_3
REMARK    3  A    between atoms: C_3  and  C_5
REMARK    4  A    between atoms: C_3  and  N_18
REMARK    5  A    between atoms: N_7  and  C_8
REMARK    6  A    between atoms: C_13  and  C_14
REMARK                            x       y       z     vdW  Elec       q    Type
REMARK                         _______ _______ _______ _____ _____    ______ ____
ROOT
ATOM      1  C   UNL     1      -1.399  -2.033   0.136  0.00  0.00    +0.203 C 
ATOM      2  O   UNL     1      -1.565  -2.716  -0.852  0.00  0.00    -0.277 OA
ATOM      3  N   UNL     1      -1.212  -2.617   1.336  0.00  0.00    -0.286 N 
ATOM      4  H   UNL     1      -1.014  -2.074   2.115  0.00  0.00    +0.155 HD
ENDROOT
BRANCH   3   5
ATOM      5  C   UNL     1      -1.304  -4.001   1.458  0.00  0.00    +0.049 A 
ATOM      6  C   UNL     1      -0.867  -4.822   0.428  0.00  0.00    +0.044 A 
ATOM      7  C   UNL     1      -0.959  -6.195   0.551  0.00  0.00    +0.043 A 
ATOM      8  C   UNL     1      -1.489  -6.763   1.701  0.00  0.00    +0.021 A 
ATOM      9  C   UNL     1      -1.928  -5.965   2.733  0.00  0.00    +0.018 A 
ATOM     10  C   UNL     1      -1.836  -4.573   2.626  0.00  0.00    +0.084 A 
ATOM     11 CL   UNL     1      -0.410  -7.216  -0.741  0.00  0.00    -0.083 Cl
BRANCH  10  12
ATOM     12  C   UNL     1      -2.298  -3.714   3.726  0.00  0.00    +0.388 C 
ATOM     13  O   UNL     1      -2.668  -4.215   4.779  0.00  0.00    -0.241 OA
ATOM     14  O   UNL     1      -2.311  -2.498   3.589  0.00  0.00    -0.241 OA
ENDBRANCH  10  12
ENDBRANCH   3   5
BRANCH   1  15
ATOM     15  C   UNL     1      -1.399  -0.530   0.022  0.00  0.00    +0.013 C 
BRANCH  15  16
ATOM     16  N   UNL     1      -2.074  -0.134  -1.222  0.00  0.00    +0.386 N 
ATOM     17  H   UNL     1      -1.586  -0.531  -2.010  0.00  0.00    -0.089 HD
ATOM     18  H   UNL     1      -3.025  -0.470  -1.210  0.00  0.00    -0.089 HD
ATOM     19  H   UNL     1      -2.074   0.872  -1.298  0.00  0.00    -0.089 HD
ENDBRANCH  15  16
BRANCH  15  21
ATOM     20  C   UNL     1       0.043   1.510   0.014  0.00  0.00    +0.002 C 
ATOM     21  C   UNL     1       0.043  -0.020   0.004  0.00  0.00    -0.011 C 
ENDBRANCH  15  21
ENDBRANCH   1  15
TORSDOF 5
