REMARK  Name = ZINC20611465
REMARK  7 active torsions:
REMARK  status: ('A' for Active; 'I' for Inactive)
REMARK    1  A    between atoms: C_1  and  C_2
REMARK    2  A    between atoms: C_2  and  O_3
REMARK    3  A    between atoms: O_3  and  C_4
REMARK    4  A    between atoms: C_7  and  N_10
REMARK    5  A    between atoms: C_13  and  C_20
REMARK    6  A    between atoms: C_26  and  O_32
REMARK    7  A    between atoms: O_32  and  C_33
REMARK                            x       y       z     vdW  Elec       q    Type
REMARK                         _______ _______ _______ _____ _____    ______ ____
ROOT
ATOM      1  N   UNL     1       1.135  -5.959   1.754  0.00  0.00    -0.229 N 
ATOM      2  C   UNL     1       1.852  -6.465   2.777  0.00  0.00    +0.267 A 
ATOM      3  O   UNL     1       2.403  -5.719   3.568  0.00  0.00    -0.267 OA
ATOM      4  C   UNL     1       1.960  -7.859   2.925  0.00  0.00    +0.073 A 
ATOM      5  C   UNL     1       1.335  -8.671   2.026  0.00  0.00    +0.260 A 
ATOM      6  N   UNL     1       0.615  -8.114   1.000  0.00  0.00    -0.274 N 
ATOM      7  H   UNL     1       0.167  -8.687   0.358  0.00  0.00    +0.173 HD
ATOM      8  C   UNL     1       0.520  -6.777   0.881  0.00  0.00    +0.337 A 
ATOM      9  O   UNL     1      -0.127  -6.301  -0.033  0.00  0.00    -0.246 OA
ATOM     10  O   UNL     1       1.423 -10.013   2.145  0.00  0.00    -0.267 OA
ENDROOT
BRANCH   4  11
ATOM     11  C   UNL     1       2.758  -8.447   4.060  0.00  0.00    +0.018 C 
ATOM     12  C   UNL     1       2.108  -8.088   5.375  0.00  0.00    +0.011 A 
ATOM     13  C   UNL     1       2.813  -7.691   6.459  0.00  0.00    -0.022 A 
ATOM     14  C   UNL     1       1.863  -7.433   7.518  0.00  0.00    +0.006 A 
ATOM     15  C   UNL     1       2.008  -7.003   8.841  0.00  0.00    +0.056 A 
ATOM     16  C   UNL     1       0.845  -6.863   9.583  0.00  0.00    +0.121 A 
ATOM     17  C   UNL     1      -0.407  -7.135   9.043  0.00  0.00    +0.047 A 
ATOM     18  C   UNL     1      -0.569  -7.560   7.737  0.00  0.00    +0.030 A 
ATOM     19  C   UNL     1       0.584  -7.710   6.969  0.00  0.00    +0.047 A 
ATOM     20  N   UNL     1       0.773  -8.104   5.673  0.00  0.00    -0.359 N 
ATOM     21  H   UNL     1       0.067  -8.357   5.058  0.00  0.00    +0.166 HD
ATOM     22  C   UNL     1       4.317  -7.571   6.468  0.00  0.00    +0.018 C 
ATOM     23  C   UNL     1       4.855  -8.322   5.242  0.00  0.00    -0.076 C 
ATOM     24  N   UNL     1       4.123  -7.898   4.041  0.00  0.00    +0.388 N 
ATOM     25  H   UNL     1       4.604  -8.229   3.219  0.00  0.00    -0.084 HD
ATOM     26  H   UNL     1       4.078  -6.891   4.018  0.00  0.00    -0.084 HD
BRANCH  16  27
ATOM     27  O   UNL     1       0.931  -6.448  10.875  0.00  0.00    -0.495 OA
ATOM     28  C   UNL     1      -0.295  -6.318  11.598  0.00  0.00    +0.277 C 
ENDBRANCH  16  27
ENDBRANCH   4  11
BRANCH   1  32
ATOM     29  C   UNL     1       0.804  -1.825   1.306  0.00  0.00    +0.121 A 
ATOM     30  C   UNL     1      -0.124  -2.515   2.071  0.00  0.00    +0.047 A 
ATOM     31  C   UNL     1      -0.015  -3.884   2.220  0.00  0.00    +0.030 A 
ATOM     32  C   UNL     1       1.023  -4.568   1.603  0.00  0.00    +0.055 A 
ATOM     33  C   UNL     1       1.952  -3.877   0.837  0.00  0.00    +0.030 A 
ATOM     34  C   UNL     1       1.839  -2.509   0.685  0.00  0.00    +0.047 A 
BRANCH  29  35
ATOM     35  O   UNL     1       0.697  -0.477   1.160  0.00  0.00    -0.492 OA
BRANCH  35  37
ATOM     36  C   UNL     1      -0.349   1.667   1.549  0.00  0.00    +0.048 C 
ATOM     37  C   UNL     1      -0.393   0.163   1.828  0.00  0.00    +0.225 C 
ENDBRANCH  35  37
ENDBRANCH  29  35
ENDBRANCH   1  32
TORSDOF 5
