REMARK  Name = ZINC07692751
REMARK  7 active torsions:
REMARK  status: ('A' for Active; 'I' for Inactive)
REMARK    1  A    between atoms: C_1  and  N_2
REMARK    2  A    between atoms: N_2  and  C_3
REMARK    3  A    between atoms: C_3  and  C_4
REMARK    4  A    between atoms: C_15  and  C_17
REMARK    5  A    between atoms: C_17  and  S_18
REMARK    6  A    between atoms: S_18  and  C_19
REMARK    7  A    between atoms: C_23  and  N_25
REMARK                            x       y       z     vdW  Elec       q    Type
REMARK                         _______ _______ _______ _____ _____    ______ ____
ROOT
ATOM      1  C   UNL     1       5.400   5.310  -0.021  0.00  0.00    +0.132 C 
ATOM      2  N   UNL     1       4.231   6.192  -0.006  0.00  0.00    -0.300 N 
ATOM      3  C   UNL     1       2.990   5.667   0.003  0.00  0.00    +0.226 C 
ATOM      4  O   UNL     1       2.022   6.397   0.016  0.00  0.00    -0.275 OA
ENDROOT
BRANCH   2   5
ATOM      5  C   UNL     1       4.411   7.646  -0.000  0.00  0.00    +0.155 C 
BRANCH   5   6
ATOM      6  C   UNL     1       4.487   8.145   1.444  0.00  0.00    +0.228 C 
ATOM      7  C   UNL     1       4.644   9.672   1.457  0.00  0.00    +0.275 C 
ATOM      8  O   UNL     1       4.699  10.105   2.821  0.00  0.00    -0.485 OA
ATOM      9  C   UNL     1       3.767   9.584   3.665  0.00  0.00    +0.162 A 
ATOM     10  C   UNL     1       3.528  10.206   4.882  0.00  0.00    +0.049 A 
ATOM     11  C   UNL     1       2.590   9.685   5.753  0.00  0.00    +0.004 A 
ATOM     12  C   UNL     1       1.888   8.543   5.414  0.00  0.00    +0.004 A 
ATOM     13  C   UNL     1       2.120   7.919   4.203  0.00  0.00    +0.049 A 
ATOM     14  C   UNL     1       3.060   8.438   3.324  0.00  0.00    +0.163 A 
ATOM     15  O   UNL     1       3.276   7.814   2.134  0.00  0.00    -0.480 OA
ENDBRANCH   5   6
ENDBRANCH   2   5
BRANCH   3  16
ATOM     16  C   UNL     1       2.805   4.171  -0.003  0.00  0.00    +0.173 C 
BRANCH  16  17
ATOM     17  S   UNL     1       1.038   3.781   0.012  0.00  0.00    -0.077 S 
BRANCH  17  18
ATOM     18  C   UNL     1       1.113   2.021   0.002  0.00  0.00    +0.192 A 
ATOM     19  N   UNL     1      -0.016   1.327   0.009  0.00  0.00    -0.207 NA
ATOM     20  C   UNL     1       0.002  -0.004   0.002  0.00  0.00    +0.122 A 
ATOM     21  C   UNL     1       1.227  -0.665  -0.013  0.00  0.00    +0.086 A 
ATOM     22  C   UNL     1       2.391   0.098  -0.020  0.00  0.00    +0.122 A 
ATOM     23  N   UNL     1       2.296   1.425  -0.012  0.00  0.00    -0.207 NA
ATOM     24  N   UNL     1      -1.183  -0.723   0.010  0.00  0.00    -0.343 N 
ATOM     25  H   UNL     1      -2.034  -0.255   0.021  0.00  0.00    +0.144 HD
ATOM     26  H   UNL     1      -1.163  -1.692   0.004  0.00  0.00    +0.144 HD
BRANCH  22  27
ATOM     27  N   UNL     1       3.634  -0.518  -0.035  0.00  0.00    -0.343 N 
ATOM     28  H   UNL     1       3.695  -1.486  -0.040  0.00  0.00    +0.144 HD
ATOM     29  H   UNL     1       4.441   0.020  -0.040  0.00  0.00    +0.144 HD
ENDBRANCH  22  27
ENDBRANCH  17  18
ENDBRANCH  16  17
ENDBRANCH   3  16
TORSDOF 6
