REMARK  Name = ZINC00133308
REMARK  7 active torsions:
REMARK  status: ('A' for Active; 'I' for Inactive)
REMARK    1  A    between atoms: C_1  and  C_2
REMARK    2  A    between atoms: C_7  and  N_8
REMARK    3  A    between atoms: C_9  and  C_11
REMARK    4  A    between atoms: C_11  and  O_12
REMARK    5  A    between atoms: O_12  and  C_13
REMARK    6  A    between atoms: C_15  and  C_21
REMARK    7  A    between atoms: C_17  and  C_19
REMARK                            x       y       z     vdW  Elec       q    Type
REMARK                         _______ _______ _______ _____ _____    ______ ____
ROOT
ATOM      1  N   UNL     1      -6.035   1.389   0.037  0.00  0.00    -0.282 N 
ATOM      2  C   UNL     1      -4.783   0.890   0.025  0.00  0.00    +0.255 C 
ATOM      3  O   UNL     1      -4.609  -0.310   0.024  0.00  0.00    -0.272 OA
ATOM      4  H   UNL     1      -6.175   2.346   0.119  0.00  0.00    +0.155 HD
ENDROOT
BRANCH   1  11
ATOM      5  C   UNL     1      -8.524   2.246   1.117  0.00  0.00    +0.045 C 
ATOM      6  C   UNL     1      -8.366   0.907   0.446  0.00  0.00    -0.029 A 
ATOM      7  C   UNL     1      -9.449   0.057   0.336  0.00  0.00    +0.006 A 
ATOM      8  C   UNL     1      -9.305  -1.175  -0.275  0.00  0.00    +0.020 A 
ATOM      9  C   UNL     1      -8.076  -1.558  -0.784  0.00  0.00    +0.043 A 
ATOM     10  C   UNL     1      -6.989  -0.709  -0.682  0.00  0.00    +0.043 A 
ATOM     11  C   UNL     1      -7.133   0.528  -0.068  0.00  0.00    +0.038 A 
ATOM     12 CL   UNL     1      -7.899  -3.105  -1.551  0.00  0.00    -0.083 Cl
ENDBRANCH   1  11
BRANCH   2  13
ATOM     13  C   UNL     1      -3.600   1.823   0.014  0.00  0.00    +0.324 C 
BRANCH  13  14
ATOM     14  O   UNL     1      -2.392   1.060   0.002  0.00  0.00    -0.483 OA
BRANCH  14  15
ATOM     15  C   UNL     1      -1.223   1.755  -0.009  0.00  0.00    +0.122 A 
ATOM     16  C   UNL     1      -0.013   1.077  -0.021  0.00  0.00    +0.050 A 
ATOM     17  C   UNL     1       1.174   1.785  -0.039  0.00  0.00    -0.028 A 
ATOM     18  C   UNL     1       1.155   3.168  -0.040  0.00  0.00    +0.047 A 
ATOM     19  C   UNL     1      -0.051   3.846  -0.022  0.00  0.00    -0.028 A 
ATOM     20  C   UNL     1      -1.240   3.142  -0.004  0.00  0.00    +0.050 A 
ATOM     21  C   UNL     1      -0.069   5.353  -0.023  0.00  0.00    +0.045 C 
ATOM     22 CL   UNL     1       2.647   4.055  -0.062  0.00  0.00    -0.083 Cl
ATOM     23  C   UNL     1       2.489   1.049  -0.058  0.00  0.00    +0.045 C 
ENDBRANCH  14  15
ENDBRANCH  13  14
ENDBRANCH   2  13
TORSDOF 4
