REMARK  Name = ZINC12378538
REMARK  8 active torsions:
REMARK  status: ('A' for Active; 'I' for Inactive)
REMARK    1  A    between atoms: C_1  and  C_2
REMARK    2  A    between atoms: N_4  and  C_5
REMARK    3  A    between atoms: C_7  and  O_28
REMARK    4  A    between atoms: C_9  and  O_27
REMARK    5  A    between atoms: C_11  and  C_25
REMARK    6  A    between atoms: C_14  and  O_16
REMARK    7  A    between atoms: O_16  and  C_17
REMARK    8  A    between atoms: C_25  and  O_26
REMARK                            x       y       z     vdW  Elec       q    Type
REMARK                         _______ _______ _______ _____ _____    ______ ____
ROOT
ATOM      1  C   UNL     1       1.390   3.147  -0.073  0.00  0.00    +0.173 C 
ATOM      2  C   UNL     1       1.424   1.617  -0.003  0.00  0.00    +0.172 C 
ATOM      3  C   UNL     1      -0.013   1.086   0.008  0.00  0.00    +0.176 C 
ATOM      4  C   UNL     1      -0.746   1.594  -1.236  0.00  0.00    +0.179 C 
ATOM      5  O   UNL     1      -0.714   3.023  -1.256  0.00  0.00    -0.332 OA
ATOM      6  C   UNL     1       0.603   3.576  -1.314  0.00  0.00    +0.331 C 
ENDROOT
BRANCH   1  10
ATOM      7  C   UNL     1       4.442   5.444   0.176  0.00  0.00    +0.109 C 
ATOM      8  C   UNL     1       3.035   4.913   0.265  0.00  0.00    +0.210 C 
ATOM      9  O   UNL     1       2.151   5.609   0.717  0.00  0.00    -0.276 OA
ATOM     10  N   UNL     1       2.758   3.664  -0.159  0.00  0.00    -0.304 N 
ATOM     11  H   UNL     1       3.465   3.106  -0.520  0.00  0.00    +0.149 HD
ENDBRANCH   1  10
BRANCH   3  12
ATOM     12  O   UNL     1      -0.684   1.548   1.182  0.00  0.00    -0.387 OA
ATOM     13  H   UNL     1      -1.601   1.250   1.253  0.00  0.00    +0.210 HD
ENDBRANCH   3  12
BRANCH   2  14
ATOM     14  O   UNL     1       2.116   1.102  -1.142  0.00  0.00    -0.387 OA
ATOM     15  H   UNL     1       2.169   0.137  -1.166  0.00  0.00    +0.210 HD
ENDBRANCH   2  14
BRANCH   6  16
ATOM     16  O   UNL     1       1.267   3.103  -2.487  0.00  0.00    -0.460 OA
BRANCH  16  17
ATOM     17  C   UNL     1       0.818   3.571  -3.682  0.00  0.00    +0.142 A 
ATOM     18  C   UNL     1      -0.244   4.463  -3.724  0.00  0.00    +0.049 A 
ATOM     19  C   UNL     1      -0.695   4.942  -4.938  0.00  0.00    +0.023 A 
ATOM     20  C   UNL     1      -0.097   4.524  -6.114  0.00  0.00    +0.043 A 
ATOM     21  C   UNL     1       0.959   3.630  -6.075  0.00  0.00    +0.043 A 
ATOM     22  C   UNL     1       1.417   3.153  -4.862  0.00  0.00    +0.084 A 
ATOM     23 CL   UNL     1       2.741   2.031  -4.814  0.00  0.00    -0.080 Cl
ATOM     24 CL   UNL     1      -0.671   5.122  -7.639  0.00  0.00    -0.083 Cl
ENDBRANCH  16  17
ENDBRANCH   6  16
BRANCH   4  25
ATOM     25  C   UNL     1      -2.199   1.117  -1.202  0.00  0.00    +0.190 C 
BRANCH  25  26
ATOM     26  O   UNL     1      -2.852   1.492  -2.417  0.00  0.00    -0.392 OA
ATOM     27  H   UNL     1      -3.779   1.221  -2.465  0.00  0.00    +0.210 HD
ENDBRANCH  25  26
ENDBRANCH   4  25
TORSDOF 7
