REMARK  Name = ZINC05013695
REMARK  8 active torsions:
REMARK  status: ('A' for Active; 'I' for Inactive)
REMARK    1  A    between atoms: C_1  and  C_2
REMARK    2  A    between atoms: C_5  and  O_8
REMARK    3  A    between atoms: O_8  and  C_9
REMARK    4  A    between atoms: C_9  and  C_10
REMARK    5  A    between atoms: C_13  and  C_15
REMARK    6  A    between atoms: N_17  and  C_18
REMARK    7  A    between atoms: C_20  and  C_25
REMARK    8  A    between atoms: C_23  and  C_24
REMARK                            x       y       z     vdW  Elec       q    Type
REMARK                         _______ _______ _______ _____ _____    ______ ____
ROOT
ATOM      1  C   UNL     1       5.866  -1.322   0.279  0.00  0.00    +0.143 A 
ATOM      2  C   UNL     1       5.257  -2.527   0.341  0.00  0.00    +0.049 A 
ATOM      3  C   UNL     1       3.874  -2.294   0.281  0.00  0.00    +0.055 A 
ATOM      4  C   UNL     1       3.708  -0.943   0.175  0.00  0.00    +0.190 A 
ATOM      5  O   UNL     1       4.929  -0.370   0.179  0.00  0.00    -0.452 OA
ENDROOT
BRANCH   4   6
ATOM      6  C   UNL     1       2.426  -0.237   0.080  0.00  0.00    +0.284 C 
ATOM      7  O   UNL     1       1.384  -0.865   0.087  0.00  0.00    -0.266 OA
ATOM      8  N   UNL     1       2.402   1.107  -0.015  0.00  0.00    -0.279 N 
ATOM      9  H   UNL     1       3.232   1.603  -0.086  0.00  0.00    +0.155 HD
BRANCH   8  10
ATOM     10  C   UNL     1       1.180   1.787  -0.010  0.00  0.00    +0.037 A 
ATOM     11  C   UNL     1       0.064   1.216  -0.608  0.00  0.00    +0.027 A 
ATOM     12  C   UNL     1      -1.140   1.892  -0.607  0.00  0.00    -0.049 A 
ATOM     13  C   UNL     1      -1.238   3.131  -0.001  0.00  0.00    +0.004 A 
ATOM     14  C   UNL     1      -0.130   3.702   0.596  0.00  0.00    +0.005 A 
ATOM     15  C   UNL     1       1.079   3.034   0.593  0.00  0.00    -0.029 A 
ATOM     16  C   UNL     1       2.288   3.657   1.243  0.00  0.00    +0.045 C 
ATOM     17  C   UNL     1      -2.350   1.276  -1.262  0.00  0.00    +0.044 C 
ENDBRANCH   8  10
ENDBRANCH   4   6
BRANCH   1  18
ATOM     18  C   UNL     1       7.354  -1.088   0.317  0.00  0.00    +0.303 C 
BRANCH  18  19
ATOM     19  O   UNL     1       7.874  -1.108  -1.014  0.00  0.00    -0.484 OA
BRANCH  19  24
ATOM     20  C   UNL     1      13.415  -0.293  -1.609  0.00  0.00    +0.044 C 
ATOM     21  C   UNL     1      11.933  -0.511  -1.450  0.00  0.00    -0.050 A 
ATOM     22  C   UNL     1      11.142  -0.718  -2.565  0.00  0.00    +0.007 A 
ATOM     23  C   UNL     1       9.782  -0.918  -2.422  0.00  0.00    +0.046 A 
ATOM     24  C   UNL     1       9.211  -0.911  -1.157  0.00  0.00    +0.121 A 
ATOM     25  C   UNL     1      10.006  -0.698  -0.041  0.00  0.00    +0.046 A 
ATOM     26  C   UNL     1      11.366  -0.505  -0.189  0.00  0.00    +0.007 A 
ENDBRANCH  19  24
ENDBRANCH  18  19
ENDBRANCH   1  18
TORSDOF 5
