REMARK  Name = ZINC23217187
REMARK  5 active torsions:
REMARK  status: ('A' for Active; 'I' for Inactive)
REMARK    1  A    between atoms: C_3  and  C_7
REMARK    2  A    between atoms: C_8  and  C_9
REMARK    3  A    between atoms: C_8  and  C_11
REMARK    4  A    between atoms: C_17  and  C_19
REMARK    5  A    between atoms: C_19  and  C_20
REMARK                            x       y       z     vdW  Elec       q    Type
REMARK                         _______ _______ _______ _____ _____    ______ ____
ROOT
ATOM      1  C   UNL     1       6.124   1.986   0.167  0.00  0.00    +0.260 C 
ATOM      2  O   UNL     1       6.167   3.202   0.173  0.00  0.00    -0.269 OA
ATOM      3  N   UNL     1       7.263   1.271   0.254  0.00  0.00    -0.260 N 
ATOM      4  C   UNL     1       8.486   1.922   0.350  0.00  0.00    +0.165 A 
ATOM      5  N   UNL     1       8.724   3.216   0.377  0.00  0.00    -0.233 NA
ATOM      6  C   UNL     1       9.956   3.681   0.473  0.00  0.00    +0.124 A 
ATOM      7  C   UNL     1      10.956   2.768   0.542  0.00  0.00    +0.015 A 
ATOM      8  S   UNL     1      10.024   1.247   0.468  0.00  0.00    -0.057 S 
ATOM      9  H   UNL     1       7.229   0.302   0.250  0.00  0.00    +0.157 HD
ENDROOT
BRANCH   1  11
ATOM     10  C   UNL     1       3.673   2.021  -0.023  0.00  0.00    +0.033 C 
ATOM     11  C   UNL     1       4.828   1.296   0.066  0.00  0.00    +0.114 C 
BRANCH  10  14
ATOM     12  C   UNL     1       0.980  -0.465   0.748  0.00  0.00    +0.020 A 
ATOM     13  C   UNL     1       2.227   0.134   0.731  0.00  0.00    +0.011 A 
ATOM     14  C   UNL     1       2.374   1.341   0.029  0.00  0.00    -0.006 A 
ATOM     15  C   UNL     1       1.258   1.885  -0.620  0.00  0.00    +0.118 A 
ATOM     16  N   UNL     1       0.094   1.273  -0.572  0.00  0.00    -0.263 NA
ATOM     17  C   UNL     1      -0.071   0.138   0.081  0.00  0.00    +0.111 A 
ENDBRANCH  10  14
BRANCH  11  18
ATOM     18  C   UNL     1       4.777  -0.135   0.059  0.00  0.00    +0.104 C 
ATOM     19  N   UNL     1       4.737  -1.270   0.054  0.00  0.00    -0.191 NA
ENDBRANCH  11  18
ENDBRANCH   1  11
BRANCH   7  20
ATOM     20  C   UNL     1      12.444   2.979   0.655  0.00  0.00    +0.080 C 
BRANCH  20  21
ATOM     21  C   UNL     1      12.833   3.041   2.109  0.00  0.00    -0.023 A 
ATOM     22  C   UNL     1      12.939   4.263   2.745  0.00  0.00    +0.025 A 
ATOM     23  C   UNL     1      13.297   4.319   4.080  0.00  0.00    +0.041 A 
ATOM     24  C   UNL     1      13.549   3.152   4.779  0.00  0.00    +0.021 A 
ATOM     25  C   UNL     1      13.443   1.929   4.143  0.00  0.00    +0.022 A 
ATOM     26  C   UNL     1      13.079   1.873   2.809  0.00  0.00    +0.045 A 
ATOM     27 CL   UNL     1      12.940   0.337   2.012  0.00  0.00    -0.083 Cl
ATOM     28 CL   UNL     1      13.430   5.855   4.880  0.00  0.00    -0.084 Cl
ENDBRANCH  20  21
ENDBRANCH   7  20
TORSDOF 5
