REMARK  Name = ZINC63646743
REMARK  6 active torsions:
REMARK  status: ('A' for Active; 'I' for Inactive)
REMARK    1  A    between atoms: C_1  and  C_2
REMARK    2  A    between atoms: C_2  and  C_3
REMARK    3  A    between atoms: C_2  and  C_4
REMARK    4  A    between atoms: C_11  and  C_15
REMARK    5  A    between atoms: C_15  and  S_16
REMARK    6  A    between atoms: S_16  and  C_17
REMARK                            x       y       z     vdW  Elec       q    Type
REMARK                         _______ _______ _______ _____ _____    ______ ____
ROOT
ATOM      1  C   UNL     1      -1.433  -0.534   0.013  0.00  0.00    +0.155 C 
ATOM      2  N   UNL     1      -1.473  -2.002   0.240  0.00  0.00    -0.266 N 
ATOM      3  N   UNL     1      -1.553  -2.382   1.551  0.00  0.00    -0.206 N 
ATOM      4  C   UNL     1      -1.166  -3.600   2.040  0.00  0.00    +0.272 A 
ATOM      5  O   UNL     1      -0.658  -4.423   1.295  0.00  0.00    -0.266 OA
ATOM      6  C   UNL     1      -1.352  -3.903   3.393  0.00  0.00    +0.096 A 
ATOM      7  C   UNL     1      -1.907  -2.974   4.224  0.00  0.00    +0.060 A 
ATOM      8  N   UNL     1      -2.246  -1.785   3.728  0.00  0.00    -0.226 NA
ATOM      9  C   UNL     1      -2.062  -1.496   2.465  0.00  0.00    +0.191 A 
ATOM     10  S   UNL     1      -2.342  -0.002   1.528  0.00  0.00    -0.062 S 
ATOM     11  H   UNL     1      -2.204  -2.433  -0.306  0.00  0.00    +0.168 HD
ENDROOT
BRANCH   1  13
ATOM     12  C   UNL     1      -0.019   1.526   0.010  0.00  0.00    +0.010 C 
ATOM     13  C   UNL     1       0.002  -0.004   0.002  0.00  0.00    +0.015 C 
ATOM     14  C   UNL     1       0.742  -0.511   1.242  0.00  0.00    +0.010 C 
ENDBRANCH   1  13
BRANCH   7  15
ATOM     15  C   UNL     1      -2.134  -3.289   5.681  0.00  0.00    +0.133 C 
BRANCH  15  16
ATOM     16  S   UNL     1      -0.890  -2.433   6.685  0.00  0.00    -0.078 S 
BRANCH  16  17
ATOM     17  C   UNL     1      -1.285  -2.895   8.339  0.00  0.00    +0.210 A 
ATOM     18  H   UNL     1      -2.828  -4.300  10.657  0.00  0.00    +0.192 HD
ATOM     19  N   UNL     1      -0.629  -2.499   9.435  0.00  0.00    -0.188 NA
ATOM     20  C   UNL     1      -1.188  -3.030  10.502  0.00  0.00    +0.209 A 
ATOM     21  N   UNL     1      -2.228  -3.786  10.094  0.00  0.00    -0.246 N 
ATOM     22  N   UNL     1      -2.274  -3.680   8.695  0.00  0.00    -0.144 NA
ATOM     23  N   UNL     1      -0.781  -2.845  11.810  0.00  0.00    -0.328 N 
ATOM     24  H   UNL     1      -0.017  -2.279  12.005  0.00  0.00    +0.145 HD
ATOM     25  H   UNL     1      -1.259  -3.280  12.533  0.00  0.00    +0.145 HD
ENDBRANCH  16  17
ENDBRANCH  15  16
ENDBRANCH   7  15
TORSDOF 4
