REMARK  Name = ZINC16204537
REMARK  9 active torsions:
REMARK  status: ('A' for Active; 'I' for Inactive)
REMARK    1  A    between atoms: C_1  and  C_2
REMARK    2  A    between atoms: C_2  and  C_4
REMARK    3  A    between atoms: C_2  and  O_21
REMARK    4  A    between atoms: N_6  and  N_7
REMARK    5  A    between atoms: C_8  and  C_10
REMARK    6  A    between atoms: C_12  and  N_18
REMARK    7  A    between atoms: C_15  and  N_16
REMARK    8  A    between atoms: N_16  and  C_17
REMARK    9  A    between atoms: O_21  and  C_22
REMARK                            x       y       z     vdW  Elec       q    Type
REMARK                         _______ _______ _______ _____ _____    ______ ____
ROOT
ATOM      1  N   UNL     1      -0.235  -0.346   0.018  0.00  0.00    -0.230 N 
ATOM      2  C   UNL     1      -0.165   1.000   0.021  0.00  0.00    +0.262 C 
ATOM      3  O   UNL     1       0.915   1.553  -0.067  0.00  0.00    -0.269 OA
ATOM      4  H   UNL     1      -1.096  -0.787   0.089  0.00  0.00    +0.173 HD
ENDROOT
BRANCH   2   5
ATOM      5  C   UNL     1      -1.397   1.802   0.125  0.00  0.00    +0.061 A 
ATOM      6  C   UNL     1      -2.647   1.178   0.096  0.00  0.00    +0.047 A 
ATOM      7  C   UNL     1      -3.795   1.932   0.198  0.00  0.00    +0.127 A 
ATOM      8  C   UNL     1      -3.719   3.311   0.320  0.00  0.00    +0.034 A 
ATOM      9  C   UNL     1      -2.493   3.943   0.344  0.00  0.00    +0.026 A 
ATOM     10  C   UNL     1      -1.323   3.199   0.247  0.00  0.00    +0.039 A 
BRANCH  10  11
ATOM     11  N   UNL     1      -0.088   3.832   0.272  0.00  0.00    -0.346 N 
ATOM     12  C   UNL     1      -0.015   5.296   0.268  0.00  0.00    +0.125 C 
ATOM     13  H   UNL     1       0.727   3.306   0.292  0.00  0.00    +0.146 HD
ENDBRANCH  10  11
BRANCH   7  14
ATOM     14  N   UNL     1      -5.117   1.268   0.173  0.00  0.00    +0.056 N 
ATOM     15  O   UNL     1      -6.135   1.932   0.259  0.00  0.00    -0.126 OA
ATOM     16  O   UNL     1      -5.189   0.057   0.066  0.00  0.00    -0.126 OA
ENDBRANCH   7  14
ENDBRANCH   2   5
BRANCH   1  19
ATOM     17  C   UNL     1       0.866  -2.454  -0.088  0.00  0.00    +0.270 C 
ATOM     18  O   UNL     1      -0.210  -3.005  -0.001  0.00  0.00    -0.270 OA
ATOM     19  N   UNL     1       0.936  -1.108  -0.086  0.00  0.00    -0.231 N 
ATOM     20  H   UNL     1       1.797  -0.667  -0.156  0.00  0.00    +0.173 HD
BRANCH  17  22
ATOM     21  C   UNL     1       2.993  -3.048   1.039  0.00  0.00    +0.062 C 
ATOM     22  C   UNL     1       2.126  -3.273  -0.201  0.00  0.00    +0.257 C 
BRANCH  22  23
ATOM     23  O   UNL     1       1.786  -4.658  -0.299  0.00  0.00    -0.480 OA
BRANCH  23  24
ATOM     24  C   UNL     1       2.686  -5.473  -0.909  0.00  0.00    +0.123 A 
ATOM     25  C   UNL     1       3.917  -4.972  -1.308  0.00  0.00    +0.046 A 
ATOM     26  C   UNL     1       4.832  -5.803  -1.925  0.00  0.00    +0.005 A 
ATOM     27  C   UNL     1       4.519  -7.130  -2.154  0.00  0.00    +0.015 A 
ATOM     28  C   UNL     1       3.291  -7.630  -1.762  0.00  0.00    +0.021 A 
ATOM     29  C   UNL     1       2.373  -6.804  -1.140  0.00  0.00    +0.061 A 
ATOM     30 BR   UNL     1       2.865  -9.446  -2.078  0.00  0.00    -0.050 Br
ENDBRANCH  23  24
ENDBRANCH  22  23
ENDBRANCH  17  22
ENDBRANCH   1  19
TORSDOF 7
