REMARK  Name = ZINC20681403
REMARK  8 active torsions:
REMARK  status: ('A' for Active; 'I' for Inactive)
REMARK    1  A    between atoms: C_1  and  C_2
REMARK    2  A    between atoms: C_5  and  N_9
REMARK    3  A    between atoms: C_7  and  C_8
REMARK    4  A    between atoms: N_9  and  S_10
REMARK    5  A    between atoms: S_10  and  C_13
REMARK    6  A    between atoms: C_26  and  C_29
REMARK    7  A    between atoms: C_32  and  O_36
REMARK    8  A    between atoms: C_34  and  O_35
REMARK                            x       y       z     vdW  Elec       q    Type
REMARK                         _______ _______ _______ _____ _____    ______ ____
ROOT
ATOM      1  C   UNL     1       3.943  -2.395  -0.411  0.00  0.00    +0.109 A 
ATOM      2  C   UNL     1       4.548  -1.206  -0.778  0.00  0.00    +0.030 A 
ATOM      3  C   UNL     1       5.803  -0.891  -0.300  0.00  0.00    +0.025 A 
ATOM      4  C   UNL     1       6.473  -1.768   0.544  0.00  0.00    +0.031 A 
ATOM      5  C   UNL     1       5.851  -2.965   0.918  0.00  0.00    -0.018 A 
ATOM      6  C   UNL     1       4.598  -3.272   0.433  0.00  0.00    +0.034 A 
ATOM      7  C   UNL     1       6.581  -3.850   1.851  0.00  0.00    +0.049 C 
ATOM      8  C   UNL     1       6.355  -5.327   1.919  0.00  0.00    -0.023 C 
ATOM      9  C   UNL     1       7.494  -5.928   2.243  0.00  0.00    -0.030 C 
ATOM     10  C   UNL     1       8.604  -4.889   2.414  0.00  0.00    +0.033 C 
ATOM     11  C   UNL     1       8.100  -3.749   1.519  0.00  0.00    +0.029 C 
ATOM     12  C   UNL     1       8.505  -2.337   1.903  0.00  0.00    +0.108 C 
ATOM     13  N   UNL     1       7.762  -1.445   0.985  0.00  0.00    -0.336 N 
ATOM     14  H   UNL     1       8.222  -0.509   0.636  0.00  0.00    +0.147 HD
ENDROOT
BRANCH  12  15
ATOM     15  C   UNL     1       9.989  -2.153   1.719  0.00  0.00    +0.015 A 
ATOM     16  C   UNL     1      10.477  -1.595   0.553  0.00  0.00    +0.012 A 
ATOM     17  C   UNL     1      11.837  -1.420   0.384  0.00  0.00    +0.046 A 
ATOM     18  C   UNL     1      12.718  -1.816   1.381  0.00  0.00    +0.120 A 
ATOM     19  C   UNL     1      12.231  -2.381   2.549  0.00  0.00    +0.091 A 
ATOM     20  C   UNL     1      10.866  -2.550   2.719  0.00  0.00    +0.125 A 
BRANCH  20  21
ATOM     21  O   UNL     1      10.386  -3.103   3.864  0.00  0.00    -0.506 OA
ATOM     22  H   UNL     1      11.081  -3.418   4.656  0.00  0.00    +0.292 HD
ENDBRANCH  20  21
BRANCH  18  23
ATOM     23  O   UNL     1      14.056  -1.649   1.212  0.00  0.00    -0.507 OA
ATOM     24  H   UNL     1      14.753  -1.962   2.002  0.00  0.00    +0.292 HD
ENDBRANCH  18  23
ENDBRANCH  12  15
BRANCH   1  25
ATOM     25  S   UNL     1       2.341  -2.795  -1.026  0.00  0.00    +0.072 S 
ATOM     26  O   UNL     1       2.182  -4.197  -0.864  0.00  0.00    -0.150 OA
ATOM     27  O   UNL     1       2.220  -2.156  -2.290  0.00  0.00    -0.150 OA
BRANCH  25  28
ATOM     28  N   UNL     1       1.238  -2.074  -0.024  0.00  0.00    -0.216 N 
ATOM     29  H   UNL     1       0.547  -1.315  -0.421  0.00  0.00    +0.174 HD
BRANCH  28  34
ATOM     30  C   UNL     1       1.021  -3.516   5.456  0.00  0.00    +0.044 C 
ATOM     31  C   UNL     1       1.078  -3.132   4.000  0.00  0.00    -0.047 A 
ATOM     32  C   UNL     1       1.151  -4.116   3.030  0.00  0.00    +0.005 A 
ATOM     33  C   UNL     1       1.203  -3.768   1.695  0.00  0.00    +0.025 A 
ATOM     34  C   UNL     1       1.184  -2.429   1.326  0.00  0.00    +0.048 A 
ATOM     35  C   UNL     1       1.111  -1.444   2.303  0.00  0.00    +0.028 A 
ATOM     36  C   UNL     1       1.058  -1.799   3.636  0.00  0.00    -0.046 A 
ATOM     37  C   UNL     1       0.986  -0.730   4.697  0.00  0.00    +0.044 C 
ENDBRANCH  28  34
ENDBRANCH  25  28
ENDBRANCH   1  25
TORSDOF 6
