REMARK  Name = ZINC12573475
REMARK  10 active torsions:
REMARK  status: ('A' for Active; 'I' for Inactive)
REMARK    1  A    between atoms: C_1  and  C_2
REMARK    2  A    between atoms: C_4  and  O_9
REMARK    3  A    between atoms: O_9  and  C_10
REMARK    4  A    between atoms: C_10  and  C_11
REMARK    5  A    between atoms: N_13  and  C_14
REMARK    6  A    between atoms: C_14  and  N_16
REMARK    7  A    between atoms: N_16  and  N_17
REMARK    8  A    between atoms: C_18  and  C_20
REMARK    9  A    between atoms: C_20  and  O_21
REMARK   10  A    between atoms: O_21  and  C_22
REMARK                            x       y       z     vdW  Elec       q    Type
REMARK                         _______ _______ _______ _____ _____    ______ ____
ROOT
ATOM      1  C   UNL     1      -2.904  -2.321   0.017  0.00  0.00    +0.153 C 
ATOM      2  S   UNL     1      -4.221  -1.226   0.036  0.00  0.00    -0.017 S 
ENDROOT
BRANCH   1   5
ATOM      3  C   UNL     1      -1.412  -0.526   0.013  0.00  0.00    +0.256 C 
ATOM      4  O   UNL     1      -2.344   0.250   0.026  0.00  0.00    -0.272 OA
ATOM      5  N   UNL     1      -1.640  -1.854   0.008  0.00  0.00    -0.264 N 
ATOM      6  H   UNL     1      -0.894  -2.474  -0.003  0.00  0.00    +0.157 HD
BRANCH   3   7
ATOM      7  C   UNL     1       0.002  -0.004   0.002  0.00  0.00    +0.324 C 
BRANCH   7   8
ATOM      8  O   UNL     1      -0.017   1.425   0.010  0.00  0.00    -0.483 OA
BRANCH   8  12
ATOM      9  C   UNL     1       2.524   5.592   0.007  0.00  0.00    +0.045 C 
ATOM     10  C   UNL     1       2.463   4.086   0.000  0.00  0.00    -0.033 A 
ATOM     11  C   UNL     1       1.240   3.444   0.009  0.00  0.00    +0.050 A 
ATOM     12  C   UNL     1       1.185   2.058   0.002  0.00  0.00    +0.122 A 
ATOM     13  C   UNL     1       2.360   1.319  -0.008  0.00  0.00    +0.047 A 
ATOM     14  C   UNL     1       3.580   1.965  -0.022  0.00  0.00    +0.019 A 
ATOM     15  C   UNL     1       3.633   3.348  -0.015  0.00  0.00    +0.021 A 
ATOM     16 BR   UNL     1       5.306   4.229  -0.027  0.00  0.00    -0.050 Br
ENDBRANCH   8  12
ENDBRANCH   7   8
ENDBRANCH   3   7
ENDBRANCH   1   5
BRANCH   1  17
ATOM     17  N   UNL     1      -3.133  -3.649   0.012  0.00  0.00    -0.245 N 
ATOM     18  H   UNL     1      -4.043  -3.985   0.019  0.00  0.00    +0.172 HD
BRANCH  17  19
ATOM     19  N   UNL     1      -2.056  -4.545  -0.003  0.00  0.00    -0.232 N 
ATOM     20  C   UNL     1      -2.284  -5.873  -0.008  0.00  0.00    +0.267 C 
ATOM     21  O   UNL     1      -3.422  -6.293   0.001  0.00  0.00    -0.271 OA
ATOM     22  H   UNL     1      -1.146  -4.209  -0.010  0.00  0.00    +0.173 HD
BRANCH  20  23
ATOM     23  C   UNL     1      -1.125  -6.837  -0.024  0.00  0.00    +0.326 C 
BRANCH  23  24
ATOM     24  O   UNL     1      -1.621  -8.177  -0.026  0.00  0.00    -0.483 OA
BRANCH  24  25
ATOM     25  C   UNL     1      -0.699  -9.175  -0.041  0.00  0.00    +0.121 A 
ATOM     26  C   UNL     1       0.655  -8.871  -0.058  0.00  0.00    +0.047 A 
ATOM     27  C   UNL     1       1.590  -9.887  -0.067  0.00  0.00    +0.023 A 
ATOM     28  C   UNL     1       1.178 -11.208  -0.070  0.00  0.00    +0.041 A 
ATOM     29  C   UNL     1      -0.171 -11.514  -0.059  0.00  0.00    +0.023 A 
ATOM     30  C   UNL     1      -1.110 -10.500  -0.044  0.00  0.00    +0.047 A 
ATOM     31 CL   UNL     1       2.356 -12.483  -0.088  0.00  0.00    -0.084 Cl
ENDBRANCH  24  25
ENDBRANCH  23  24
ENDBRANCH  20  23
ENDBRANCH  17  19
ENDBRANCH   1  17
TORSDOF 9
