REMARK  Name = ZINC14471291
REMARK  4 active torsions:
REMARK  status: ('A' for Active; 'I' for Inactive)
REMARK    1  A    between atoms: C_1  and  C_2
REMARK    2  A    between atoms: C_8  and  C_10
REMARK    3  A    between atoms: C_23  and  C_26
REMARK    4  A    between atoms: C_30  and  N_32
REMARK                            x       y       z     vdW  Elec       q    Type
REMARK                         _______ _______ _______ _____ _____    ______ ____
ROOT
ATOM      1  C   UNL     1       2.748  10.261  -0.264  0.00  0.00    +0.037 A 
ATOM      2  C   UNL     1       3.347   9.328  -1.115  0.00  0.00    +0.015 A 
ATOM      3  C   UNL     1       2.768   8.095  -1.300  0.00  0.00    +0.024 A 
ATOM      4  C   UNL     1       1.584   7.764  -0.644  0.00  0.00    +0.031 A 
ATOM      5  C   UNL     1       0.976   8.707   0.197  0.00  0.00    -0.019 A 
ATOM      6  C   UNL     1       1.557   9.936   0.390  0.00  0.00    +0.019 A 
ATOM      7  C   UNL     1      -0.306   8.328   0.831  0.00  0.00    +0.049 C 
ATOM      8  C   UNL     1      -0.761   8.931   2.110  0.00  0.00    -0.023 C 
ATOM      9  C   UNL     1      -1.487   8.034   2.766  0.00  0.00    -0.030 C 
ATOM     10  C   UNL     1      -1.544   6.726   1.974  0.00  0.00    +0.033 C 
ATOM     11  C   UNL     1      -0.249   6.805   1.154  0.00  0.00    +0.029 C 
ATOM     12  C   UNL     1      -0.240   6.107  -0.194  0.00  0.00    +0.105 C 
ATOM     13  N   UNL     1       1.032   6.499  -0.839  0.00  0.00    -0.336 N 
ATOM     14  H   UNL     1       1.490   5.863  -1.410  0.00  0.00    +0.147 HD
ENDROOT
BRANCH   1  22
ATOM     15  C   UNL     1       3.410  15.200  -4.136  0.00  0.00    +0.007 C 
ATOM     16  C   UNL     1       3.993  14.106  -3.239  0.00  0.00    -0.011 C 
ATOM     17  C   UNL     1       4.012  14.592  -1.788  0.00  0.00    +0.022 C 
ATOM     18  C   UNL     1       4.628  13.508  -0.898  0.00  0.00    +0.108 C 
ATOM     19  N   UNL     1       3.892  12.253  -1.104  0.00  0.00    -0.298 N 
ATOM     20  C   UNL     1       3.741  11.739  -2.472  0.00  0.00    +0.108 C 
ATOM     21  C   UNL     1       3.131  12.846  -3.345  0.00  0.00    +0.022 C 
ATOM     22  C   UNL     1       3.371  11.583  -0.057  0.00  0.00    +0.247 C 
ATOM     23  O   UNL     1       3.413  12.067   1.057  0.00  0.00    -0.270 OA
ENDBRANCH   1  22
BRANCH  12  24
ATOM     24  C   UNL     1      -0.290   4.613  -0.007  0.00  0.00    -0.025 A 
ATOM     25  C   UNL     1       0.845   3.928   0.387  0.00  0.00    +0.007 A 
ATOM     26  C   UNL     1       0.801   2.557   0.559  0.00  0.00    +0.022 A 
ATOM     27  C   UNL     1      -0.380   1.870   0.337  0.00  0.00    +0.071 A 
ATOM     28  C   UNL     1      -1.513   2.555  -0.063  0.00  0.00    +0.145 A 
ATOM     29  C   UNL     1      -1.469   3.927  -0.229  0.00  0.00    +0.039 A 
ATOM     30 CL   UNL     1      -0.437   0.149   0.552  0.00  0.00    -0.081 Cl
BRANCH  28  31
ATOM     31  N   UNL     1      -2.775   1.821  -0.307  0.00  0.00    +0.058 N 
ATOM     32  O   UNL     1      -3.773   2.424  -0.659  0.00  0.00    -0.126 OA
ATOM     33  O   UNL     1      -2.815   0.613  -0.156  0.00  0.00    -0.126 OA
ENDBRANCH  28  31
ENDBRANCH  12  24
TORSDOF 3
