REMARK  Name = ZINC16671882
REMARK  5 active torsions:
REMARK  status: ('A' for Active; 'I' for Inactive)
REMARK    1  A    between atoms: C_1  and  C_2
REMARK    2  A    between atoms: N_16  and  N_17
REMARK    3  A    between atoms: N_17  and  C_18
REMARK    4  A    between atoms: C_21  and  O_27
REMARK    5  A    between atoms: O_27  and  C_28
REMARK                            x       y       z     vdW  Elec       q    Type
REMARK                         _______ _______ _______ _____ _____    ______ ____
ROOT
ATOM      1  C   UNL     1      -0.018   1.503   0.010  0.00  0.00    +0.046 C 
ATOM      2  C   UNL     1       0.002  -0.004   0.002  0.00  0.00    -0.026 A 
ATOM      3  C   UNL     1       0.006  -0.686  -1.196  0.00  0.00    +0.005 A 
ATOM      4  C   UNL     1       0.024  -2.072  -1.218  0.00  0.00    +0.001 A 
ATOM      5  C   UNL     1       0.039  -2.785  -0.038  0.00  0.00    +0.012 A 
ATOM      6  C   UNL     1       0.036  -2.108   1.179  0.00  0.00    +0.029 A 
ATOM      7  C   UNL     1       0.023  -0.705   1.203  0.00  0.00    +0.053 A 
ATOM      8  N   UNL     1       0.029  -0.289   2.524  0.00  0.00    -0.337 N 
ATOM      9  H   UNL     1       0.019   0.636   2.814  0.00  0.00    +0.167 HD
ATOM     10  C   UNL     1       0.052  -1.373   3.367  0.00  0.00    +0.163 A 
ATOM     11  C   UNL     1       0.048  -2.547   2.586  0.00  0.00    +0.138 A 
ATOM     12  N   UNL     1       0.066  -3.728   3.185  0.00  0.00    -0.142 NA
ATOM     13  N   UNL     1       0.072  -3.799   4.473  0.00  0.00    -0.111 NA
ATOM     14  C   UNL     1       0.061  -2.708   5.230  0.00  0.00    +0.253 A 
ATOM     15  N   UNL     1       0.066  -1.496   4.691  0.00  0.00    -0.193 NA
ATOM     16  N   UNL     1       0.069  -2.837   6.608  0.00  0.00    -0.234 N 
ATOM     17  H   UNL     1       0.061  -2.047   7.170  0.00  0.00    +0.173 HD
ENDROOT
BRANCH  16  18
ATOM     18  N   UNL     1       0.088  -4.111   7.192  0.00  0.00    -0.271 N 
ATOM     19  H   UNL     1       0.096  -4.902   6.630  0.00  0.00    +0.169 HD
BRANCH  18  20
ATOM     20  C   UNL     1       0.096  -4.237   8.528  0.00  0.00    +0.095 C 
ATOM     21  C   UNL     1       0.115  -5.508   9.110  0.00  0.00    -0.005 C 
ATOM     22  C   UNL     1       0.132  -6.661   8.293  0.00  0.00    +0.058 C 
ATOM     23  C   UNL     1       0.151  -7.896   8.862  0.00  0.00    +0.168 C 
ATOM     24  C   UNL     1       0.153  -8.025  10.268  0.00  0.00    +0.234 C 
ATOM     25  O   UNL     1       0.170  -9.137  10.780  0.00  0.00    -0.283 OA
ATOM     26  C   UNL     1       0.137  -6.877  11.081  0.00  0.00    +0.069 C 
ATOM     27  C   UNL     1       0.122  -5.642  10.516  0.00  0.00    +0.028 C 
ATOM     28 BR   UNL     1       0.140  -7.054  12.964  0.00  0.00    -0.046 Br
BRANCH  23  29
ATOM     29  O   UNL     1       0.167  -9.007   8.077  0.00  0.00    -0.491 OA
ATOM     30  C   UNL     1       0.163  -8.802   6.663  0.00  0.00    +0.277 C 
ENDBRANCH  23  29
ENDBRANCH  18  20
ENDBRANCH  16  18
TORSDOF 3
