REMARK  Name = ZINC67245807
REMARK  6 active torsions:
REMARK  status: ('A' for Active; 'I' for Inactive)
REMARK    1  A    between atoms: C_1  and  C_2
REMARK    2  A    between atoms: C_2  and  C_3
REMARK    3  A    between atoms: C_2  and  C_4
REMARK    4  A    between atoms: C_2  and  N_20
REMARK    5  A    between atoms: C_4  and  N_5
REMARK    6  A    between atoms: C_6  and  C_8
REMARK                            x       y       z     vdW  Elec       q    Type
REMARK                         _______ _______ _______ _____ _____    ______ ____
ROOT
ATOM      1  N   UNL     1      -1.390  -1.964  -0.384  0.00  0.00    -0.316 N 
ATOM      2  C   UNL     1      -2.527  -2.627  -0.672  0.00  0.00    +0.216 C 
ATOM      3  O   UNL     1      -3.574  -2.022  -0.768  0.00  0.00    -0.276 OA
ATOM      4  H   UNL     1      -0.553  -2.447  -0.306  0.00  0.00    +0.149 HD
ENDROOT
BRANCH   2   5
ATOM      5  C   UNL     1      -2.498  -4.120  -0.876  0.00  0.00    +0.075 C 
ATOM      6  C   UNL     1      -1.566  -4.457  -2.041  0.00  0.00    +0.015 C 
ATOM      7  C   UNL     1      -1.528  -5.975  -2.239  0.00  0.00    +0.036 C 
ATOM      8  C   UNL     1      -2.934  -6.489  -2.526  0.00  0.00    +0.112 C 
ATOM      9  C   UNL     1      -3.881  -6.138  -1.383  0.00  0.00    +0.036 C 
ATOM     10  C   UNL     1      -3.910  -4.620  -1.189  0.00  0.00    +0.015 C 
ATOM     11  C   UNL     1      -3.447  -5.924  -3.830  0.00  0.00    +0.244 C 
ATOM     12  O   UNL     1      -3.628  -4.757  -4.103  0.00  0.00    -0.273 OA
ATOM     13  N   UNL     1      -3.663  -6.992  -4.625  0.00  0.00    -0.238 N 
ATOM     14  C   UNL     1      -3.358  -8.138  -4.005  0.00  0.00    +0.307 C 
ATOM     15  O   UNL     1      -3.469  -9.234  -4.519  0.00  0.00    -0.252 OA
ATOM     16  N   UNL     1      -2.915  -7.941  -2.749  0.00  0.00    -0.285 N 
ATOM     17  H   UNL     1      -3.998  -6.936  -5.534  0.00  0.00    +0.159 HD
ATOM     18  H   UNL     1      -2.637  -8.622  -2.117  0.00  0.00    +0.151 HD
ENDBRANCH   2   5
BRANCH   1  19
ATOM     19  C   UNL     1      -1.419  -0.512  -0.186  0.00  0.00    +0.092 C 
BRANCH  19  21
ATOM     20  C   UNL     1       0.812  -0.206  -1.269  0.00  0.00    -0.008 C 
ATOM     21  C   UNL     1       0.007   0.003   0.016  0.00  0.00    -0.055 C 
ATOM     22  C   UNL     1      -0.032   1.494   0.355  0.00  0.00    -0.008 C 
BRANCH  21  23
ATOM     23  N   UNL     1       0.643  -0.733   1.117  0.00  0.00    +0.384 N 
ATOM     24  C   UNL     1      -0.155  -0.569   2.338  0.00  0.00    -0.078 C 
ATOM     25  C   UNL     1       0.458  -1.399   3.467  0.00  0.00    -0.019 C 
ATOM     26  C   UNL     1       1.891  -0.922   3.724  0.00  0.00    -0.004 C 
ATOM     27  C   UNL     1       2.694  -1.027   2.425  0.00  0.00    -0.019 C 
ATOM     28  C   UNL     1       1.998  -0.211   1.334  0.00  0.00    -0.078 C 
ATOM     29  H   UNL     1       0.695  -1.712   0.880  0.00  0.00    -0.081 HD
ENDBRANCH  21  23
ENDBRANCH  19  21
ENDBRANCH   1  19
TORSDOF 4
