REMARK  Name = ZINC61079720
REMARK  5 active torsions:
REMARK  status: ('A' for Active; 'I' for Inactive)
REMARK    1  A    between atoms: C_1  and  C_2
REMARK    2  A    between atoms: C_2  and  C_4
REMARK    3  A    between atoms: C_2  and  N_7
REMARK    4  A    between atoms: C_8  and  C_10
REMARK    5  A    between atoms: C_12  and  N_18
REMARK                            x       y       z     vdW  Elec       q    Type
REMARK                         _______ _______ _______ _____ _____    ______ ____
ROOT
ATOM      1  N   UNL     1       0.688  -0.476  -1.203  0.00  0.00    -0.300 N 
ATOM      2  C   UNL     1       0.006  -0.608  -2.358  0.00  0.00    +0.246 C 
ATOM      3  O   UNL     1      -1.178  -0.335  -2.400  0.00  0.00    -0.270 OA
ATOM      4  H   UNL     1       1.632  -0.695  -1.170  0.00  0.00    +0.150 HD
ENDROOT
BRANCH   2   5
ATOM      5  C   UNL     1       0.697  -1.084  -3.574  0.00  0.00    +0.053 A 
ATOM      6  C   UNL     1       2.056  -1.405  -3.526  0.00  0.00    +0.039 A 
ATOM      7  C   UNL     1       2.698  -1.851  -4.669  0.00  0.00    +0.061 A 
ATOM      8  C   UNL     1       1.989  -1.980  -5.861  0.00  0.00    +0.145 A 
ATOM      9  C   UNL     1       0.643  -1.662  -5.908  0.00  0.00    +0.056 A 
ATOM     10  C   UNL     1      -0.007  -1.222  -4.772  0.00  0.00    +0.033 A 
ATOM     11 BR   UNL     1      -1.849  -0.797  -4.840  0.00  0.00    -0.049 Br
ATOM     12  F   UNL     1       2.618  -2.415  -6.974  0.00  0.00    -0.204 F 
BRANCH   7  13
ATOM     13  N   UNL     1       4.059  -2.172  -4.626  0.00  0.00    -0.356 N 
ATOM     14  H   UNL     1       4.553  -2.082  -3.796  0.00  0.00    +0.142 HD
ATOM     15  H   UNL     1       4.509  -2.485  -5.426  0.00  0.00    +0.142 HD
ENDBRANCH   7  13
ENDBRANCH   2   5
BRANCH   1  17
ATOM     16  C   UNL     1      -0.019   1.526   0.010  0.00  0.00    +0.038 C 
ATOM     17  C   UNL     1       0.002  -0.004   0.002  0.00  0.00    +0.156 C 
BRANCH  17  18
ATOM     18  C   UNL     1       0.731  -0.503   1.223  0.00  0.00    +0.231 C 
ATOM     19  O   UNL     1       1.725  -1.187   1.099  0.00  0.00    -0.274 OA
ATOM     20  N   UNL     1       0.278  -0.191   2.453  0.00  0.00    -0.328 N 
ATOM     21  H   UNL     1      -0.517   0.356   2.553  0.00  0.00    +0.145 HD
ATOM     22  H   UNL     1       0.747  -0.512   3.239  0.00  0.00    +0.145 HD
ENDBRANCH  17  18
ENDBRANCH   1  17
TORSDOF 4
