REMARK  Name = ZINC65010999
REMARK  7 active torsions:
REMARK  status: ('A' for Active; 'I' for Inactive)
REMARK    1  A    between atoms: C_1  and  C_2
REMARK    2  A    between atoms: C_5  and  C_33
REMARK    3  A    between atoms: C_6  and  C_24
REMARK    4  A    between atoms: C_9  and  S_12
REMARK    5  A    between atoms: C_10  and  C_11
REMARK    6  A    between atoms: S_12  and  N_15
REMARK    7  A    between atoms: N_15  and  C_16
REMARK                            x       y       z     vdW  Elec       q    Type
REMARK                         _______ _______ _______ _____ _____    ______ ____
ROOT
ATOM      1  C   UNL     1      -0.188   1.493   0.028  0.00  0.00    +0.044 C 
ATOM      2  C   UNL     1      -0.043  -0.007   0.007  0.00  0.00    -0.045 A 
ATOM      3  C   UNL     1      -0.204  -0.688  -1.166  0.00  0.00    +0.015 A 
ATOM      4  C   UNL     1      -0.069  -2.078  -1.184  0.00  0.00    +0.026 A 
ATOM      5  C   UNL     1      -0.170  -3.099  -2.226  0.00  0.00    +0.008 A 
ATOM      6  C   UNL     1       0.069  -4.287  -1.613  0.00  0.00    +0.194 A 
ATOM      7  O   UNL     1       0.305  -4.084  -0.300  0.00  0.00    -0.448 OA
ATOM      8  C   UNL     1       0.233  -2.773   0.002  0.00  0.00    +0.163 A 
ATOM      9  C   UNL     1       0.393  -2.058   1.184  0.00  0.00    +0.156 A 
ATOM     10  C   UNL     1       0.260  -0.686   1.179  0.00  0.00    -0.017 A 
ATOM     11  C   UNL     1       0.441   0.084   2.461  0.00  0.00    +0.046 C 
ATOM     12  C   UNL     1      -0.479  -2.878  -3.685  0.00  0.00    +0.048 C 
ENDROOT
BRANCH   6  13
ATOM     13  C   UNL     1       0.070  -5.598  -2.280  0.00  0.00    +0.282 C 
ATOM     14  O   UNL     1      -0.038  -5.665  -3.489  0.00  0.00    -0.267 OA
ATOM     15  N   UNL     1       0.191  -6.724  -1.550  0.00  0.00    -0.295 N 
ATOM     16  C   UNL     1       0.188  -6.620  -0.108  0.00  0.00    +0.108 C 
ATOM     17  C   UNL     1       1.635  -6.413   0.401  0.00  0.00    +0.019 C 
ATOM     18  C   UNL     1       2.414  -7.652   0.246  0.00  0.00    +0.002 C 
ATOM     19  C   UNL     1       2.584  -8.110  -1.199  0.00  0.00    +0.002 C 
ATOM     20  C   UNL     1       1.382  -8.924  -1.611  0.00  0.00    +0.019 C 
ATOM     21  C   UNL     1       0.316  -8.014  -2.256  0.00  0.00    +0.108 C 
ENDBRANCH   6  13
BRANCH   9  22
ATOM     22  S   UNL     1       0.771  -2.903   2.683  0.00  0.00    +0.095 S 
ATOM     23  O   UNL     1       0.331  -2.066   3.743  0.00  0.00    -0.148 OA
ATOM     24  O   UNL     1       0.310  -4.238   2.524  0.00  0.00    -0.148 OA
BRANCH  22  25
ATOM     25  N   UNL     1       2.421  -2.984   2.797  0.00  0.00    -0.098 NA
BRANCH  25  26
ATOM     26  C   UNL     1       3.017  -3.607   3.897  0.00  0.00    +0.077 A 
ATOM     27  C   UNL     1       2.225  -4.165   4.893  0.00  0.00    +0.029 A 
ATOM     28  C   UNL     1       2.814  -4.781   5.980  0.00  0.00    +0.043 A 
ATOM     29  C   UNL     1       4.193  -4.843   6.079  0.00  0.00    +0.159 A 
ATOM     30  C   UNL     1       4.986  -4.287   5.087  0.00  0.00    +0.160 A 
ATOM     31  C   UNL     1       4.400  -3.675   3.994  0.00  0.00    +0.068 A 
ATOM     32  F   UNL     1       6.332  -4.348   5.185  0.00  0.00    -0.202 F 
ATOM     33  F   UNL     1       4.766  -5.446   7.143  0.00  0.00    -0.202 F 
ENDBRANCH  25  26
ENDBRANCH  22  25
ENDBRANCH   9  22
TORSDOF 4
