REMARK  Name = ZINC63974845
REMARK  6 active torsions:
REMARK  status: ('A' for Active; 'I' for Inactive)
REMARK    1  A    between atoms: C_1  and  N_2
REMARK    2  A    between atoms: C_10  and  C_12
REMARK    3  A    between atoms: C_12  and  C_14
REMARK    4  A    between atoms: C_12  and  N_20
REMARK    5  A    between atoms: C_21  and  C_23
REMARK    6  A    between atoms: C_26  and  C_28
REMARK                            x       y       z     vdW  Elec       q    Type
REMARK                         _______ _______ _______ _____ _____    ______ ____
ROOT
ATOM      1  C   UNL     1       1.285  -0.618   2.008  0.00  0.00    +0.142 C 
ENDROOT
BRANCH   1  11
ATOM      2  C   UNL     1      -0.018   1.461   0.010  0.00  0.00    +0.131 C 
ATOM      3  N   UNL     1       0.002  -0.004   0.002  0.00  0.00    -0.311 N 
ATOM      4  C   UNL     1       0.009  -0.828  -1.132  0.00  0.00    +0.052 A 
ATOM      5  C   UNL     1      -0.002  -0.504  -2.483  0.00  0.00    +0.025 A 
ATOM      6  C   UNL     1       0.007  -1.504  -3.437  0.00  0.00    +0.002 A 
ATOM      7  C   UNL     1       0.026  -2.832  -3.050  0.00  0.00    +0.002 A 
ATOM      8  C   UNL     1       0.037  -3.163  -1.709  0.00  0.00    +0.025 A 
ATOM      9  C   UNL     1       0.028  -2.164  -0.743  0.00  0.00    +0.050 A 
ATOM     10  N   UNL     1       0.035  -2.251   0.656  0.00  0.00    -0.323 N 
ATOM     11  C   UNL     1       0.025  -0.880   1.179  0.00  0.00    +0.183 C 
ATOM     12  H   UNL     1       0.048  -3.067   1.181  0.00  0.00    +0.148 HD
ENDBRANCH   1  11
BRANCH   1  13
ATOM     13  C   UNL     1       1.292  -1.525   3.211  0.00  0.00    -0.024 A 
ATOM     14  C   UNL     1       1.698  -2.840   3.083  0.00  0.00    +0.005 A 
ATOM     15  C   UNL     1       1.704  -3.672   4.187  0.00  0.00    +0.000 A 
ATOM     16  C   UNL     1       1.306  -3.189   5.420  0.00  0.00    +0.000 A 
ATOM     17  C   UNL     1       0.901  -1.873   5.548  0.00  0.00    +0.000 A 
ATOM     18  C   UNL     1       0.898  -1.040   4.445  0.00  0.00    +0.005 A 
ENDBRANCH   1  13
BRANCH   1  19
ATOM     19  N   UNL     1       2.471  -0.883   1.190  0.00  0.00    -0.300 N 
ATOM     20  C   UNL     1       3.639  -0.275   1.480  0.00  0.00    +0.261 C 
ATOM     21  O   UNL     1       3.707   0.493   2.420  0.00  0.00    -0.269 OA
ATOM     22  H   UNL     1       2.416  -1.496   0.440  0.00  0.00    +0.150 HD
BRANCH  20  23
ATOM     23  C   UNL     1       4.826  -0.540   0.660  0.00  0.00    +0.131 C 
ATOM     24  N   UNL     1       4.917  -1.328  -0.379  0.00  0.00    -0.148 NA
ATOM     25  N   UNL     1       6.077  -1.373  -0.907  0.00  0.00    -0.153 NA
ATOM     26  C   UNL     1       6.971  -0.620  -0.310  0.00  0.00    +0.077 C 
ATOM     27  C   UNL     1       6.218   0.046   0.831  0.00  0.00    +0.120 C 
BRANCH  26  28
ATOM     28  C   UNL     1       8.384  -0.452  -0.668  0.00  0.00    -0.002 A 
ATOM     29  C   UNL     1       9.207   0.394   0.086  0.00  0.00    +0.010 A 
ATOM     30  C   UNL     1      10.533   0.545  -0.258  0.00  0.00    +0.001 A 
ATOM     31  C   UNL     1      11.052  -0.136  -1.345  0.00  0.00    +0.000 A 
ATOM     32  C   UNL     1      10.246  -0.974  -2.097  0.00  0.00    +0.001 A 
ATOM     33  C   UNL     1       8.919  -1.142  -1.764  0.00  0.00    +0.010 A 
ENDBRANCH  26  28
ENDBRANCH  20  23
ENDBRANCH   1  19
TORSDOF 5
