REMARK  Name = ZINC63474336
REMARK  5 active torsions:
REMARK  status: ('A' for Active; 'I' for Inactive)
REMARK    1  A    between atoms: C_4  and  C_7
REMARK    2  A    between atoms: C_7  and  C_10
REMARK    3  A    between atoms: C_10  and  N_11
REMARK    4  A    between atoms: C_12  and  C_14
REMARK    5  A    between atoms: C_19  and  N_20
REMARK                            x       y       z     vdW  Elec       q    Type
REMARK                         _______ _______ _______ _____ _____    ______ ____
ROOT
ATOM      1  N   UNL     1       4.902   1.294  -1.675  0.00  0.00    -0.310 N 
ATOM      2  C   UNL     1       5.882   2.155  -2.014  0.00  0.00    +0.246 C 
ATOM      3  O   UNL     1       6.865   1.755  -2.606  0.00  0.00    -0.270 OA
ATOM      4  H   UNL     1       4.118   1.613  -1.203  0.00  0.00    +0.149 HD
ENDROOT
BRANCH   2   5
ATOM      5  C   UNL     1       5.761   3.587  -1.665  0.00  0.00    +0.070 A 
ATOM      6  C   UNL     1       4.631   4.309  -2.052  0.00  0.00    +0.053 A 
ATOM      7  C   UNL     1       4.525   5.646  -1.722  0.00  0.00    +0.124 A 
ATOM      8  C   UNL     1       5.537   6.269  -1.009  0.00  0.00    +0.040 A 
ATOM      9  C   UNL     1       6.658   5.557  -0.624  0.00  0.00    +0.036 A 
ATOM     10  C   UNL     1       6.774   4.220  -0.942  0.00  0.00    +0.138 A 
ATOM     11  F   UNL     1       3.432   6.348  -2.095  0.00  0.00    -0.205 F 
BRANCH  10  12
ATOM     12  N   UNL     1       7.972   3.459  -0.524  0.00  0.00    +0.057 N 
ATOM     13  O   UNL     1       8.904   4.033  -0.011  0.00  0.00    -0.126 OA
ATOM     14  O   UNL     1       8.019   2.263  -0.694  0.00  0.00    -0.126 OA
ENDBRANCH  10  12
ENDBRANCH   2   5
BRANCH   1  15
ATOM     15  C   UNL     1       5.022  -0.125  -2.021  0.00  0.00    +0.116 C 
BRANCH  15  16
ATOM     16  C   UNL     1       3.731  -0.853  -1.643  0.00  0.00    +0.011 C 
ATOM     17  C   UNL     1       3.559  -1.274  -0.182  0.00  0.00    +0.014 C 
ATOM     18  C   UNL     1       3.840  -2.329  -1.254  0.00  0.00    +0.014 C 
BRANCH  16  22
ATOM     19  C   UNL     1       0.233   0.372  -3.766  0.00  0.00    +0.000 A 
ATOM     20  C   UNL     1       1.111  -0.527  -4.341  0.00  0.00    +0.000 A 
ATOM     21  C   UNL     1       2.243  -0.923  -3.654  0.00  0.00    +0.004 A 
ATOM     22  C   UNL     1       2.497  -0.420  -2.392  0.00  0.00    -0.040 A 
ATOM     23  C   UNL     1       1.620   0.480  -1.817  0.00  0.00    +0.004 A 
ATOM     24  C   UNL     1       0.487   0.875  -2.504  0.00  0.00    +0.000 A 
ENDBRANCH  16  22
ENDBRANCH  15  16
ENDBRANCH   1  15
TORSDOF 5
