REMARK  Name = ZINC00092682
REMARK  7 active torsions:
REMARK  status: ('A' for Active; 'I' for Inactive)
REMARK    1  A    between atoms: C_1  and  C_2
REMARK    2  A    between atoms: C_2  and  O_3
REMARK    3  A    between atoms: O_3  and  C_4
REMARK    4  A    between atoms: C_4  and  C_6
REMARK    5  A    between atoms: C_7  and  N_18
REMARK    6  A    between atoms: C_9  and  C_17
REMARK    7  A    between atoms: C_11  and  C_15
REMARK                            x       y       z     vdW  Elec       q    Type
REMARK                         _______ _______ _______ _____ _____    ______ ____
ROOT
ATOM      1  C   UNL     1      -0.171  -0.028  -0.582  0.00  0.00    +0.119 A 
ATOM      2  C   UNL     1       1.171  -0.346  -0.581  0.00  0.00    +0.056 A 
ATOM      3  C   UNL     1       2.137   0.740  -0.510  0.00  0.00    +0.033 A 
ATOM      4  C   UNL     1       3.552   0.664  -0.494  0.00  0.00    -0.019 A 
ATOM      5  C   UNL     1       4.281   1.829  -0.423  0.00  0.00    +0.066 A 
ATOM      6  C   UNL     1       3.637   3.058  -0.367  0.00  0.00    +0.058 A 
ATOM      7  N   UNL     1       2.320   3.122  -0.381  0.00  0.00    -0.243 NA
ATOM      8  C   UNL     1       1.579   2.037  -0.449  0.00  0.00    +0.111 A 
ATOM      9  S   UNL     1      -0.173   1.752  -0.488  0.00  0.00    -0.060 S 
ATOM     10  C   UNL     1       4.448   4.325  -0.288  0.00  0.00    +0.067 C 
ATOM     11 CL   UNL     1       6.015   1.762  -0.402  0.00  0.00    -0.081 Cl
ATOM     12  C   UNL     1       4.248  -0.671  -0.555  0.00  0.00    +0.046 C 
ENDROOT
BRANCH   2  13
ATOM     13  N   UNL     1       1.589  -1.667  -0.645  0.00  0.00    -0.356 N 
ATOM     14  H   UNL     1       2.461  -1.882  -1.012  0.00  0.00    +0.142 HD
ATOM     15  H   UNL     1       1.009  -2.375  -0.324  0.00  0.00    +0.142 HD
ENDBRANCH   2  13
BRANCH   1  16
ATOM     16  C   UNL     1      -1.280  -0.904  -0.644  0.00  0.00    +0.348 C 
ATOM     17  O   UNL     1      -1.102  -2.107  -0.705  0.00  0.00    -0.244 OA
BRANCH  16  18
ATOM     18  O   UNL     1      -2.534  -0.407  -0.634  0.00  0.00    -0.461 OA
BRANCH  18  20
ATOM     19  C   UNL     1      -4.943  -0.604  -0.677  0.00  0.00    +0.048 C 
ATOM     20  C   UNL     1      -3.607  -1.349  -0.699  0.00  0.00    +0.229 C 
ENDBRANCH  18  20
ENDBRANCH  16  18
ENDBRANCH   1  16
TORSDOF 4
