REMARK  Name = ZINC67551159
REMARK  6 active torsions:
REMARK  status: ('A' for Active; 'I' for Inactive)
REMARK    1  A    between atoms: C_1  and  C_2
REMARK    2  A    between atoms: C_2  and  C_4
REMARK    3  A    between atoms: C_2  and  N_11
REMARK    4  A    between atoms: C_8  and  O_10
REMARK    5  A    between atoms: N_11  and  C_12
REMARK    6  A    between atoms: N_15  and  C_16
REMARK                            x       y       z     vdW  Elec       q    Type
REMARK                         _______ _______ _______ _____ _____    ______ ____
ROOT
ATOM      1  N   UNL     1       0.800  -0.480  -1.226  0.00  0.00    -0.282 N 
ATOM      2  C   UNL     1       0.478  -0.098  -2.604  0.00  0.00    +0.134 C 
ATOM      3  C   UNL     1       1.851  -1.286  -0.979  0.00  0.00    +0.307 C 
ATOM      4  O   UNL     1       2.118  -1.603   0.164  0.00  0.00    -0.252 OA
ATOM      5  N   UNL     1       2.606  -1.742  -1.998  0.00  0.00    -0.269 N 
ATOM      6  H   UNL     1       2.355  -1.544  -2.914  0.00  0.00    +0.156 HD
ENDROOT
BRANCH   5   7
ATOM      7  C   UNL     1       3.754  -2.502  -1.735  0.00  0.00    +0.035 A 
ATOM      8  C   UNL     1       3.768  -3.389  -0.659  0.00  0.00    +0.025 A 
ATOM      9  C   UNL     1       4.887  -4.143  -0.388  0.00  0.00    +0.028 A 
ATOM     10  C   UNL     1       6.018  -4.025  -1.190  0.00  0.00    +0.047 A 
ATOM     11  C   UNL     1       6.007  -3.132  -2.277  0.00  0.00    +0.001 A 
ATOM     12  C   UNL     1       4.865  -2.375  -2.547  0.00  0.00    +0.033 A 
ATOM     13  C   UNL     1       7.325  -3.244  -2.906  0.00  0.00    +0.027 A 
ATOM     14  C   UNL     1       8.021  -4.150  -2.202  0.00  0.00    +0.083 A 
ATOM     15  N   UNL     1       7.258  -4.628  -1.173  0.00  0.00    -0.361 N 
ATOM     16  H   UNL     1       7.545  -5.292  -0.526  0.00  0.00    +0.165 HD
ENDBRANCH   5   7
BRANCH   1  18
ATOM     17  C   UNL     1      -0.081   1.543  -0.172  0.00  0.00    +0.033 C 
ATOM     18  C   UNL     1      -0.020   0.015  -0.118  0.00  0.00    +0.104 C 
BRANCH  18  19
ATOM     19  C   UNL     1      -1.413  -0.547  -0.234  0.00  0.00    -0.024 A 
ATOM     20  C   UNL     1      -1.611  -1.790  -0.809  0.00  0.00    +0.006 A 
ATOM     21  C   UNL     1      -2.888  -2.309  -0.916  0.00  0.00    +0.004 A 
ATOM     22  C   UNL     1      -3.970  -1.587  -0.450  0.00  0.00    +0.045 A 
ATOM     23  C   UNL     1      -3.774  -0.341   0.127  0.00  0.00    +0.117 A 
ATOM     24  C   UNL     1      -2.491   0.175   0.240  0.00  0.00    +0.050 A 
BRANCH  23  25
ATOM     25  O   UNL     1      -4.837   0.370   0.587  0.00  0.00    -0.507 OA
ATOM     26  H   UNL     1      -5.056   0.196   1.512  0.00  0.00    +0.292 HD
ENDBRANCH  23  25
ENDBRANCH  18  19
ENDBRANCH   1  18
TORSDOF 4
