REMARK  Name = ZINC20311590
REMARK  6 active torsions:
REMARK  status: ('A' for Active; 'I' for Inactive)
REMARK    1  A    between atoms: C_1  and  C_2
REMARK    2  A    between atoms: C_11  and  N_15
REMARK    3  A    between atoms: N_15  and  C_16
REMARK    4  A    between atoms: C_16  and  C_17
REMARK    5  A    between atoms: N_19  and  C_20
REMARK    6  A    between atoms: C_20  and  C_21
REMARK                            x       y       z     vdW  Elec       q    Type
REMARK                         _______ _______ _______ _____ _____    ______ ____
ROOT
ATOM      1  C   UNL     1      -0.858   2.790  -0.847  0.00  0.00    +0.008 C 
ATOM      2  C   UNL     1      -0.105   2.038   0.252  0.00  0.00    -0.009 C 
ATOM      3  C   UNL     1      -0.750   2.324   1.611  0.00  0.00    +0.008 C 
ATOM      4  C   UNL     1      -0.166   1.389   2.670  0.00  0.00    +0.037 C 
ATOM      5  C   UNL     1       1.357   1.492   2.634  0.00  0.00    -0.025 A 
ATOM      6  C   UNL     1       1.986   2.000   1.550  0.00  0.00    -0.004 A 
ATOM      7  S   UNL     1       3.717   1.930   1.939  0.00  0.00    -0.073 S 
ATOM      8  C   UNL     1       3.598   1.222   3.549  0.00  0.00    +0.114 A 
ATOM      9  C   UNL     1       2.202   1.061   3.736  0.00  0.00    +0.051 A 
ATOM     10  C   UNL     1       1.779   0.498   4.974  0.00  0.00    +0.131 A 
ATOM     11  N   UNL     1       2.750   0.182   5.829  0.00  0.00    -0.220 NA
ATOM     12  C   UNL     1       4.033   0.361   5.586  0.00  0.00    +0.224 A 
ATOM     13  N   UNL     1       4.494   0.880   4.454  0.00  0.00    -0.228 NA
ATOM     14  C   UNL     1       1.355   2.512   0.292  0.00  0.00    +0.046 C 
ENDROOT
BRANCH  10  15
ATOM     15  N   UNL     1       0.443   0.293   5.271  0.00  0.00    -0.320 N 
ATOM     16  H   UNL     1      -0.325   0.479   4.505  0.00  0.00    +0.148 HD
BRANCH  15  17
ATOM     17  C   UNL     1       0.052  -0.170   6.604  0.00  0.00    +0.198 C 
BRANCH  17  18
ATOM     18  C   UNL     1      -1.447  -0.313   6.666  0.00  0.00    +0.231 C 
ATOM     19  O   UNL     1      -2.122  -0.052   5.693  0.00  0.00    -0.274 OA
ATOM     20  N   UNL     1      -2.038  -0.729   7.804  0.00  0.00    -0.303 N 
ATOM     21  H   UNL     1      -1.426  -0.966   8.687  0.00  0.00    +0.149 HD
BRANCH  20  22
ATOM     22  C   UNL     1      -3.495  -0.868   7.864  0.00  0.00    +0.229 C 
BRANCH  22  23
ATOM     23  C   UNL     1      -3.898  -1.345   9.236  0.00  0.00    +0.373 C 
ATOM     24  O   UNL     1      -3.054  -1.548  10.076  0.00  0.00    -0.245 OA
ATOM     25  O   UNL     1      -5.194  -1.543   9.523  0.00  0.00    -0.245 OA
ENDBRANCH  22  23
ENDBRANCH  20  22
ENDBRANCH  17  18
ENDBRANCH  15  17
ENDBRANCH  10  15
TORSDOF 5
