REMARK  Name = ZINC49913315
REMARK  5 active torsions:
REMARK  status: ('A' for Active; 'I' for Inactive)
REMARK    1  A    between atoms: C_1  and  C_2
REMARK    2  A    between atoms: C_6  and  C_8
REMARK    3  A    between atoms: N_10  and  C_17
REMARK    4  A    between atoms: C_12  and  C_15
REMARK    5  A    between atoms: C_15  and  O_16
REMARK                            x       y       z     vdW  Elec       q    Type
REMARK                         _______ _______ _______ _____ _____    ______ ____
ROOT
ATOM      1  C   UNL     1       0.054  -2.845   2.489  0.00  0.00    +0.238 C 
ATOM      2  N   UNL     1      -0.625  -4.139   2.316  0.00  0.00    -0.298 N 
ATOM      3  C   UNL     1       0.391  -5.177   2.597  0.00  0.00    +0.142 C 
ATOM      4  C   UNL     1       1.724  -4.417   2.383  0.00  0.00    +0.163 C 
ATOM      5  O   UNL     1       1.412  -3.098   2.885  0.00  0.00    -0.347 OA
ENDROOT
BRANCH   1  11
ATOM      6  C   UNL     1      -0.018   1.503   0.010  0.00  0.00    +0.044 C 
ATOM      7  C   UNL     1       0.002  -0.004   0.002  0.00  0.00    -0.050 A 
ATOM      8  C   UNL     1       0.006  -0.689  -1.199  0.00  0.00    +0.003 A 
ATOM      9  C   UNL     1       0.025  -2.071  -1.207  0.00  0.00    +0.001 A 
ATOM     10  C   UNL     1       0.040  -2.768  -0.013  0.00  0.00    +0.008 A 
ATOM     11  C   UNL     1       0.037  -2.084   1.188  0.00  0.00    -0.000 A 
ATOM     12  C   UNL     1       0.023  -0.702   1.195  0.00  0.00    +0.011 A 
ENDBRANCH   1  11
BRANCH   2  13
ATOM     13  C   UNL     1      -1.960  -4.346   1.959  0.00  0.00    +0.032 A 
ATOM     14  C   UNL     1      -2.793  -3.260   1.721  0.00  0.00    +0.024 A 
ATOM     15  C   UNL     1      -4.112  -3.467   1.369  0.00  0.00    +0.022 A 
ATOM     16  C   UNL     1      -4.605  -4.755   1.252  0.00  0.00    +0.041 A 
ATOM     17  C   UNL     1      -3.777  -5.839   1.488  0.00  0.00    +0.022 A 
ATOM     18  C   UNL     1      -2.456  -5.638   1.835  0.00  0.00    +0.024 A 
ATOM     19 CL   UNL     1      -6.263  -5.012   0.809  0.00  0.00    -0.084 Cl
ENDBRANCH   2  13
BRANCH   4  20
ATOM     20  C   UNL     1       2.852  -5.059   3.192  0.00  0.00    +0.189 C 
BRANCH  20  21
ATOM     21  O   UNL     1       4.088  -4.411   2.885  0.00  0.00    -0.392 OA
ATOM     22  H   UNL     1       4.849  -4.767   3.364  0.00  0.00    +0.210 HD
ENDBRANCH  20  21
ENDBRANCH   4  20
TORSDOF 4
