REMARK  Name = ZINC64409169
REMARK  6 active torsions:
REMARK  status: ('A' for Active; 'I' for Inactive)
REMARK    1  A    between atoms: C_7  and  C_10
REMARK    2  A    between atoms: C_10  and  C_11
REMARK    3  A    between atoms: C_11  and  N_12
REMARK    4  A    between atoms: C_13  and  C_15
REMARK    5  A    between atoms: C_18  and  N_22
REMARK    6  A    between atoms: N_22  and  C_23
REMARK                            x       y       z     vdW  Elec       q    Type
REMARK                         _______ _______ _______ _____ _____    ______ ____
ROOT
ATOM      1  N   UNL     1      -0.274  -4.946  -1.464  0.00  0.00    -0.311 N 
ATOM      2  C   UNL     1      -0.629  -5.555  -2.613  0.00  0.00    +0.238 C 
ATOM      3  O   UNL     1      -0.031  -5.303  -3.644  0.00  0.00    -0.271 OA
ATOM      4  H   UNL     1      -0.750  -5.147  -0.642  0.00  0.00    +0.149 HD
ENDROOT
BRANCH   2   5
ATOM      5  C   UNL     1      -1.694  -6.485  -2.622  0.00  0.00    +0.086 C 
ATOM      6  C   UNL     1      -2.126  -7.005  -3.789  0.00  0.00    +0.021 C 
ATOM      7  N   UNL     1      -1.656  -6.565  -4.975  0.00  0.00    -0.320 N 
ATOM      8  C   UNL     1      -1.752  -7.498  -6.120  0.00  0.00    +0.217 C 
ATOM      9  S   UNL     1      -3.248  -8.463  -5.638  0.00  0.00    -0.114 S 
ATOM     10  C   UNL     1      -3.161  -8.117  -3.830  0.00  0.00    +0.123 C 
ATOM     11  H   UNL     1      -1.274  -5.678  -5.073  0.00  0.00    +0.148 HD
BRANCH   8  12
ATOM     12  N   UNL     1      -1.966  -6.776  -7.376  0.00  0.00    -0.318 N 
ATOM     13  H   UNL     1      -2.243  -5.846  -7.360  0.00  0.00    +0.149 HD
BRANCH  12  14
ATOM     14  C   UNL     1      -1.773  -7.427  -8.598  0.00  0.00    +0.029 A 
ATOM     15  C   UNL     1      -1.383  -8.759  -8.622  0.00  0.00    +0.026 A 
ATOM     16  C   UNL     1      -1.193  -9.401  -9.831  0.00  0.00    +0.040 A 
ATOM     17  C   UNL     1      -1.391  -8.716 -11.018  0.00  0.00    +0.124 A 
ATOM     18  C   UNL     1      -1.780  -7.387 -10.996  0.00  0.00    +0.040 A 
ATOM     19  C   UNL     1      -1.976  -6.743  -9.790  0.00  0.00    +0.026 A 
ATOM     20  F   UNL     1      -1.204  -9.345 -12.199  0.00  0.00    -0.205 F 
ENDBRANCH  12  14
ENDBRANCH   8  12
ENDBRANCH   2   5
BRANCH   1  21
ATOM     21  C   UNL     1       0.829  -3.983  -1.455  0.00  0.00    +0.109 C 
BRANCH  21  22
ATOM     22  C   UNL     1       1.024  -3.443  -0.036  0.00  0.00    +0.052 C 
BRANCH  22  29
ATOM     23  C   UNL     1       1.147   1.131  -0.380  0.00  0.00    +0.001 A 
ATOM     24  C   UNL     1       2.443   1.664  -0.324  0.00  0.00    +0.002 A 
ATOM     25  C   UNL     1       3.542   0.894  -0.182  0.00  0.00    +0.026 A 
ATOM     26  C   UNL     1       3.422  -0.520  -0.082  0.00  0.00    +0.043 A 
ATOM     27  N   UNL     1       4.321  -1.464   0.058  0.00  0.00    -0.380 N 
ATOM     28  C   UNL     1       3.633  -2.760   0.107  0.00  0.00    +0.144 C 
ATOM     29  C   UNL     1       2.159  -2.452  -0.027  0.00  0.00    -0.040 C 
ATOM     30  C   UNL     1       2.065  -1.107  -0.138  0.00  0.00    -0.001 A 
ATOM     31  C   UNL     1       0.922  -0.200  -0.294  0.00  0.00    +0.010 A 
ATOM     32  H   UNL     1       5.279  -1.329   0.119  0.00  0.00    +0.160 HD
ENDBRANCH  22  29
ENDBRANCH  21  22
ENDBRANCH   1  21
TORSDOF 6
