REMARK  Name = ZINC58385162
REMARK  7 active torsions:
REMARK  status: ('A' for Active; 'I' for Inactive)
REMARK    1  A    between atoms: C_1  and  C_2
REMARK    2  A    between atoms: C_2  and  C_3
REMARK    3  A    between atoms: C_2  and  N_15
REMARK    4  A    between atoms: C_16  and  C_18
REMARK    5  A    between atoms: C_18  and  C_19
REMARK    6  A    between atoms: C_18  and  N_20
REMARK    7  A    between atoms: C_21  and  C_23
REMARK                            x       y       z     vdW  Elec       q    Type
REMARK                         _______ _______ _______ _____ _____    ______ ____
ROOT
ATOM      1  N   UNL     1       0.711  -0.489   1.189  0.00  0.00    -0.307 N 
ATOM      2  C   UNL     1       0.051  -0.633   2.355  0.00  0.00    +0.234 C 
ATOM      3  O   UNL     1      -1.129  -0.361   2.423  0.00  0.00    -0.274 OA
ATOM      4  H   UNL     1       1.654  -0.707   1.135  0.00  0.00    +0.149 HD
ENDROOT
BRANCH   1   6
ATOM      5  C   UNL     1      -0.019   1.526   0.010  0.00  0.00    +0.033 C 
ATOM      6  C   UNL     1       0.002  -0.004   0.002  0.00  0.00    +0.100 C 
BRANCH   6   7
ATOM      7  C   UNL     1       0.707  -0.490  -1.238  0.00  0.00    -0.025 A 
ATOM      8  C   UNL     1       2.091  -0.510  -1.281  0.00  0.00    +0.007 A 
ATOM      9  C   UNL     1       2.747  -0.953  -2.413  0.00  0.00    +0.028 A 
ATOM     10  C   UNL     1       2.015  -1.381  -3.510  0.00  0.00    +0.067 A 
ATOM     11  C   UNL     1       0.620  -1.361  -3.467  0.00  0.00    +0.067 A 
ATOM     12  C   UNL     1      -0.029  -0.919  -2.324  0.00  0.00    +0.033 A 
ATOM     13  N   UNL     1       0.172  -1.841  -4.696  0.00  0.00    -0.306 N 
ATOM     14  H   UNL     1      -0.755  -1.943  -4.962  0.00  0.00    +0.170 HD
ATOM     15  C   UNL     1       1.246  -2.139  -5.451  0.00  0.00    +0.325 A 
ATOM     16  O   UNL     1       1.205  -2.582  -6.584  0.00  0.00    -0.247 OA
ATOM     17  N   UNL     1       2.373  -1.872  -4.764  0.00  0.00    -0.306 N 
ATOM     18  H   UNL     1       3.278  -2.000  -5.087  0.00  0.00    +0.170 HD
ENDBRANCH   6   7
ENDBRANCH   1   6
BRANCH   2  19
ATOM     19  C   UNL     1       0.780  -1.133   3.576  0.00  0.00    +0.156 C 
ATOM     20  C   UNL     1       1.347  -2.526   3.298  0.00  0.00    +0.038 C 
BRANCH  19  21
ATOM     21  N   UNL     1      -0.150  -1.201   4.706  0.00  0.00    -0.300 N 
ATOM     22  C   UNL     1       0.317  -1.122   5.968  0.00  0.00    +0.245 C 
ATOM     23  O   UNL     1       1.509  -0.995   6.169  0.00  0.00    -0.270 OA
ATOM     24  H   UNL     1      -1.101  -1.302   4.546  0.00  0.00    +0.150 HD
BRANCH  22  25
ATOM     25  C   UNL     1      -0.622  -1.191   7.109  0.00  0.00    +0.037 A 
ATOM     26  C   UNL     1      -1.991  -1.343   6.882  0.00  0.00    +0.013 A 
ATOM     27  C   UNL     1      -2.861  -1.407   7.951  0.00  0.00    +0.001 A 
ATOM     28  C   UNL     1      -2.379  -1.320   9.245  0.00  0.00    +0.000 A 
ATOM     29  C   UNL     1      -1.024  -1.169   9.477  0.00  0.00    +0.001 A 
ATOM     30  C   UNL     1      -0.142  -1.110   8.417  0.00  0.00    +0.013 A 
ENDBRANCH  22  25
ENDBRANCH  19  21
ENDBRANCH   2  19
TORSDOF 5
