REMARK  Name = ZINC35497396
REMARK  15 active torsions:
REMARK  status: ('A' for Active; 'I' for Inactive)
REMARK    1  A    between atoms: C_1  and  C_2
REMARK    2  A    between atoms: C_4  and  C_8
REMARK    3  A    between atoms: N_5  and  C_7
REMARK    4  A    between atoms: C_8  and  N_9
REMARK    5  A    between atoms: N_9  and  C_10
REMARK    6  A    between atoms: C_10  and  C_11
REMARK    7  A    between atoms: C_11  and  C_12
REMARK    8  A    between atoms: C_12  and  N_13
REMARK    9  A    between atoms: C_14  and  C_16
REMARK   10  A    between atoms: C_16  and  C_17
REMARK   11  A    between atoms: C_28  and  O_30
REMARK   12  A    between atoms: O_30  and  C_31
REMARK   13  A    between atoms: C_31  and  C_32
REMARK   14  A    between atoms: C_31  and  C_33
REMARK   15  A    between atoms: C_31  and  C_34
REMARK                            x       y       z     vdW  Elec       q    Type
REMARK                         _______ _______ _______ _____ _____    ______ ____
ROOT
ATOM      1  N   UNL     1       4.273  -7.103  -3.990  0.00  0.00    -0.207 N 
ATOM      2  C   UNL     1       4.821  -7.997  -3.142  0.00  0.00    +0.228 C 
ATOM      3  O   UNL     1       4.170  -8.431  -2.216  0.00  0.00    -0.275 OA
ATOM      4  C   UNL     1       4.997  -6.620  -5.019  0.00  0.00    +0.410 C 
ATOM      5  O   UNL     1       6.142  -6.990  -5.183  0.00  0.00    -0.226 OA
ENDROOT
BRANCH   1   6
ATOM      6  C   UNL     1       2.892  -6.657  -3.792  0.00  0.00    +0.118 C 
BRANCH   6   7
ATOM      7  C   UNL     1       2.880  -5.422  -2.888  0.00  0.00    +0.001 C 
BRANCH   7   8
ATOM      8  C   UNL     1       1.437  -4.956  -2.681  0.00  0.00    -0.081 C 
BRANCH   8   9
ATOM      9  N   UNL     1       1.425  -3.771  -1.814  0.00  0.00    +0.383 N 
ATOM     10  H   UNL     1       1.959  -3.032  -2.246  0.00  0.00    -0.085 HD
ATOM     11  H   UNL     1       1.835  -4.003  -0.921  0.00  0.00    -0.085 HD
BRANCH   9  12
ATOM     12  C   UNL     1       0.040  -3.323  -1.615  0.00  0.00    -0.027 C 
BRANCH  12  16
ATOM     13  C   UNL     1      -0.018   1.503   0.010  0.00  0.00    +0.067 C 
ATOM     14  C   UNL     1       0.002  -0.004   0.002  0.00  0.00    +0.060 A 
ATOM     15  C   UNL     1       0.008  -0.818  -1.135  0.00  0.00    +0.045 A 
ATOM     16  C   UNL     1       0.028  -2.107  -0.725  0.00  0.00    +0.022 A 
ATOM     17  N   UNL     1       0.034  -2.109   0.625  0.00  0.00    -0.273 N 
ATOM     18  N   UNL     1       0.023  -0.777   1.058  0.00  0.00    -0.177 NA
ATOM     19  C   UNL     1       0.055  -3.295   1.485  0.00  0.00    +0.172 C 
ENDBRANCH  12  16
ENDBRANCH   9  12
ENDBRANCH   8   9
ENDBRANCH   7   8
ENDBRANCH   6   7
ENDBRANCH   1   6
BRANCH   2  20
ATOM     20  C   UNL     1       6.241  -8.456  -3.346  0.00  0.00    +0.146 C 
BRANCH  20  21
ATOM     21  C   UNL     1       6.613  -9.462  -2.254  0.00  0.00    +0.216 C 
ATOM     22  C   UNL     1       8.065  -9.848  -2.382  0.00  0.00    +0.007 A 
ATOM     23  C   UNL     1       9.243  -9.141  -2.321  0.00  0.00    +0.008 A 
ATOM     24  C   UNL     1      10.452  -9.797  -2.482  0.00  0.00    +0.000 A 
ATOM     25  C   UNL     1      10.480 -11.163  -2.705  0.00  0.00    +0.001 A 
ATOM     26  C   UNL     1       9.304 -11.882  -2.769  0.00  0.00    +0.015 A 
ATOM     27  C   UNL     1       8.082 -11.228  -2.607  0.00  0.00    +0.066 A 
ATOM     28  C   UNL     1       6.684 -11.696  -2.620  0.00  0.00    +0.340 C 
ATOM     29  O   UNL     1       6.337 -12.847  -2.791  0.00  0.00    -0.245 OA
ATOM     30  O   UNL     1       5.851 -10.661  -2.414  0.00  0.00    -0.453 OA
ENDBRANCH  20  21
ENDBRANCH   2  20
BRANCH   4  31
ATOM     31  O   UNL     1       4.450  -5.728  -5.866  0.00  0.00    -0.444 OA
BRANCH  31  32
ATOM     32  C   UNL     1       5.274  -5.259  -6.935  0.00  0.00    +0.107 C 
ATOM     33  C   UNL     1       5.703  -6.442  -7.805  0.00  0.00    +0.055 C 
ATOM     34  C   UNL     1       4.487  -4.259  -7.785  0.00  0.00    +0.055 C 
ATOM     35  C   UNL     1       6.514  -4.573  -6.359  0.00  0.00    +0.055 C 
ENDBRANCH  31  32
ENDBRANCH   4  31
TORSDOF 10
