REMARK  Name = ZINC40261805
REMARK  7 active torsions:
REMARK  status: ('A' for Active; 'I' for Inactive)
REMARK    1  A    between atoms: C_1  and  C_2
REMARK    2  A    between atoms: C_5  and  C_10
REMARK    3  A    between atoms: C_7  and  O_8
REMARK    4  A    between atoms: O_8  and  C_9
REMARK    5  A    between atoms: C_10  and  C_12
REMARK    6  A    between atoms: C_10  and  O_23
REMARK    7  A    between atoms: C_19  and  C_22
REMARK                            x       y       z     vdW  Elec       q    Type
REMARK                         _______ _______ _______ _____ _____    ______ ____
ROOT
ATOM      1  C   UNL     1       0.058  -4.279  -0.027  0.00  0.00    +0.175 C 
ENDROOT
BRANCH   1   2
ATOM      2  C   UNL     1      -1.335  -4.797  -0.271  0.00  0.00    -0.014 A 
ATOM      3  C   UNL     1      -1.810  -4.931  -1.563  0.00  0.00    +0.010 A 
ATOM      4  C   UNL     1      -3.083  -5.409  -1.792  0.00  0.00    +0.046 A 
ATOM      5  C   UNL     1      -3.904  -5.760  -0.722  0.00  0.00    +0.124 A 
ATOM      6  C   UNL     1      -3.419  -5.614   0.571  0.00  0.00    -0.002 A 
ATOM      7  C   UNL     1      -2.143  -5.146   0.797  0.00  0.00    +0.013 A 
ATOM      8  C   UNL     1      -4.527  -6.045   1.512  0.00  0.00    +0.083 C 
ATOM      9  C   UNL     1      -5.758  -6.050   0.576  0.00  0.00    +0.175 C 
ATOM     10  O   UNL     1      -5.171  -6.256  -0.720  0.00  0.00    -0.488 OA
ATOM     11  C   UNL     1      -6.707  -7.196   0.934  0.00  0.00    +0.052 C 
ENDBRANCH   1   2
BRANCH   1  16
ATOM     12  C   UNL     1      -0.018   1.503   0.010  0.00  0.00    +0.047 C 
ATOM     13  C   UNL     1       0.002  -0.004   0.002  0.00  0.00    -0.009 A 
ATOM     14  C   UNL     1       0.006  -0.689  -1.198  0.00  0.00    +0.007 A 
ATOM     15  C   UNL     1       0.024  -2.071  -1.206  0.00  0.00    +0.007 A 
ATOM     16  C   UNL     1       0.039  -2.772  -0.014  0.00  0.00    -0.011 A 
ATOM     17  C   UNL     1       0.036  -2.092   1.188  0.00  0.00    +0.052 A 
ATOM     18  C   UNL     1       0.023  -0.705   1.199  0.00  0.00    +0.123 A 
BRANCH  18  19
ATOM     19  O   UNL     1       0.025  -0.033   2.381  0.00  0.00    -0.495 OA
ATOM     20  C   UNL     1       0.048  -0.820   3.574  0.00  0.00    +0.277 C 
ENDBRANCH  18  19
ENDBRANCH   1  16
BRANCH   1  21
ATOM     21  O   UNL     1       0.925  -4.735  -1.067  0.00  0.00    -0.383 OA
ATOM     22  H   UNL     1       0.664  -4.446  -1.952  0.00  0.00    +0.211 HD
ENDBRANCH   1  21
TORSDOF 4
