REMARK  Name = ZINC12734429
REMARK  9 active torsions:
REMARK  status: ('A' for Active; 'I' for Inactive)
REMARK    1  A    between atoms: C_1  and  C_2
REMARK    2  A    between atoms: C_2  and  C_3
REMARK    3  A    between atoms: C_12  and  O_14
REMARK    4  A    between atoms: O_14  and  C_15
REMARK    5  A    between atoms: C_15  and  C_17
REMARK    6  A    between atoms: C_15  and  C_18
REMARK    7  A    between atoms: N_20  and  C_21
REMARK    8  A    between atoms: C_24  and  C_28
REMARK    9  A    between atoms: C_26  and  C_27
REMARK                            x       y       z     vdW  Elec       q    Type
REMARK                         _______ _______ _______ _____ _____    ______ ____
ROOT
ATOM      1  O   UNL     1       3.506  -2.357   0.386  0.00  0.00    -0.480 OA
ENDROOT
BRANCH   1  11
ATOM      2  C   UNL     1       7.119  -5.096   3.652  0.00  0.00    -0.030 A 
ATOM      3  C   UNL     1       8.205  -4.414   4.100  0.00  0.00    +0.096 A 
ATOM      4  C   UNL     1       8.386  -3.064   3.734  0.00  0.00    +0.337 A 
ATOM      5  O   UNL     1       9.364  -2.465   4.142  0.00  0.00    -0.245 OA
ATOM      6  O   UNL     1       7.507  -2.423   2.948  0.00  0.00    -0.422 OA
ATOM      7  C   UNL     1       6.407  -3.043   2.469  0.00  0.00    +0.143 A 
ATOM      8  C   UNL     1       6.164  -4.390   2.795  0.00  0.00    +0.021 A 
ATOM      9  C   UNL     1       5.025  -5.036   2.302  0.00  0.00    +0.015 A 
ATOM     10  C   UNL     1       4.151  -4.355   1.505  0.00  0.00    +0.046 A 
ATOM     11  C   UNL     1       4.385  -3.021   1.180  0.00  0.00    +0.125 A 
ATOM     12  C   UNL     1       5.511  -2.367   1.655  0.00  0.00    +0.092 A 
BRANCH   2  14
ATOM     13  C   UNL     1       7.460  -7.443   2.927  0.00  0.00    +0.009 C 
ATOM     14  C   UNL     1       6.902  -6.539   4.028  0.00  0.00    +0.033 C 
ENDBRANCH   2  14
ENDBRANCH   1  11
BRANCH   1  15
ATOM     15  C   UNL     1       3.730  -0.958   0.199  0.00  0.00    +0.256 C 
ATOM     16  C   UNL     1       4.552  -0.739  -1.073  0.00  0.00    +0.062 C 
BRANCH  15  17
ATOM     17  C   UNL     1       2.406  -0.250   0.070  0.00  0.00    +0.258 C 
ATOM     18  O   UNL     1       1.376  -0.890   0.041  0.00  0.00    -0.271 OA
ATOM     19  N   UNL     1       2.365   1.095  -0.014  0.00  0.00    -0.282 N 
ATOM     20  H   UNL     1       3.191   1.603  -0.055  0.00  0.00    +0.155 HD
BRANCH  19  21
ATOM     21  C   UNL     1       1.133   1.757  -0.041  0.00  0.00    +0.036 A 
ATOM     22  C   UNL     1       0.044   1.176  -0.677  0.00  0.00    +0.024 A 
ATOM     23  C   UNL     1      -1.169   1.835  -0.706  0.00  0.00    +0.005 A 
ATOM     24  C   UNL     1      -1.303   3.068  -0.094  0.00  0.00    -0.050 A 
ATOM     25  C   UNL     1      -0.221   3.649   0.540  0.00  0.00    +0.008 A 
ATOM     26  C   UNL     1       0.997   2.998   0.568  0.00  0.00    -0.029 A 
ATOM     27  C   UNL     1       2.176   3.632   1.260  0.00  0.00    +0.045 C 
ATOM     28  C   UNL     1      -2.630   3.782  -0.124  0.00  0.00    +0.044 C 
ENDBRANCH  19  21
ENDBRANCH  15  17
ENDBRANCH   1  15
TORSDOF 5
