REMARK  Name = ZINC32984642
REMARK  6 active torsions:
REMARK  status: ('A' for Active; 'I' for Inactive)
REMARK    1  A    between atoms: C_3  and  S_6
REMARK    2  A    between atoms: S_6  and  C_9
REMARK    3  A    between atoms: C_12  and  S_16
REMARK    4  A    between atoms: C_14  and  N_15
REMARK    5  A    between atoms: S_16  and  C_17
REMARK    6  A    between atoms: C_17  and  C_18
REMARK                            x       y       z     vdW  Elec       q    Type
REMARK                         _______ _______ _______ _____ _____    ______ ____
ROOT
ATOM      1  C   UNL     1      -2.936   4.567   1.737  0.00  0.00    +0.152 A 
ATOM      2  C   UNL     1      -2.767   5.830   2.270  0.00  0.00    +0.144 A 
ATOM      3  N   UNL     1      -3.070   6.043   3.542  0.00  0.00    -0.228 NA
ATOM      4  C   UNL     1      -3.522   5.061   4.308  0.00  0.00    +0.190 A 
ATOM      5  N   UNL     1      -3.693   3.834   3.837  0.00  0.00    -0.205 NA
ATOM      6  C   UNL     1      -3.414   3.552   2.568  0.00  0.00    +0.146 A 
ENDROOT
BRANCH   1   7
ATOM      7  S   UNL     1      -2.551   4.243   0.049  0.00  0.00    +0.036 S 
ATOM      8  O   UNL     1      -2.072   5.463  -0.500  0.00  0.00    -0.164 OA
ATOM      9  O   UNL     1      -3.664   3.547  -0.496  0.00  0.00    -0.164 OA
BRANCH   7  12
ATOM     10  C   UNL     1      -0.013   1.076   0.008  0.00  0.00    +0.009 A 
ATOM     11  C   UNL     1      -1.213   1.761   0.017  0.00  0.00    +0.035 A 
ATOM     12  C   UNL     1      -1.196   3.116   0.030  0.00  0.00    +0.131 A 
ATOM     13  S   UNL     1       0.555   3.464   0.015  0.00  0.00    -0.078 S 
ATOM     14  C   UNL     1       1.146   1.780   0.001  0.00  0.00    +0.047 A 
ENDBRANCH   7  12
ENDBRANCH   1   7
BRANCH   6  15
ATOM     15  N   UNL     1      -3.593   2.268   2.078  0.00  0.00    -0.342 N 
ATOM     16  H   UNL     1      -3.970   1.475   2.740  0.00  0.00    +0.144 HD
ATOM     17  H   UNL     1      -3.359   2.043   1.027  0.00  0.00    +0.144 HD
ENDBRANCH   6  15
BRANCH   4  18
ATOM     18  S   UNL     1      -3.904   5.394   5.996  0.00  0.00    -0.077 S 
BRANCH  18  19
ATOM     19  C   UNL     1      -3.493   7.154   6.070  0.00  0.00    +0.172 C 
BRANCH  19  20
ATOM     20  C   UNL     1      -3.748   7.672   7.462  0.00  0.00    +0.221 C 
ATOM     21  O   UNL     1      -4.167   6.924   8.319  0.00  0.00    -0.275 OA
ATOM     22  N   UNL     1      -3.511   8.966   7.754  0.00  0.00    -0.329 N 
ATOM     23  H   UNL     1      -3.698   9.344   8.770  0.00  0.00    +0.145 HD
ATOM     24  H   UNL     1      -3.131   9.645   6.976  0.00  0.00    +0.145 HD
ENDBRANCH  19  20
ENDBRANCH  18  19
ENDBRANCH   4  18
TORSDOF 6
