REMARK  Name = ZINC44826996
REMARK  5 active torsions:
REMARK  status: ('A' for Active; 'I' for Inactive)
REMARK    1  A    between atoms: C_1  and  C_2
REMARK    2  A    between atoms: C_7  and  N_8
REMARK    3  A    between atoms: N_8  and  C_9
REMARK    4  A    between atoms: C_11  and  C_22
REMARK    5  A    between atoms: N_13  and  C_16
REMARK                            x       y       z     vdW  Elec       q    Type
REMARK                         _______ _______ _______ _____ _____    ______ ____
ROOT
ATOM      1  C   UNL     1       0.045  -0.697   3.580  0.00  0.00    +0.087 C 
ATOM      2  C   UNL     1       0.048  -0.013   4.784  0.00  0.00    +0.075 C 
ATOM      3  C   UNL     1       0.074  -0.584   6.139  0.00  0.00    +0.070 C 
ATOM      4  N   UNL     1       0.067   0.404   6.981  0.00  0.00    -0.176 NA
ATOM      5  N   UNL     1       0.037   1.632   6.321  0.00  0.00    -0.156 N 
ATOM      6  C   UNL     1       0.030   1.441   4.986  0.00  0.00    +0.273 C 
ATOM      7  O   UNL     1       0.010   2.302   4.122  0.00  0.00    -0.268 OA
ATOM      8  C   UNL     1       0.104  -2.050   6.487  0.00  0.00    +0.068 C 
ENDROOT
BRANCH   5   9
ATOM      9  C   UNL     1       0.023   2.882   6.952  0.00  0.00    +0.060 A 
ATOM     10  C   UNL     1      -0.013   4.045   6.194  0.00  0.00    +0.025 A 
ATOM     11  C   UNL     1      -0.026   5.276   6.820  0.00  0.00    +0.002 A 
ATOM     12  C   UNL     1      -0.004   5.351   8.200  0.00  0.00    +0.000 A 
ATOM     13  C   UNL     1       0.032   4.195   8.959  0.00  0.00    +0.002 A 
ATOM     14  C   UNL     1       0.039   2.961   8.339  0.00  0.00    +0.025 A 
ENDBRANCH   5   9
BRANCH   1  15
ATOM     15  N   UNL     1       0.025  -0.015   2.416  0.00  0.00    -0.319 N 
ATOM     16  H   UNL     1       0.012   0.955   2.422  0.00  0.00    +0.152 HD
BRANCH  15  23
ATOM     17  C   UNL     1      -0.018   1.503   0.010  0.00  0.00    +0.045 C 
ATOM     18  C   UNL     1       0.002  -0.004   0.002  0.00  0.00    -0.029 A 
ATOM     19  C   UNL     1       0.006  -0.688  -1.198  0.00  0.00    +0.008 A 
ATOM     20  C   UNL     1       0.025  -2.071  -1.208  0.00  0.00    +0.039 A 
ATOM     21  C   UNL     1       0.040  -2.774  -0.014  0.00  0.00    +0.125 A 
ATOM     22  C   UNL     1       0.036  -2.094   1.190  0.00  0.00    +0.061 A 
ATOM     23  C   UNL     1       0.023  -0.705   1.201  0.00  0.00    +0.037 A 
ATOM     24  F   UNL     1       0.059  -4.125  -0.027  0.00  0.00    -0.205 F 
ENDBRANCH  15  23
ENDBRANCH   1  15
TORSDOF 3
