REMARK  Name = ZINC51149528
REMARK  10 active torsions:
REMARK  status: ('A' for Active; 'I' for Inactive)
REMARK    1  A    between atoms: C_1  and  C_2
REMARK    2  A    between atoms: C_5  and  C_20
REMARK    3  A    between atoms: C_6  and  O_9
REMARK    4  A    between atoms: C_7  and  C_8
REMARK    5  A    between atoms: O_9  and  C_10
REMARK    6  A    between atoms: C_10  and  C_11
REMARK    7  A    between atoms: C_12  and  C_19
REMARK    8  A    between atoms: N_14  and  C_18
REMARK    9  A    between atoms: C_15  and  N_16
REMARK   10  A    between atoms: N_16  and  N_17
REMARK                            x       y       z     vdW  Elec       q    Type
REMARK                         _______ _______ _______ _____ _____    ______ ____
ROOT
ATOM      1  C   UNL     1       1.149  -3.845   4.202  0.00  0.00    +0.053 A 
ATOM      2  C   UNL     1       1.033  -3.285   5.477  0.00  0.00    +0.068 A 
ATOM      3  N   UNL     1       0.888  -4.257   6.341  0.00  0.00    -0.175 NA
ATOM      4  N   UNL     1       0.906  -5.473   5.646  0.00  0.00    -0.252 N 
ATOM      5  C   UNL     1       1.062  -5.198   4.331  0.00  0.00    +0.137 A 
ATOM      6  C   UNL     1       0.773  -6.806   6.239  0.00  0.00    +0.174 C 
ATOM      7  C   UNL     1       1.069  -1.814   5.801  0.00  0.00    +0.068 C 
ENDROOT
BRANCH   5   8
ATOM      8  N   UNL     1       1.126  -6.129   3.299  0.00  0.00    -0.267 N 
ATOM      9  H   UNL     1       1.455  -5.863   2.426  0.00  0.00    +0.167 HD
BRANCH   8  10
ATOM     10  N   UNL     1       0.725  -7.417   3.514  0.00  0.00    -0.255 NA
ATOM     11  H   UNL     1      -0.225  -7.448   3.854  0.00  0.00    +0.140 HD
ATOM     12  H   UNL     1       0.828  -7.973   2.678  0.00  0.00    +0.140 HD
ENDBRANCH   8  10
ENDBRANCH   5   8
BRANCH   1  13
ATOM     13  C   UNL     1       1.330  -3.087   2.912  0.00  0.00    +0.269 C 
BRANCH  13  14
ATOM     14  O   UNL     1       0.050  -2.776   2.358  0.00  0.00    -0.487 OA
BRANCH  14  20
ATOM     15  C   UNL     1      -0.018   1.503   0.010  0.00  0.00    +0.044 C 
ATOM     16  C   UNL     1       0.002  -0.004   0.002  0.00  0.00    -0.044 A 
ATOM     17  C   UNL     1       0.006  -0.688  -1.200  0.00  0.00    +0.004 A 
ATOM     18  C   UNL     1       0.024  -2.071  -1.211  0.00  0.00    +0.007 A 
ATOM     19  C   UNL     1       0.039  -2.772  -0.020  0.00  0.00    -0.008 A 
ATOM     20  C   UNL     1       0.035  -2.088   1.186  0.00  0.00    +0.127 A 
ATOM     21  C   UNL     1       0.023  -0.700   1.195  0.00  0.00    -0.006 A 
ATOM     22  C   UNL     1       0.026   0.046   2.504  0.00  0.00    +0.048 C 
ATOM     23  C   UNL     1       0.059  -4.279  -0.033  0.00  0.00    +0.047 C 
ENDBRANCH  14  20
ENDBRANCH  13  14
ENDBRANCH   1  13
TORSDOF 5
