REMARK  Name = ZINC39355819
REMARK  8 active torsions:
REMARK  status: ('A' for Active; 'I' for Inactive)
REMARK    1  A    between atoms: C_1  and  C_2
REMARK    2  A    between atoms: C_3  and  C_19
REMARK    3  A    between atoms: N_5  and  C_12
REMARK    4  A    between atoms: C_8  and  C_10
REMARK    5  A    between atoms: N_21  and  N_22
REMARK    6  A    between atoms: C_23  and  C_24
REMARK    7  A    between atoms: C_29  and  O_36
REMARK    8  A    between atoms: O_36  and  C_37
REMARK                            x       y       z     vdW  Elec       q    Type
REMARK                         _______ _______ _______ _____ _____    ______ ____
ROOT
ATOM      1  C   UNL     1       1.076  -0.023  -3.019  0.00  0.00    +0.279 C 
ATOM      2  O   UNL     1       1.129   1.191  -3.052  0.00  0.00    -0.267 OA
ATOM      3  N   UNL     1       1.359  -0.740  -4.124  0.00  0.00    -0.202 N 
ATOM      4  H   UNL     1       1.317  -1.709  -4.098  0.00  0.00    +0.178 HD
ENDROOT
BRANCH   1   7
ATOM      5  C   UNL     1       0.173   1.496  -0.859  0.00  0.00    +0.043 C 
ATOM      6  C   UNL     1       0.273  -0.002  -0.729  0.00  0.00    -0.020 C 
ATOM      7  C   UNL     1       0.703  -0.712  -1.768  0.00  0.00    +0.109 C 
ATOM      8  N   UNL     1       0.804  -2.104  -1.688  0.00  0.00    -0.253 N 
ATOM      9  N   UNL     1       0.126  -2.787  -0.670  0.00  0.00    -0.189 N 
ATOM     10  C   UNL     1      -0.333  -2.122   0.403  0.00  0.00    +0.257 C 
ATOM     11  O   UNL     1      -0.942  -2.729   1.259  0.00  0.00    -0.272 OA
ATOM     12  C   UNL     1      -0.108  -0.646   0.572  0.00  0.00    +0.207 C 
ATOM     13  H   UNL     1       1.338  -2.593  -2.333  0.00  0.00    +0.171 HD
BRANCH   9  14
ATOM     14  C   UNL     1      -0.072  -4.169  -0.771  0.00  0.00    +0.056 A 
ATOM     15  C   UNL     1       0.261  -4.999   0.291  0.00  0.00    +0.026 A 
ATOM     16  C   UNL     1       0.064  -6.362   0.189  0.00  0.00    +0.022 A 
ATOM     17  C   UNL     1      -0.465  -6.901  -0.970  0.00  0.00    +0.041 A 
ATOM     18  C   UNL     1      -0.798  -6.076  -2.030  0.00  0.00    +0.022 A 
ATOM     19  C   UNL     1      -0.609  -4.712  -1.931  0.00  0.00    +0.026 A 
ATOM     20 CL   UNL     1      -0.710  -8.615  -1.096  0.00  0.00    -0.084 Cl
ENDBRANCH   9  14
BRANCH  12  21
ATOM     21  C   UNL     1      -1.347  -0.026   1.071  0.00  0.00    +0.080 C 
ATOM     22  N   UNL     1      -2.303   0.452   1.456  0.00  0.00    -0.195 NA
ENDBRANCH  12  21
ENDBRANCH   1   7
BRANCH   3  23
ATOM     23  N   UNL     1       1.714  -0.087  -5.312  0.00  0.00    -0.191 NA
ATOM     24  C   UNL     1       2.061  -0.768  -6.338  0.00  0.00    +0.120 C 
BRANCH  24  25
ATOM     25  C   UNL     1       1.943  -2.270  -6.321  0.00  0.00    +0.141 C 
ATOM     26  C   UNL     1       0.975  -2.674  -7.416  0.00  0.00    +0.001 C 
ATOM     27  C   UNL     1       1.436  -3.526  -8.375  0.00  0.00    -0.003 A 
ATOM     28  C   UNL     1       0.568  -3.966  -9.467  0.00  0.00    +0.055 A 
ATOM     29  C   UNL     1       1.071  -4.819 -10.402  0.00  0.00    +0.121 A 
ATOM     30  C   UNL     1       2.392  -5.276 -10.334  0.00  0.00    +0.047 A 
ATOM     31  C   UNL     1       3.244  -4.902  -9.345  0.00  0.00    +0.027 A 
ATOM     32  C   UNL     1       2.822  -4.023  -8.330  0.00  0.00    +0.041 A 
ATOM     33  N   UNL     1       3.670  -3.665  -7.365  0.00  0.00    -0.284 N 
ATOM     34  C   UNL     1       3.340  -2.846  -6.382  0.00  0.00    +0.229 C 
ATOM     35  O   UNL     1       4.158  -2.555  -5.530  0.00  0.00    -0.274 OA
ATOM     36  H   UNL     1       4.571  -4.023  -7.386  0.00  0.00    +0.155 HD
BRANCH  29  37
ATOM     37  O   UNL     1       0.274  -5.235 -11.422  0.00  0.00    -0.495 OA
ATOM     38  C   UNL     1       0.853  -6.129 -12.374  0.00  0.00    +0.277 C 
ENDBRANCH  29  37
ENDBRANCH  24  25
ENDBRANCH   3  23
TORSDOF 6
