REMARK  Name = ZINC03670164
REMARK  7 active torsions:
REMARK  status: ('A' for Active; 'I' for Inactive)
REMARK    1  A    between atoms: C_1  and  C_2
REMARK    2  A    between atoms: C_2  and  N_55
REMARK    3  A    between atoms: C_6  and  C_8
REMARK    4  A    between atoms: C_8  and  N_9
REMARK    5  A    between atoms: C_10  and  C_12
REMARK    6  A    between atoms: C_12  and  O_31
REMARK    7  A    between atoms: N_22  and  C_23
REMARK                            x       y       z     vdW  Elec       q    Type
REMARK                         _______ _______ _______ _____ _____    ______ ____
ROOT
ATOM      1  C   UNL     1       1.990   1.503   3.868  0.00  0.00    +0.247 C 
ATOM      2  C   UNL     1       2.509   1.727   2.467  0.00  0.00    +0.033 A 
ATOM      3  C   UNL     1       2.631   2.993   1.942  0.00  0.00    +0.010 A 
ATOM      4  C   UNL     1       3.110   3.159   0.654  0.00  0.00    +0.001 A 
ATOM      5  C   UNL     1       3.465   2.056  -0.101  0.00  0.00    +0.002 A 
ATOM      6  C   UNL     1       3.343   0.784   0.423  0.00  0.00    +0.024 A 
ATOM      7  C   UNL     1       2.863   0.612   1.715  0.00  0.00    +0.043 A 
ATOM      8  N   UNL     1       2.732  -0.665   2.262  0.00  0.00    -0.269 N 
ATOM      9  C   UNL     1       2.274  -0.883   3.502  0.00  0.00    +0.314 C 
ATOM     10  O   UNL     1       2.194  -2.030   3.896  0.00  0.00    -0.252 OA
ATOM     11  N   UNL     1       1.900   0.108   4.331  0.00  0.00    -0.209 N 
ATOM     12  H   UNL     1       2.985  -1.429   1.721  0.00  0.00    +0.156 HD
ENDROOT
BRANCH  11  13
ATOM     13  C   UNL     1       1.428  -0.184   5.618  0.00  0.00    +0.111 A 
ATOM     14  C   UNL     1       2.317  -0.266   6.684  0.00  0.00    +0.148 A 
ATOM     15  C   UNL     1       1.847  -0.549   7.954  0.00  0.00    +0.040 A 
ATOM     16  C   UNL     1       0.496  -0.761   8.162  0.00  0.00    +0.006 A 
ATOM     17  C   UNL     1      -0.390  -0.686   7.104  0.00  0.00    +0.040 A 
ATOM     18  C   UNL     1       0.071  -0.398   5.832  0.00  0.00    +0.148 A 
ATOM     19  F   UNL     1      -0.795  -0.324   4.798  0.00  0.00    -0.203 F 
ATOM     20  F   UNL     1       3.637  -0.065   6.480  0.00  0.00    -0.203 F 
ENDBRANCH  11  13
BRANCH   1  22
ATOM     21  N   UNL     1      -0.395   1.607   3.221  0.00  0.00    -0.313 N 
ATOM     22  C   UNL     1       0.615   2.112   3.957  0.00  0.00    +0.269 C 
ATOM     23  O   UNL     1       0.416   3.057   4.691  0.00  0.00    -0.270 OA
ATOM     24  H   UNL     1      -0.236   0.852   2.634  0.00  0.00    +0.149 HD
BRANCH  21  25
ATOM     25  C   UNL     1      -1.732   2.200   3.307  0.00  0.00    +0.089 C 
BRANCH  25  29
ATOM     26  C   UNL     1      -4.987   1.189   2.654  0.00  0.00    -0.078 C 
ATOM     27  C   UNL     1      -4.357  -0.170   2.260  0.00  0.00    -0.020 C 
ATOM     28  C   UNL     1      -2.866   0.059   2.622  0.00  0.00    -0.016 C 
ATOM     29  C   UNL     1      -2.648   1.546   2.271  0.00  0.00    -0.051 C 
ATOM     30  N   UNL     1      -3.974   2.189   2.270  0.00  0.00    +0.382 N 
ATOM     31  H   UNL     1      -4.182   2.538   1.327  0.00  0.00    -0.081 HD
BRANCH  30  33
ATOM     32  C   UNL     1      -5.335   4.048   3.129  0.00  0.00    -0.017 C 
ATOM     33  C   UNL     1      -3.988   3.329   3.224  0.00  0.00    -0.082 C 
ENDBRANCH  30  33
ENDBRANCH  25  29
ENDBRANCH  21  25
ENDBRANCH   1  22
BRANCH   1  34
ATOM     34  O   UNL     1       2.841   2.212   4.772  0.00  0.00    -0.360 OA
ATOM     35  H   UNL     1       2.918   3.157   4.580  0.00  0.00    +0.213 HD
ENDBRANCH   1  34
TORSDOF 6
