REMARK  Name = ZINC16697033
REMARK  8 active torsions:
REMARK  status: ('A' for Active; 'I' for Inactive)
REMARK    1  A    between atoms: C_1  and  C_2
REMARK    2  A    between atoms: C_2  and  C_4
REMARK    3  A    between atoms: C_6  and  C_11
REMARK    4  A    between atoms: C_9  and  O_10
REMARK    5  A    between atoms: C_11  and  C_12
REMARK    6  A    between atoms: C_15  and  O_21
REMARK    7  A    between atoms: C_16  and  C_18
REMARK    8  A    between atoms: C_18  and  C_20
REMARK                            x       y       z     vdW  Elec       q    Type
REMARK                         _______ _______ _______ _____ _____    ______ ____
ROOT
ATOM      1  C   UNL     1       0.058  -4.290  -0.005  0.00  0.00    +0.070 C 
ENDROOT
BRANCH   1   4
ATOM      2  C   UNL     1      -0.006  -0.703  -1.216  0.00  0.00    +0.059 A 
ATOM      3  C   UNL     1       0.018  -2.103  -1.209  0.00  0.00    +0.019 A 
ATOM      4  C   UNL     1       0.038  -2.783  -0.011  0.00  0.00    -0.042 A 
ATOM      5  C   UNL     1       0.041  -2.088   1.188  0.00  0.00    +0.007 A 
ATOM      6  C   UNL     1       0.023  -0.707   1.197  0.00  0.00    +0.046 A 
ATOM      7  C   UNL     1       0.002  -0.004   0.002  0.00  0.00    +0.127 A 
BRANCH   2   9
ATOM      8  C   UNL     1      -0.042  -0.727  -3.792  0.00  0.00    +0.092 C 
ATOM      9  C   UNL     1      -0.034   0.029  -2.488  0.00  0.00    +0.164 C 
ATOM     10  O   UNL     1      -0.051   1.241  -2.490  0.00  0.00    -0.292 OA
ENDBRANCH   2   9
BRANCH   7  11
ATOM     11  O   UNL     1      -0.016   1.352   0.009  0.00  0.00    -0.506 OA
ATOM     12  H   UNL     1       0.862   1.757   0.003  0.00  0.00    +0.292 HD
ENDBRANCH   7  11
ENDBRANCH   1   4
BRANCH   1  13
ATOM     13  C   UNL     1      -1.356  -4.810   0.011  0.00  0.00    -0.042 A 
ATOM     14  C   UNL     1      -1.990  -5.048   1.221  0.00  0.00    +0.007 A 
ATOM     15  C   UNL     1      -3.287  -5.520   1.250  0.00  0.00    +0.046 A 
ATOM     16  C   UNL     1      -3.963  -5.770   0.065  0.00  0.00    +0.127 A 
ATOM     17  C   UNL     1      -3.324  -5.536  -1.163  0.00  0.00    +0.059 A 
ATOM     18  C   UNL     1      -2.010  -5.052  -1.176  0.00  0.00    +0.019 A 
BRANCH  17  19
ATOM     19  C   UNL     1      -4.028  -5.796  -2.424  0.00  0.00    +0.164 C 
ATOM     20  O   UNL     1      -5.167  -6.215  -2.408  0.00  0.00    -0.292 OA
ATOM     21  C   UNL     1      -3.338  -5.543  -3.739  0.00  0.00    +0.092 C 
ENDBRANCH  17  19
BRANCH  16  22
ATOM     22  O   UNL     1      -5.236  -6.239   0.093  0.00  0.00    -0.506 OA
ATOM     23  H   UNL     1      -5.299  -7.204   0.102  0.00  0.00    +0.292 HD
ENDBRANCH  16  22
ENDBRANCH   1  13
TORSDOF 6
