REMARK  Name = ZINC35852043
REMARK  4 active torsions:
REMARK  status: ('A' for Active; 'I' for Inactive)
REMARK    1  A    between atoms: C_8  and  C_27
REMARK    2  A    between atoms: C_10  and  C_18
REMARK    3  A    between atoms: C_22  and  N_24
REMARK    4  A    between atoms: C_27  and  C_29
REMARK                            x       y       z     vdW  Elec       q    Type
REMARK                         _______ _______ _______ _____ _____    ______ ____
ROOT
ATOM      1  C   UNL     1       0.314   1.467   0.080  0.00  0.00    +0.000 A 
ATOM      2  C   UNL     1       1.543   2.097   0.165  0.00  0.00    +0.002 A 
ATOM      3  C   UNL     1       2.705   1.355   0.201  0.00  0.00    +0.023 A 
ATOM      4  C   UNL     1       2.650  -0.036   0.151  0.00  0.00    +0.039 A 
ATOM      5  C   UNL     1       1.409  -0.658   0.067  0.00  0.00    +0.004 A 
ATOM      6  C   UNL     1       0.251   0.086   0.031  0.00  0.00    +0.008 A 
ATOM      7  C   UNL     1       1.686  -2.138   0.034  0.00  0.00    +0.137 C 
ATOM      8  C   UNL     1       1.030  -2.845   1.223  0.00  0.00    +0.104 C 
ATOM      9  C   UNL     1      -0.165  -3.609   0.605  0.00  0.00    +0.050 C 
ATOM     10  C   UNL     1       0.286  -3.848  -0.843  0.00  0.00    +0.077 C 
ATOM     11  N   UNL     1       1.177  -2.741  -1.209  0.00  0.00    -0.271 NA
ATOM     12  C   UNL     1       0.474  -1.670  -1.982  0.00  0.00    +0.155 C 
ATOM     13  S   UNL     1      -0.686  -2.691  -2.991  0.00  0.00    -0.144 S 
ATOM     14  C   UNL     1      -0.921  -4.040  -1.772  0.00  0.00    +0.090 C 
ATOM     15  C   UNL     1       3.188  -2.247   0.106  0.00  0.00    +0.243 C 
ATOM     16  O   UNL     1       3.840  -3.270   0.106  0.00  0.00    -0.273 OA
ATOM     17  N   UNL     1       3.668  -0.991   0.172  0.00  0.00    -0.283 N 
ATOM     18  H   UNL     1       4.612  -0.775   0.226  0.00  0.00    +0.155 HD
ENDROOT
BRANCH   9  19
ATOM     19  C   UNL     1      -0.387  -4.917   1.319  0.00  0.00    -0.040 A 
ATOM     20  C   UNL     1       0.617  -5.866   1.353  0.00  0.00    +0.004 A 
ATOM     21  C   UNL     1       0.413  -7.066   2.009  0.00  0.00    +0.002 A 
ATOM     22  C   UNL     1      -0.796  -7.316   2.631  0.00  0.00    +0.033 A 
ATOM     23  C   UNL     1      -1.800  -6.367   2.598  0.00  0.00    +0.126 A 
ATOM     24  C   UNL     1      -1.594  -5.166   1.946  0.00  0.00    +0.036 A 
BRANCH  23  25
ATOM     25  N   UNL     1      -3.094  -6.636   3.264  0.00  0.00    +0.056 N 
ATOM     26  O   UNL     1      -3.273  -7.686   3.836  0.00  0.00    -0.126 OA
ATOM     27  O   UNL     1      -3.973  -5.806   3.235  0.00  0.00    -0.126 OA
ENDBRANCH  23  25
ENDBRANCH   9  19
BRANCH   8  28
ATOM     28  C   UNL     1       0.547  -1.838   2.234  0.00  0.00    +0.187 C 
ATOM     29  O   UNL     1      -0.604  -1.460   2.211  0.00  0.00    -0.290 OA
BRANCH  28  30
ATOM     30  C   UNL     1       1.476  -1.311   3.253  0.00  0.00    +0.106 A 
ATOM     31  C   UNL     1       1.022  -0.383   4.190  0.00  0.00    +0.031 A 
ATOM     32  C   UNL     1       1.907   0.102   5.140  0.00  0.00    +0.004 A 
ATOM     33  C   UNL     1       3.215  -0.357   5.121  0.00  0.00    +0.020 A 
ATOM     34  C   UNL     1       3.598  -1.280   4.160  0.00  0.00    +0.111 A 
ATOM     35  N   UNL     1       2.737  -1.729   3.273  0.00  0.00    -0.252 NA
ENDBRANCH  28  30
ENDBRANCH   8  28
TORSDOF 4
