REMARK  Name = ZINC03898630
REMARK  10 active torsions:
REMARK  status: ('A' for Active; 'I' for Inactive)
REMARK    1  A    between atoms: C_1  and  C_2
REMARK    2  A    between atoms: C_2  and  O_3
REMARK    3  A    between atoms: O_3  and  C_4
REMARK    4  A    between atoms: C_7  and  N_13
REMARK    5  A    between atoms: C_8  and  N_10
REMARK    6  A    between atoms: N_13  and  C_14
REMARK    7  A    between atoms: C_16  and  O_28
REMARK    8  A    between atoms: C_18  and  O_27
REMARK    9  A    between atoms: C_20  and  O_26
REMARK   10  A    between atoms: C_22  and  C_25
REMARK                            x       y       z     vdW  Elec       q    Type
REMARK                         _______ _______ _______ _____ _____    ______ ____
ROOT
ATOM      1  N   UNL     1      -1.632  -5.815   0.050  0.00  0.00    -0.315 N 
ATOM      2  H   UNL     1      -2.448  -6.335  -0.018  0.00  0.00    +0.149 HD
ENDROOT
BRANCH   1   3
ATOM      3  C   UNL     1      -0.330  -6.483  -0.019  0.00  0.00    +0.235 C 
ATOM      4  C   UNL     1      -0.399  -7.634  -1.026  0.00  0.00    +0.192 C 
ATOM      5  C   UNL     1       0.947  -8.365  -1.048  0.00  0.00    +0.178 C 
ATOM      6  C   UNL     1       1.275  -8.849   0.368  0.00  0.00    +0.174 C 
ATOM      7  C   UNL     1       1.280  -7.651   1.321  0.00  0.00    +0.149 C 
ATOM      8  O   UNL     1       0.009  -6.999   1.270  0.00  0.00    -0.351 OA
ATOM      9  C   UNL     1       1.548  -8.135   2.748  0.00  0.00    +0.041 C 
BRANCH   6  10
ATOM     10  O   UNL     1       0.289  -9.793   0.790  0.00  0.00    -0.387 OA
ATOM     11  H   UNL     1       0.435 -10.143   1.680  0.00  0.00    +0.210 HD
ENDBRANCH   6  10
BRANCH   5  12
ATOM     12  O   UNL     1       0.869  -9.484  -1.932  0.00  0.00    -0.386 OA
ATOM     13  H   UNL     1       0.658  -9.249  -2.846  0.00  0.00    +0.210 HD
ENDBRANCH   5  12
BRANCH   4  14
ATOM     14  O   UNL     1      -1.431  -8.544  -0.641  0.00  0.00    -0.385 OA
ATOM     15  H   UNL     1      -2.312  -8.146  -0.602  0.00  0.00    +0.210 HD
ENDBRANCH   4  14
ENDBRANCH   1   3
BRANCH   1  19
ATOM     16  C   UNL     1      -1.830  -1.680   0.534  0.00  0.00    +0.123 A 
ATOM     17  C   UNL     1      -0.605  -2.328   0.600  0.00  0.00    +0.047 A 
ATOM     18  C   UNL     1      -0.539  -3.697   0.440  0.00  0.00    +0.029 A 
ATOM     19  C   UNL     1      -1.699  -4.427   0.213  0.00  0.00    +0.060 A 
ATOM     20  C   UNL     1      -2.924  -3.778   0.147  0.00  0.00    +0.150 A 
ATOM     21  C   UNL     1      -2.989  -2.408   0.313  0.00  0.00    +0.080 A 
BRANCH  20  22
ATOM     22  N   UNL     1      -4.161  -4.554  -0.094  0.00  0.00    +0.058 N 
ATOM     23  O   UNL     1      -5.214  -3.980  -0.248  0.00  0.00    -0.126 OA
ATOM     24  O   UNL     1      -4.118  -5.761  -0.138  0.00  0.00    -0.126 OA
ENDBRANCH  20  22
BRANCH  16  25
ATOM     25  O   UNL     1      -1.895  -0.331   0.693  0.00  0.00    -0.492 OA
BRANCH  25  27
ATOM     26  C   UNL     1      -0.933   1.854   1.071  0.00  0.00    +0.048 C 
ATOM     27  C   UNL     1      -0.662   0.356   0.917  0.00  0.00    +0.225 C 
ENDBRANCH  25  27
ENDBRANCH  16  25
ENDBRANCH   1  19
TORSDOF 8
