REMARK  Name = ZINC36504468
REMARK  12 active torsions:
REMARK  status: ('A' for Active; 'I' for Inactive)
REMARK    1  A    between atoms: C_1  and  O_2
REMARK    2  A    between atoms: O_2  and  C_3
REMARK    3  A    between atoms: C_5  and  C_10
REMARK    4  A    between atoms: C_8  and  O_9
REMARK    5  A    between atoms: C_10  and  C_12
REMARK    6  A    between atoms: C_10  and  N_21
REMARK    7  A    between atoms: N_14  and  C_15
REMARK    8  A    between atoms: N_21  and  C_22
REMARK    9  A    between atoms: C_22  and  C_23
REMARK   10  A    between atoms: C_28  and  C_30
REMARK   11  A    between atoms: C_30  and  N_31
REMARK   12  A    between atoms: C_32  and  C_34
REMARK                            x       y       z     vdW  Elec       q    Type
REMARK                         _______ _______ _______ _____ _____    ______ ____
ROOT
ATOM      1  C   UNL     1       2.174  -0.415  -4.458  0.00  0.00    +0.193 C 
ENDROOT
BRANCH   1   4
ATOM      2  C   UNL     1       1.859  -4.037  -3.430  0.00  0.00    +0.162 A 
ATOM      3  C   UNL     1       1.681  -2.663  -3.477  0.00  0.00    +0.055 A 
ATOM      4  C   UNL     1       2.369  -1.908  -4.408  0.00  0.00    -0.015 A 
ATOM      5  C   UNL     1       3.235  -2.521  -5.295  0.00  0.00    +0.010 A 
ATOM      6  C   UNL     1       3.417  -3.891  -5.254  0.00  0.00    +0.049 A 
ATOM      7  C   UNL     1       2.735  -4.652  -4.318  0.00  0.00    +0.158 A 
BRANCH   2   9
ATOM      8  C   UNL     1       0.301  -4.081  -1.634  0.00  0.00    +0.277 C 
ATOM      9  O   UNL     1       1.183  -4.780  -2.514  0.00  0.00    -0.491 OA
ENDBRANCH   2   9
BRANCH   7  10
ATOM     10  O   UNL     1       2.918  -5.999  -4.273  0.00  0.00    -0.503 OA
ATOM     11  H   UNL     1       2.309  -6.498  -4.835  0.00  0.00    +0.292 HD
ENDBRANCH   7  10
ENDBRANCH   1   4
BRANCH   1  12
ATOM     12  C   UNL     1       1.349  -0.056  -5.667  0.00  0.00    +0.238 C 
ATOM     13  O   UNL     1       1.895   0.311  -6.686  0.00  0.00    -0.273 OA
ATOM     14  N   UNL     1       0.005  -0.143  -5.616  0.00  0.00    -0.311 N 
ATOM     15  H   UNL     1      -0.431  -0.437  -4.801  0.00  0.00    +0.149 HD
BRANCH  14  16
ATOM     16  C   UNL     1      -0.797   0.206  -6.791  0.00  0.00    +0.073 C 
ATOM     17  C   UNL     1      -1.042   1.716  -6.811  0.00  0.00    +0.022 C 
ATOM     18  C   UNL     1      -1.879   2.081  -8.038  0.00  0.00    +0.002 C 
ATOM     19  C   UNL     1      -3.220   1.347  -7.977  0.00  0.00    +0.000 C 
ATOM     20  C   UNL     1      -2.975  -0.163  -7.957  0.00  0.00    +0.002 C 
ATOM     21  C   UNL     1      -2.138  -0.527  -6.729  0.00  0.00    +0.022 C 
ENDBRANCH  14  16
ENDBRANCH   1  12
BRANCH   1  22
ATOM     22  N   UNL     1       3.479   0.245  -4.544  0.00  0.00    -0.277 N 
ATOM     23  C   UNL     1       3.942   0.962  -3.500  0.00  0.00    +0.234 C 
ATOM     24  O   UNL     1       3.278   1.059  -2.490  0.00  0.00    -0.274 OA
BRANCH  22  25
ATOM     25  C   UNL     1       4.281   0.127  -5.764  0.00  0.00    +0.183 C 
BRANCH  25  26
ATOM     26  C   UNL     1       4.407   1.480  -6.416  0.00  0.00    +0.122 A 
ATOM     27  C   UNL     1       5.520   2.234  -6.456  0.00  0.00    +0.046 A 
ATOM     28  C   UNL     1       5.190   3.414  -7.161  0.00  0.00    +0.041 A 
ATOM     29  C   UNL     1       3.895   3.311  -7.509  0.00  0.00    +0.195 A 
ATOM     30  O   UNL     1       3.427   2.135  -7.060  0.00  0.00    -0.466 OA
ENDBRANCH  25  26
ENDBRANCH  22  25
BRANCH  23  31
ATOM     31  C   UNL     1       5.285   1.641  -3.588  0.00  0.00    +0.200 C 
BRANCH  31  32
ATOM     32  N   UNL     1       5.557   2.349  -2.335  0.00  0.00    -0.303 N 
ATOM     33  C   UNL     1       6.708   3.033  -2.184  0.00  0.00    +0.244 C 
ATOM     34  O   UNL     1       7.521   3.062  -3.087  0.00  0.00    -0.270 OA
ATOM     35  H   UNL     1       4.908   2.325  -1.614  0.00  0.00    +0.150 HD
BRANCH  33  36
ATOM     36  C   UNL     1       6.983   3.748  -0.919  0.00  0.00    +0.037 A 
ATOM     37  C   UNL     1       6.054   3.711   0.123  0.00  0.00    +0.013 A 
ATOM     38  C   UNL     1       6.317   4.380   1.300  0.00  0.00    +0.001 A 
ATOM     39  C   UNL     1       7.498   5.086   1.450  0.00  0.00    +0.000 A 
ATOM     40  C   UNL     1       8.422   5.127   0.421  0.00  0.00    +0.001 A 
ATOM     41  C   UNL     1       8.174   4.457  -0.759  0.00  0.00    +0.013 A 
ENDBRANCH  33  36
ENDBRANCH  31  32
ENDBRANCH  23  31
ENDBRANCH   1  22
TORSDOF 11
