REMARK  Name = ZINC20733253
REMARK  3 active torsions:
REMARK  status: ('A' for Active; 'I' for Inactive)
REMARK    1  A    between atoms: C_1  and  C_2
REMARK    2  A    between atoms: C_3  and  N_9
REMARK    3  A    between atoms: N_25  and  C_28
REMARK                            x       y       z     vdW  Elec       q    Type
REMARK                         _______ _______ _______ _____ _____    ______ ____
ROOT
ATOM      1  N   UNL     1      -0.161  -0.119  -2.481  0.00  0.00    -0.218 N 
ATOM      2  C   UNL     1      -0.347  -0.722  -3.672  0.00  0.00    +0.133 A 
ATOM      3  C   UNL     1      -0.366   0.258  -4.633  0.00  0.00    +0.032 A 
ATOM      4  C   UNL     1      -0.198   1.480  -3.999  0.00  0.00    +0.141 A 
ATOM      5  N   UNL     1      -0.081   1.264  -2.710  0.00  0.00    -0.173 NA
ATOM      6  C   UNL     1      -0.536  -0.060  -6.092  0.00  0.00    +0.112 C 
ATOM      7  C   UNL     1      -1.333  -1.355  -6.237  0.00  0.00    +0.122 C 
ATOM      8  C   UNL     1      -0.869  -2.392  -5.252  0.00  0.00    +0.220 C 
ATOM      9  O   UNL     1      -0.832  -3.554  -5.597  0.00  0.00    -0.275 OA
ATOM     10  N   UNL     1      -0.490  -2.070  -3.997  0.00  0.00    -0.270 N 
ATOM     11  C   UNL     1       0.786  -0.160  -6.783  0.00  0.00    -0.006 A 
ATOM     12  C   UNL     1       1.860  -1.001  -6.586  0.00  0.00    +0.007 A 
ATOM     13  C   UNL     1       2.961  -0.824  -7.418  0.00  0.00    +0.000 A 
ATOM     14  C   UNL     1       2.974   0.150  -8.395  0.00  0.00    +0.002 A 
ATOM     15  C   UNL     1       1.898   1.000  -8.599  0.00  0.00    +0.024 A 
ATOM     16  C   UNL     1       0.787   0.833  -7.771  0.00  0.00    +0.040 A 
ATOM     17  N   UNL     1      -0.408   1.531  -7.752  0.00  0.00    -0.273 N 
ATOM     18  C   UNL     1      -1.246   1.074  -6.798  0.00  0.00    +0.235 C 
ATOM     19  O   UNL     1      -2.357   1.493  -6.552  0.00  0.00    -0.274 OA
ATOM     20  C   UNL     1      -0.726   2.635  -8.661  0.00  0.00    +0.138 C 
ATOM     21  H   UNL     1      -0.322  -2.760  -3.337  0.00  0.00    +0.156 HD
ENDROOT
BRANCH   1  24
ATOM     22  C   UNL     1      -1.716   0.901  -0.326  0.00  0.00    +0.047 C 
ATOM     23  C   UNL     1      -0.811  -0.292  -0.159  0.00  0.00    -0.007 A 
ATOM     24  C   UNL     1      -0.069  -0.758  -1.236  0.00  0.00    +0.072 A 
ATOM     25  C   UNL     1       0.763  -1.858  -1.079  0.00  0.00    +0.028 A 
ATOM     26  C   UNL     1       0.852  -2.486   0.148  0.00  0.00    +0.004 A 
ATOM     27  C   UNL     1       0.112  -2.022   1.219  0.00  0.00    +0.020 A 
ATOM     28  C   UNL     1      -0.715  -0.921   1.068  0.00  0.00    +0.046 A 
ATOM     29 CL   UNL     1      -1.636  -0.336   2.417  0.00  0.00    -0.083 Cl
ENDBRANCH   1  24
TORSDOF 1
