REMARK  Name = ZINC19357025
REMARK  3 active torsions:
REMARK  status: ('A' for Active; 'I' for Inactive)
REMARK    1  A    between atoms: C_4  and  N_29
REMARK    2  A    between atoms: C_5  and  C_7
REMARK    3  A    between atoms: C_8  and  C_9
REMARK                            x       y       z     vdW  Elec       q    Type
REMARK                         _______ _______ _______ _____ _____    ______ ____
ROOT
ATOM      1  C   UNL     1       0.100  -4.330  -0.352  0.00  0.00    +0.202 C 
ATOM      2  N   UNL     1      -0.382  -4.779  -1.670  0.00  0.00    -0.295 N 
ATOM      3  C   UNL     1      -1.728  -4.865  -1.912  0.00  0.00    +0.160 C 
ATOM      4  N   UNL     1      -2.587  -5.130  -0.944  0.00  0.00    -0.302 N 
ATOM      5  C   UNL     1      -2.114  -5.255   0.320  0.00  0.00    +0.213 A 
ATOM      6  N   UNL     1      -0.820  -4.887   0.646  0.00  0.00    -0.287 N 
ATOM      7  C   UNL     1      -0.634  -5.141   1.985  0.00  0.00    +0.076 A 
ATOM      8  C   UNL     1       0.435  -4.996   2.860  0.00  0.00    +0.077 A 
ATOM      9  C   UNL     1       0.291  -5.352   4.187  0.00  0.00    +0.164 A 
ATOM     10  C   UNL     1      -0.919  -5.857   4.655  0.00  0.00    +0.164 A 
ATOM     11  C   UNL     1      -1.991  -6.008   3.800  0.00  0.00    +0.079 A 
ATOM     12  C   UNL     1      -1.859  -5.651   2.454  0.00  0.00    +0.095 A 
ATOM     13  N   UNL     1      -2.722  -5.686   1.394  0.00  0.00    -0.212 NA
ATOM     14  O   UNL     1      -1.041  -6.202   5.971  0.00  0.00    -0.488 OA
ATOM     15  C   UNL     1      -0.284  -7.337   6.393  0.00  0.00    +0.232 C 
ATOM     16  C   UNL     1       1.139  -6.935   6.747  0.00  0.00    +0.082 C 
ATOM     17  C   UNL     1       1.913  -6.422   5.543  0.00  0.00    +0.232 C 
ATOM     18  O   UNL     1       1.339  -5.210   5.051  0.00  0.00    -0.488 OA
ATOM     19  N   UNL     1      -2.193  -4.671  -3.185  0.00  0.00    -0.332 N 
ATOM     20  H   UNL     1       0.252  -5.015  -2.365  0.00  0.00    +0.151 HD
ATOM     21  H   UNL     1      -1.571  -4.476  -3.904  0.00  0.00    +0.145 HD
ATOM     22  H   UNL     1      -3.143  -4.729  -3.368  0.00  0.00    +0.145 HD
ATOM     23  H   UNL     1      -3.533  -5.232  -1.133  0.00  0.00    +0.171 HD
ENDROOT
BRANCH   1  25
ATOM     24  C   UNL     1       1.222  -2.158  -0.136  0.00  0.00    +0.009 C 
ATOM     25  C   UNL     1       0.086  -2.825  -0.283  0.00  0.00    +0.018 C 
BRANCH  24  30
ATOM     26  C   UNL     1       0.073   1.407  -0.414  0.00  0.00    +0.001 A 
ATOM     27  C   UNL     1       1.184   2.085   0.057  0.00  0.00    +0.002 A 
ATOM     28  C   UNL     1       2.306   1.387   0.465  0.00  0.00    +0.033 A 
ATOM     29  C   UNL     1       2.325   0.009   0.405  0.00  0.00    +0.133 A 
ATOM     30  C   UNL     1       1.209  -0.681  -0.069  0.00  0.00    +0.005 A 
ATOM     31  C   UNL     1       0.080   0.029  -0.479  0.00  0.00    +0.010 A 
BRANCH  29  32
ATOM     32  N   UNL     1       3.527  -0.736   0.842  0.00  0.00    +0.057 N 
ATOM     33  O   UNL     1       3.407  -1.785   1.432  0.00  0.00    -0.126 OA
ATOM     34  O   UNL     1       4.629  -0.296   0.609  0.00  0.00    -0.126 OA
ENDBRANCH  29  32
ENDBRANCH  24  30
ENDBRANCH   1  25
TORSDOF 3
