REMARK  Name = ZINC39918761
REMARK  10 active torsions:
REMARK  status: ('A' for Active; 'I' for Inactive)
REMARK    1  A    between atoms: C_1  and  C_2
REMARK    2  A    between atoms: C_2  and  C_3
REMARK    3  A    between atoms: C_3  and  C_4
REMARK    4  A    between atoms: C_4  and  N_5
REMARK    5  A    between atoms: C_19  and  C_23
REMARK    6  A    between atoms: C_25  and  N_32
REMARK    7  A    between atoms: C_26  and  C_27
REMARK    8  A    between atoms: C_27  and  O_29
REMARK    9  A    between atoms: O_29  and  C_30
REMARK   10  A    between atoms: C_30  and  C_31
REMARK                            x       y       z     vdW  Elec       q    Type
REMARK                         _______ _______ _______ _____ _____    ______ ____
ROOT
ATOM      1  N   UNL     1       1.173  -2.604  -2.744  0.00  0.00    -0.270 N 
ATOM      2  C   UNL     1       0.655  -2.941  -3.982  0.00  0.00    +0.041 A 
ATOM      3  C   UNL     1      -0.668  -2.921  -4.423  0.00  0.00    +0.024 A 
ATOM      4  C   UNL     1      -0.907  -3.315  -5.731  0.00  0.00    +0.002 A 
ATOM      5  C   UNL     1       0.113  -3.714  -6.571  0.00  0.00    +0.000 A 
ATOM      6  C   UNL     1       1.436  -3.740  -6.142  0.00  0.00    +0.007 A 
ATOM      7  C   UNL     1       1.681  -3.349  -4.844  0.00  0.00    -0.005 A 
ATOM      8  C   UNL     1       2.950  -3.254  -4.058  0.00  0.00    +0.128 C 
ATOM      9  C   UNL     1       2.514  -2.750  -2.699  0.00  0.00    +0.236 C 
ATOM     10  O   UNL     1       3.233  -2.524  -1.748  0.00  0.00    -0.274 OA
ATOM     11  C   UNL     1       3.913  -2.250  -4.694  0.00  0.00    +0.167 C 
ATOM     12  C   UNL     1       4.644  -2.957  -5.811  0.00  0.00    +0.122 C 
ATOM     13  C   UNL     1       4.620  -2.490  -7.072  0.00  0.00    +0.063 C 
ATOM     14  C   UNL     1       3.893  -1.341  -7.399  0.00  0.00    +0.034 C 
ATOM     15  N   UNL     1       3.203  -0.690  -6.489  0.00  0.00    -0.185 NA
ATOM     16  C   UNL     1       3.158  -1.070  -5.224  0.00  0.00    +0.248 C 
ATOM     17  O   UNL     1       2.471  -0.427  -4.455  0.00  0.00    -0.273 OA
ATOM     18  C   UNL     1       3.900  -0.840  -8.821  0.00  0.00    +0.063 C 
ATOM     19  O   UNL     1       5.315  -4.088  -5.498  0.00  0.00    -0.445 OA
ATOM     20  C   UNL     1       4.715  -4.938  -4.638  0.00  0.00    +0.195 C 
ATOM     21  C   UNL     1       3.611  -4.596  -3.929  0.00  0.00    +0.114 C 
ENDROOT
BRANCH  20  22
ATOM     22  N   UNL     1       5.240  -6.191  -4.474  0.00  0.00    -0.329 N 
ATOM     23  H   UNL     1       5.979  -6.484  -5.031  0.00  0.00    +0.145 HD
ATOM     24  H   UNL     1       4.874  -6.787  -3.802  0.00  0.00    +0.145 HD
ENDBRANCH  20  22
BRANCH  21  25
ATOM     25  C   UNL     1       3.065  -5.534  -3.038  0.00  0.00    +0.341 C 
ATOM     26  O   UNL     1       2.083  -6.179  -3.360  0.00  0.00    -0.245 OA
BRANCH  25  27
ATOM     27  O   UNL     1       3.628  -5.720  -1.825  0.00  0.00    -0.462 OA
BRANCH  27  28
ATOM     28  C   UNL     1       3.019  -6.690  -0.970  0.00  0.00    +0.229 C 
ATOM     29  C   UNL     1       3.790  -6.761   0.350  0.00  0.00    +0.048 C 
ENDBRANCH  27  28
ENDBRANCH  25  27
ENDBRANCH  21  25
BRANCH   1  30
ATOM     30  C   UNL     1       0.362  -2.137  -1.617  0.00  0.00    +0.114 C 
BRANCH  30  31
ATOM     31  C   UNL     1       0.244  -0.613  -1.671  0.00  0.00    +0.019 C 
BRANCH  31  33
ATOM     32  C   UNL     1      -0.722   1.400  -0.547  0.00  0.00    +0.004 C 
ATOM     33  C   UNL     1      -0.603  -0.125  -0.493  0.00  0.00    -0.002 C 
ENDBRANCH  31  33
ENDBRANCH  30  31
ENDBRANCH   1  30
TORSDOF 7
