REMARK  Name = ZINC21824163
REMARK  10 active torsions:
REMARK  status: ('A' for Active; 'I' for Inactive)
REMARK    1  A    between atoms: C_1  and  C_2
REMARK    2  A    between atoms: C_2  and  C_4
REMARK    3  A    between atoms: C_2  and  S_14
REMARK    4  A    between atoms: N_9  and  C_10
REMARK    5  A    between atoms: C_10  and  C_11
REMARK    6  A    between atoms: C_11  and  O_12
REMARK    7  A    between atoms: O_12  and  C_13
REMARK    8  A    between atoms: S_14  and  C_15
REMARK    9  A    between atoms: C_17  and  C_21
REMARK   10  A    between atoms: N_19  and  N_20
REMARK                            x       y       z     vdW  Elec       q    Type
REMARK                         _______ _______ _______ _____ _____    ______ ____
ROOT
ATOM      1  S   UNL     1       0.147   0.980   2.733  0.00  0.00    -0.074 S 
ENDROOT
BRANCH   1   2
ATOM      2  C   UNL     1       1.675   1.838   2.550  0.00  0.00    +0.187 A 
ATOM      3  N   UNL     1       1.979   2.656   1.571  0.00  0.00    -0.221 NA
ATOM      4  C   UNL     1       3.235   3.130   1.762  0.00  0.00    +0.092 A 
ATOM      5  C   UNL     1       3.722   2.574   2.899  0.00  0.00    +0.138 A 
ATOM      6  N   UNL     1       2.737   1.757   3.398  0.00  0.00    -0.251 N 
BRANCH   4   7
ATOM      7  C   UNL     1       3.952   4.083   0.880  0.00  0.00    +0.002 A 
ATOM      8  C   UNL     1       5.247   4.489   1.195  0.00  0.00    +0.010 A 
ATOM      9  C   UNL     1       5.911   5.372   0.368  0.00  0.00    +0.001 A 
ATOM     10  C   UNL     1       5.290   5.862  -0.766  0.00  0.00    +0.000 A 
ATOM     11  C   UNL     1       4.002   5.467  -1.081  0.00  0.00    +0.001 A 
ATOM     12  C   UNL     1       3.331   4.580  -0.265  0.00  0.00    +0.010 A 
ENDBRANCH   4   7
BRANCH   6  13
ATOM     13  N   UNL     1       2.809   1.003   4.535  0.00  0.00    -0.296 N 
ATOM     14  H   UNL     1       3.724   1.016   5.146  0.00  0.00    +0.163 HD
ATOM     15  H   UNL     1       1.953   0.383   4.839  0.00  0.00    +0.163 HD
ENDBRANCH   6  13
ENDBRANCH   1   2
BRANCH   1  17
ATOM     16  C   UNL     1      -0.013   1.086   0.008  0.00  0.00    +0.029 C 
ATOM     17  C   UNL     1      -0.729   1.579   1.267  0.00  0.00    +0.137 C 
BRANCH  17  18
ATOM     18  C   UNL     1      -2.143   1.058   1.278  0.00  0.00    +0.233 C 
ATOM     19  O   UNL     1      -2.427   0.090   1.950  0.00  0.00    -0.274 OA
ATOM     20  N   UNL     1      -3.091   1.667   0.539  0.00  0.00    -0.239 N 
ATOM     21  C   UNL     1      -4.356   1.201   0.549  0.00  0.00    +0.306 C 
ATOM     22  O   UNL     1      -4.641   0.230   1.223  0.00  0.00    -0.252 OA
ATOM     23  N   UNL     1      -5.305   1.810  -0.189  0.00  0.00    -0.297 N 
ATOM     24  H   UNL     1      -2.834   2.546  -0.071  0.00  0.00    +0.159 HD
ATOM     25  H   UNL     1      -5.047   2.689  -0.799  0.00  0.00    +0.150 HD
BRANCH  23  26
ATOM     26  C   UNL     1      -6.679   1.303  -0.178  0.00  0.00    +0.133 C 
BRANCH  26  27
ATOM     27  C   UNL     1      -7.549   2.168  -1.093  0.00  0.00    +0.178 C 
BRANCH  27  28
ATOM     28  O   UNL     1      -7.105   2.029  -2.444  0.00  0.00    -0.381 OA
ATOM     29  C   UNL     1      -7.855   2.801  -3.385  0.00  0.00    +0.194 C 
ENDBRANCH  27  28
ENDBRANCH  26  27
ENDBRANCH  23  26
ENDBRANCH  17  18
ENDBRANCH   1  17
TORSDOF 8
