REMARK  Name = ZINC01241865
REMARK  5 active torsions:
REMARK  status: ('A' for Active; 'I' for Inactive)
REMARK    1  A    between atoms: C_1  and  C_2
REMARK    2  A    between atoms: C_2  and  C_9
REMARK    3  A    between atoms: C_3  and  C_4
REMARK    4  A    between atoms: N_10  and  N_11
REMARK    5  A    between atoms: C_12  and  C_18
REMARK                            x       y       z     vdW  Elec       q    Type
REMARK                         _______ _______ _______ _____ _____    ______ ____
ROOT
ATOM      1  N   UNL     1       0.617  -1.110  -0.119  0.00  0.00    -0.192 N 
ATOM      2  C   UNL     1       1.725  -1.923  -0.097  0.00  0.00    +0.156 A 
ATOM      3  N   UNL     1       2.786  -1.183  -0.156  0.00  0.00    -0.156 NA
ATOM      4  N   UNL     1       2.381   0.158  -0.219  0.00  0.00    -0.253 N 
ATOM      5  H   UNL     1       2.962   0.932  -0.271  0.00  0.00    +0.191 HD
ATOM      6  C   UNL     1       1.032   0.170  -0.195  0.00  0.00    +0.196 A 
ATOM      7  S   UNL     1       0.030   1.558  -0.256  0.00  0.00    -0.010 S 
ENDROOT
BRANCH   2   8
ATOM      8  C   UNL     1       1.708  -3.427  -0.017  0.00  0.00    +0.059 C 
ATOM      9  C   UNL     1       2.447  -3.880   1.244  0.00  0.00    +0.011 C 
ATOM     10  C   UNL     1       2.429  -5.407   1.325  0.00  0.00    +0.001 C 
ATOM     11  C   UNL     1       3.121  -5.991   0.092  0.00  0.00    +0.000 C 
ATOM     12  C   UNL     1       2.383  -5.539  -1.169  0.00  0.00    +0.001 C 
ATOM     13  C   UNL     1       2.400  -4.011  -1.250  0.00  0.00    +0.011 C 
ENDBRANCH   2   8
BRANCH   1  15
ATOM     14  C   UNL     1      -1.357  -1.799  -1.177  0.00  0.00    +0.136 C 
ATOM     15  N   UNL     1      -0.716  -1.539  -0.072  0.00  0.00    -0.171 NA
BRANCH  14  17
ATOM     16  C   UNL     1      -3.352  -2.527   0.198  0.00  0.00    +0.045 C 
ATOM     17  C   UNL     1      -2.703  -2.232  -1.129  0.00  0.00    -0.027 C 
ATOM     18  C   UNL     1      -3.407  -2.382  -2.276  0.00  0.00    +0.051 C 
BRANCH  18  19
ATOM     19  C   UNL     1      -2.836  -1.942  -3.548  0.00  0.00    +0.128 A 
ATOM     20  C   UNL     1      -3.400  -2.107  -4.783  0.00  0.00    +0.049 A 
ATOM     21  C   UNL     1      -2.513  -1.537  -5.712  0.00  0.00    +0.042 A 
ATOM     22  C   UNL     1      -1.462  -1.057  -5.014  0.00  0.00    +0.195 A 
ATOM     23  O   UNL     1      -1.662  -1.297  -3.709  0.00  0.00    -0.464 OA
ENDBRANCH  18  19
ENDBRANCH  14  17
ENDBRANCH   1  15
TORSDOF 4
