REMARK  Name = ZINC13552077
REMARK  7 active torsions:
REMARK  status: ('A' for Active; 'I' for Inactive)
REMARK    1  A    between atoms: C_1  and  C_2
REMARK    2  A    between atoms: C_8  and  C_28
REMARK    3  A    between atoms: C_11  and  C_12
REMARK    4  A    between atoms: C_11  and  O_23
REMARK    5  A    between atoms: C_13  and  C_22
REMARK    6  A    between atoms: C_14  and  C_19
REMARK    7  A    between atoms: C_17  and  C_18
REMARK                            x       y       z     vdW  Elec       q    Type
REMARK                         _______ _______ _______ _____ _____    ______ ____
ROOT
ATOM      1  C   UNL     1       1.415  -3.384   0.090  0.00  0.00    +0.089 C 
ATOM      2  C   UNL     1       0.637  -2.094   0.038  0.00  0.00    +0.136 A 
ATOM      3  C   UNL     1       1.147  -0.842   0.080  0.00  0.00    +0.091 A 
ATOM      4  C   UNL     1       0.002  -0.004   0.002  0.00  0.00    +0.172 A 
ATOM      5  N   UNL     1      -1.030  -0.803  -0.084  0.00  0.00    -0.063 NA
ATOM      6  O   UNL     1      -0.693  -1.964  -0.065  0.00  0.00    -0.358 OA
ATOM      7  N   UNL     1      -0.017   1.390   0.010  0.00  0.00    -0.234 N 
ATOM      8  C   UNL     1       1.164   2.258   0.003  0.00  0.00    +0.158 C 
ATOM      9  C   UNL     1       0.655   3.680   0.016  0.00  0.00    +0.072 C 
ATOM     10  C   UNL     1       1.416   4.836   0.015  0.00  0.00    +0.135 C 
ATOM     11  C   UNL     1      -0.744   3.594   0.029  0.00  0.00    +0.250 C 
ATOM     12  O   UNL     1      -1.517   4.535   0.041  0.00  0.00    -0.282 OA
ATOM     13  C   UNL     1      -1.121   2.156   0.018  0.00  0.00    +0.293 C 
ATOM     14  O   UNL     1      -2.260   1.735   0.021  0.00  0.00    -0.266 OA
ENDROOT
BRANCH  10  15
ATOM     15  C   UNL     1       0.757   6.149   0.028  0.00  0.00    +0.041 A 
ATOM     16  C   UNL     1       0.733   7.067   1.104  0.00  0.00    -0.010 A 
ATOM     17  C   UNL     1       0.018   8.151   0.688  0.00  0.00    +0.105 A 
ATOM     18  N   UNL     1      -0.403   7.923  -0.605  0.00  0.00    -0.354 N 
ATOM     19  H   UNL     1      -0.934   8.535  -1.138  0.00  0.00    +0.166 HD
ATOM     20  C   UNL     1       0.037   6.721  -1.009  0.00  0.00    +0.024 A 
ATOM     21  C   UNL     1      -0.210   6.099  -2.359  0.00  0.00    +0.064 C 
ATOM     22  C   UNL     1       1.378   6.884   2.454  0.00  0.00    +0.047 C 
BRANCH  17  23
ATOM     23  C   UNL     1      -0.260   9.354   1.483  0.00  0.00    +0.258 C 
ATOM     24  O   UNL     1       0.167   9.444   2.619  0.00  0.00    -0.269 OA
ATOM     25  N   UNL     1      -0.988  10.357   0.954  0.00  0.00    -0.324 N 
ATOM     26  H   UNL     1      -1.327  10.285   0.049  0.00  0.00    +0.145 HD
ATOM     27  H   UNL     1      -1.171  11.152   1.479  0.00  0.00    +0.145 HD
ENDBRANCH  17  23
ENDBRANCH  10  15
BRANCH   8  28
ATOM     28  C   UNL     1       2.002   1.999   1.229  0.00  0.00    +0.015 A 
ATOM     29  C   UNL     1       3.352   1.964   1.348  0.00  0.00    +0.013 A 
ATOM     30  C   UNL     1       3.909   1.705   2.586  0.00  0.00    +0.008 A 
ATOM     31  C   UNL     1       3.089   1.494   3.645  0.00  0.00    +0.045 A 
ATOM     32  S   UNL     1       1.475   1.667   2.901  0.00  0.00    -0.099 S 
ENDBRANCH   8  28
BRANCH  10  33
ATOM     33  O   UNL     1       2.763   4.756   0.002  0.00  0.00    -0.506 OA
ATOM     34  H   UNL     1       3.152   5.678   0.004  0.00  0.00    +0.292 HD
ENDBRANCH  10  33
TORSDOF 4
