REMARK  Name = ZINC31216604
REMARK  7 active torsions:
REMARK  status: ('A' for Active; 'I' for Inactive)
REMARK    1  A    between atoms: C_1  and  C_2
REMARK    2  A    between atoms: N_10  and  C_13
REMARK    3  A    between atoms: C_13  and  C_14
REMARK    4  A    between atoms: C_14  and  C_15
REMARK    5  A    between atoms: N_17  and  C_18
REMARK    6  A    between atoms: C_25  and  C_30
REMARK    7  A    between atoms: C_27  and  C_29
REMARK                            x       y       z     vdW  Elec       q    Type
REMARK                         _______ _______ _______ _____ _____    ______ ____
ROOT
ATOM      1  C   UNL     1      -3.142   2.901   1.479  0.00  0.00    +0.219 C 
ATOM      2  O   UNL     1      -3.756   3.080   0.448  0.00  0.00    -0.275 OA
ATOM      3  N   UNL     1      -3.642   3.350   2.647  0.00  0.00    -0.284 N 
ATOM      4  H   UNL     1      -3.130   3.113   3.591  0.00  0.00    +0.155 HD
ENDROOT
BRANCH   3   5
ATOM      5  C   UNL     1      -4.813   4.117   2.659  0.00  0.00    +0.052 A 
ATOM      6  C   UNL     1      -5.103   4.979   1.603  0.00  0.00    +0.028 A 
ATOM      7  C   UNL     1      -6.273   5.714   1.655  0.00  0.00    +0.050 A 
ATOM      8  C   UNL     1      -7.111   5.577   2.756  0.00  0.00    +0.154 A 
ATOM      9  N   UNL     1      -6.802   4.753   3.743  0.00  0.00    -0.234 NA
ATOM     10  C   UNL     1      -5.697   4.034   3.726  0.00  0.00    +0.136 A 
ATOM     11  N   UNL     1      -8.295   6.320   2.820  0.00  0.00    -0.219 N 
ATOM     12  C   UNL     1      -9.409   5.990   3.522  0.00  0.00    +0.044 A 
ATOM     13  C   UNL     1     -10.324   6.966   3.321  0.00  0.00    +0.048 A 
ATOM     14  C   UNL     1      -9.755   7.923   2.473  0.00  0.00    +0.061 A 
ATOM     15  N   UNL     1      -8.540   7.540   2.177  0.00  0.00    -0.170 NA
ATOM     16  C   UNL     1     -10.426   9.182   1.988  0.00  0.00    +0.067 C 
ATOM     17  C   UNL     1      -9.594   4.758   4.370  0.00  0.00    +0.066 C 
ENDBRANCH   3   5
BRANCH   1  18
ATOM     18  C   UNL     1      -1.820   2.177   1.453  0.00  0.00    +0.118 C 
BRANCH  18  19
ATOM     19  C   UNL     1      -1.486   1.778   0.014  0.00  0.00    +0.135 C 
BRANCH  19  29
ATOM     20  C   UNL     1       3.267  -2.629   0.098  0.00  0.00    +0.046 C 
ATOM     21  C   UNL     1       3.317  -1.132  -0.068  0.00  0.00    -0.024 A 
ATOM     22  C   UNL     1       4.525  -0.495  -0.238  0.00  0.00    +0.005 A 
ATOM     23  C   UNL     1       4.587   0.884  -0.391  0.00  0.00    +0.001 A 
ATOM     24  C   UNL     1       3.437   1.643  -0.377  0.00  0.00    +0.015 A 
ATOM     25  C   UNL     1       2.204   1.017  -0.206  0.00  0.00    +0.065 A 
ATOM     26  C   UNL     1       2.137  -0.385  -0.050  0.00  0.00    +0.081 A 
ATOM     27  N   UNL     1       0.925  -0.972   0.115  0.00  0.00    -0.237 NA
ATOM     28  C   UNL     1      -0.171  -0.277   0.132  0.00  0.00    +0.202 A 
ATOM     29  N   UNL     1      -0.201   1.074  -0.011  0.00  0.00    -0.298 N 
ATOM     30  C   UNL     1       0.944   1.775  -0.183  0.00  0.00    +0.262 A 
ATOM     31  O   UNL     1       0.931   2.985  -0.312  0.00  0.00    -0.267 OA
ENDBRANCH  19  29
ENDBRANCH  18  19
ENDBRANCH   1  18
TORSDOF 4
