REMARK  Name = ZINC39920501
REMARK  8 active torsions:
REMARK  status: ('A' for Active; 'I' for Inactive)
REMARK    1  A    between atoms: C_1  and  C_2
REMARK    2  A    between atoms: C_2  and  C_4
REMARK    3  A    between atoms: C_2  and  O_23
REMARK    4  A    between atoms: N_6  and  N_7
REMARK    5  A    between atoms: C_8  and  C_20
REMARK    6  A    between atoms: C_20  and  C_21
REMARK    7  A    between atoms: C_20  and  C_22
REMARK    8  A    between atoms: O_23  and  C_24
REMARK                            x       y       z     vdW  Elec       q    Type
REMARK                         _______ _______ _______ _____ _____    ______ ____
ROOT
ATOM      1  N   UNL     1       1.496  -0.746  -3.256  0.00  0.00    -0.195 N 
ATOM      2  C   UNL     1       2.083  -2.018  -3.677  0.00  0.00    +0.183 C 
ATOM      3  N   UNL     1       2.927  -1.821  -4.862  0.00  0.00    -0.324 N 
ATOM      4  C   UNL     1       2.446  -1.024  -5.894  0.00  0.00    +0.041 A 
ATOM      5  C   UNL     1       2.811  -1.234  -7.213  0.00  0.00    +0.025 A 
ATOM      6  C   UNL     1       2.302  -0.414  -8.202  0.00  0.00    +0.017 A 
ATOM      7  C   UNL     1       1.429   0.616  -7.885  0.00  0.00    +0.019 A 
ATOM      8  C   UNL     1       1.057   0.840  -6.574  0.00  0.00    +0.030 A 
ATOM      9  C   UNL     1       1.564   0.021  -5.568  0.00  0.00    +0.060 A 
ATOM     10  C   UNL     1       1.202   0.219  -4.152  0.00  0.00    +0.266 C 
ATOM     11  O   UNL     1       0.648   1.242  -3.796  0.00  0.00    -0.268 OA
ATOM     12 BR   UNL     1       0.746   1.723  -9.256  0.00  0.00    -0.050 Br
ATOM     13  H   UNL     1       3.800  -2.239  -4.923  0.00  0.00    +0.148 HD
ENDROOT
BRANCH   1  16
ATOM     14  C   UNL     1      -0.041  -0.571  -1.446  0.00  0.00    +0.270 C 
ATOM     15  O   UNL     1      -0.941  -0.888  -2.195  0.00  0.00    -0.270 OA
ATOM     16  N   UNL     1       1.228  -0.527  -1.898  0.00  0.00    -0.227 N 
ATOM     17  H   UNL     1       1.956  -0.345  -1.284  0.00  0.00    +0.173 HD
BRANCH  14  19
ATOM     18  C   UNL     1      -0.013   1.248   0.239  0.00  0.00    +0.062 C 
ATOM     19  C   UNL     1      -0.342  -0.225  -0.010  0.00  0.00    +0.257 C 
BRANCH  19  20
ATOM     20  O   UNL     1      -1.727  -0.456   0.255  0.00  0.00    -0.480 OA
BRANCH  20  21
ATOM     21  C   UNL     1      -2.069  -0.744   1.539  0.00  0.00    +0.122 A 
ATOM     22  C   UNL     1      -3.375  -1.096   1.847  0.00  0.00    +0.045 A 
ATOM     23  C   UNL     1      -3.720  -1.389   3.152  0.00  0.00    +0.004 A 
ATOM     24  C   UNL     1      -2.766  -1.330   4.151  0.00  0.00    +0.000 A 
ATOM     25  C   UNL     1      -1.464  -0.978   3.846  0.00  0.00    +0.004 A 
ATOM     26  C   UNL     1      -1.112  -0.691   2.542  0.00  0.00    +0.045 A 
ENDBRANCH  20  21
ENDBRANCH  19  20
ENDBRANCH  14  19
ENDBRANCH   1  16
BRANCH   2  27
ATOM     27  C   UNL     1       0.964  -3.005  -4.014  0.00  0.00    +0.023 C 
ATOM     28  C   UNL     1       0.033  -2.384  -5.057  0.00  0.00    +0.011 C 
ATOM     29  C   UNL     1       1.572  -4.293  -4.574  0.00  0.00    +0.011 C 
ENDBRANCH   2  27
TORSDOF 5
