REMARK  Name = ZINC40371415
REMARK  5 active torsions:
REMARK  status: ('A' for Active; 'I' for Inactive)
REMARK    1  A    between atoms: C_1  and  N_2
REMARK    2  A    between atoms: C_5  and  C_8
REMARK    3  A    between atoms: C_5  and  N_12
REMARK    4  A    between atoms: N_9  and  O_10
REMARK    5  A    between atoms: C_13  and  C_15
REMARK                            x       y       z     vdW  Elec       q    Type
REMARK                         _______ _______ _______ _____ _____    ______ ____
ROOT
ATOM      1  C   UNL     1       0.306   1.288  -0.322  0.00  0.00    -0.096 C 
ATOM      2  N   UNL     1       0.196  -0.172  -0.209  0.00  0.00    +0.378 N 
ATOM      3  C   UNL     1      -1.221  -0.551  -0.146  0.00  0.00    -0.077 C 
ATOM      4  C   UNL     1      -1.344  -2.076  -0.110  0.00  0.00    +0.015 C 
ATOM      5  C   UNL     1      -0.615  -2.612   1.126  0.00  0.00    +0.090 C 
ATOM      6  C   UNL     1       0.844  -2.148   1.087  0.00  0.00    +0.015 C 
ATOM      7  C   UNL     1       0.885  -0.621   1.006  0.00  0.00    -0.077 C 
ATOM      8  H   UNL     1       0.622  -0.604  -1.015  0.00  0.00    -0.082 HD
ENDROOT
BRANCH   5   9
ATOM      9  C   UNL     1      -0.665  -4.119   1.126  0.00  0.00    +0.155 C 
ATOM     10  N   UNL     1      -1.251  -4.746   0.160  0.00  0.00    -0.075 NA
ATOM     11  N   UNL     1      -0.087  -4.826   2.157  0.00  0.00    -0.342 N 
ATOM     12  H   UNL     1       0.287  -4.356   2.918  0.00  0.00    +0.144 HD
ATOM     13  H   UNL     1      -0.055  -5.795   2.121  0.00  0.00    +0.144 HD
BRANCH  10  14
ATOM     14  O   UNL     1      -1.298  -6.161   0.161  0.00  0.00    -0.408 OA
ATOM     15  H   UNL     1      -1.756  -6.539  -0.602  0.00  0.00    +0.328 HD
ENDBRANCH  10  14
ENDBRANCH   5   9
BRANCH   5  16
ATOM     16  N   UNL     1      -1.261  -2.099   2.337  0.00  0.00    -0.297 N 
ATOM     17  C   UNL     1      -2.522  -2.467   2.636  0.00  0.00    +0.280 C 
ATOM     18  O   UNL     1      -3.157  -3.154   1.857  0.00  0.00    -0.267 OA
ATOM     19  H   UNL     1      -0.780  -1.494   2.923  0.00  0.00    +0.150 HD
BRANCH  17  20
ATOM     20  C   UNL     1      -3.130  -2.040   3.899  0.00  0.00    +0.191 A 
ATOM     21  C   UNL     1      -4.391  -2.346   4.327  0.00  0.00    +0.056 A 
ATOM     22  C   UNL     1      -4.552  -1.735   5.579  0.00  0.00    +0.058 A 
ATOM     23  C   UNL     1      -3.396  -1.090   5.859  0.00  0.00    +0.171 A 
ATOM     24  O   UNL     1      -2.540  -1.282   4.847  0.00  0.00    -0.444 OA
ATOM     25 BR   UNL     1      -3.044  -0.090   7.425  0.00  0.00    -0.008 Br
ENDBRANCH  17  20
ENDBRANCH   5  16
TORSDOF 4
