REMARK  Name = ZINC34779611
REMARK  9 active torsions:
REMARK  status: ('A' for Active; 'I' for Inactive)
REMARK    1  A    between atoms: C_1  and  C_2
REMARK    2  A    between atoms: C_2  and  C_3
REMARK    3  A    between atoms: C_3  and  C_4
REMARK    4  A    between atoms: C_4  and  N_5
REMARK    5  A    between atoms: C_9  and  C_28
REMARK    6  A    between atoms: C_10  and  C_24
REMARK    7  A    between atoms: N_13  and  C_16
REMARK    8  A    between atoms: C_16  and  C_17
REMARK    9  A    between atoms: N_26  and  N_27
REMARK                            x       y       z     vdW  Elec       q    Type
REMARK                         _______ _______ _______ _____ _____    ______ ____
ROOT
ATOM      1  N   UNL     1       1.395  -2.569  -2.522  0.00  0.00    -0.260 N 
ATOM      2  C   UNL     1       0.707  -2.750  -3.663  0.00  0.00    +0.265 A 
ATOM      3  O   UNL     1      -0.495  -2.567  -3.694  0.00  0.00    -0.267 OA
ATOM      4  C   UNL     1       1.433  -3.176  -4.885  0.00  0.00    +0.074 A 
ATOM      5  C   UNL     1       0.921  -3.420  -6.166  0.00  0.00    -0.017 A 
ATOM      6  C   UNL     1       1.810  -3.805  -7.128  0.00  0.00    +0.081 A 
ATOM      7  S   UNL     1       3.358  -3.826  -6.247  0.00  0.00    -0.065 S 
ATOM      8  C   UNL     1       2.816  -3.357  -4.737  0.00  0.00    +0.098 A 
ATOM      9  N   UNL     1       3.430  -3.149  -3.534  0.00  0.00    -0.283 N 
ATOM     10  C   UNL     1       2.723  -2.757  -2.458  0.00  0.00    +0.333 A 
ATOM     11  O   UNL     1       3.298  -2.575  -1.403  0.00  0.00    -0.246 OA
ATOM     12  C   UNL     1      -0.547  -3.265  -6.468  0.00  0.00    +0.046 C 
ENDROOT
BRANCH   6  13
ATOM     13  C   UNL     1       1.554  -4.122  -8.535  0.00  0.00    +0.264 C 
ATOM     14  O   UNL     1       0.422  -4.056  -8.977  0.00  0.00    -0.268 OA
ATOM     15  N   UNL     1       2.571  -4.487  -9.339  0.00  0.00    -0.249 N 
ATOM     16  H   UNL     1       3.474  -4.540  -8.987  0.00  0.00    +0.169 HD
BRANCH  15  17
ATOM     17  N   UNL     1       2.333  -4.783 -10.651  0.00  0.00    -0.254 NA
ATOM     18  H   UNL     1       1.876  -4.014 -11.118  0.00  0.00    +0.140 HD
ATOM     19  H   UNL     1       3.186  -5.038 -11.126  0.00  0.00    +0.140 HD
ENDBRANCH  15  17
ENDBRANCH   6  13
BRANCH   1  20
ATOM     20  C   UNL     1       0.676  -2.148  -1.317  0.00  0.00    +0.130 C 
BRANCH  20  21
ATOM     21  C   UNL     1       0.639  -0.620  -1.252  0.00  0.00    +0.022 C 
BRANCH  21  23
ATOM     22  C   UNL     1      -0.148   1.347   0.071  0.00  0.00    +0.004 C 
ATOM     23  C   UNL     1      -0.111  -0.181   0.007  0.00  0.00    -0.002 C 
ENDBRANCH  21  23
ENDBRANCH  20  21
ENDBRANCH   1  20
BRANCH   9  24
ATOM     24  C   UNL     1       4.877  -3.347  -3.417  0.00  0.00    +0.164 C 
BRANCH  24  25
ATOM     25  C   UNL     1       5.594  -2.115  -3.903  0.00  0.00    -0.009 A 
ATOM     26  C   UNL     1       6.016  -2.034  -5.217  0.00  0.00    +0.007 A 
ATOM     27  C   UNL     1       6.675  -0.904  -5.664  0.00  0.00    +0.000 A 
ATOM     28  C   UNL     1       6.912   0.147  -4.797  0.00  0.00    +0.001 A 
ATOM     29  C   UNL     1       6.490   0.067  -3.483  0.00  0.00    +0.020 A 
ATOM     30  C   UNL     1       5.826  -1.062  -3.037  0.00  0.00    +0.046 A 
ATOM     31 CL   UNL     1       5.291  -1.160  -1.388  0.00  0.00    -0.083 Cl
ENDBRANCH  24  25
ENDBRANCH   9  24
TORSDOF 7
