REMARK  Name = ZINC40516900
REMARK  1 active torsions:
REMARK  status: ('A' for Active; 'I' for Inactive)
REMARK    1  A    between atoms: C_3  and  N_8
REMARK                            x       y       z     vdW  Elec       q    Type
REMARK                         _______ _______ _______ _____ _____    ______ ____
ROOT
ATOM      1  N   UNL     1       3.600   2.003  -0.022  0.00  0.00    -0.200 N 
ATOM      2  C   UNL     1       4.826   1.444  -0.042  0.00  0.00    +0.228 A 
ATOM      3  N   UNL     1       5.713   2.406  -0.043  0.00  0.00    -0.202 NA
ATOM      4  C   UNL     1       5.095   3.592  -0.024  0.00  0.00    +0.232 A 
ATOM      5  N   UNL     1       3.797   3.394  -0.017  0.00  0.00    -0.128 NA
ATOM      6  N   UNL     1       5.726   4.836  -0.019  0.00  0.00    -0.326 N 
ATOM      7  H   UNL     1       6.694   4.889  -0.030  0.00  0.00    +0.145 HD
ATOM      8  H   UNL     1       5.196   5.649  -0.004  0.00  0.00    +0.145 HD
ENDROOT
BRANCH   1  11
ATOM      9  C   UNL     1      -0.017   1.384   0.010  0.00  0.00    +0.020 A 
ATOM     10  C   UNL     1       1.191   2.061   0.002  0.00  0.00    +0.049 A 
ATOM     11  C   UNL     1       2.374   1.332  -0.013  0.00  0.00    +0.156 A 
ATOM     12  N   UNL     1       2.351   0.009  -0.021  0.00  0.00    -0.235 NA
ATOM     13  C   UNL     1       1.217  -0.664  -0.014  0.00  0.00    +0.128 A 
ATOM     14  C   UNL     1       0.002  -0.004   0.002  0.00  0.00    +0.036 A 
ATOM     15 BR   UNL     1      -1.616  -0.982   0.012  0.00  0.00    -0.049 Br
ENDBRANCH   1  11
TORSDOF 1
