REMARK  Name = ZINC05646867
REMARK  3 active torsions:
REMARK  status: ('A' for Active; 'I' for Inactive)
REMARK    1  A    between atoms: C_4  and  C_7
REMARK    2  A    between atoms: N_9  and  N_13
REMARK    3  A    between atoms: C_14  and  C_15
REMARK                            x       y       z     vdW  Elec       q    Type
REMARK                         _______ _______ _______ _____ _____    ______ ____
ROOT
ATOM      1  C   UNL     1      -0.016   1.353   0.009  0.00  0.00    +0.093 A 
ATOM      2  C   UNL     1       1.269   1.789  -0.000  0.00  0.00    +0.144 A 
ATOM      3  N   UNL     1       2.069   0.671  -0.014  0.00  0.00    -0.207 N 
ATOM      4  C   UNL     1       1.246  -0.417  -0.012  0.00  0.00    +0.214 A 
ATOM      5  N   UNL     1       0.002  -0.004   0.002  0.00  0.00    -0.213 NA
ATOM      6  N   UNL     1       1.657  -1.739  -0.023  0.00  0.00    -0.327 N 
ATOM      7  H   UNL     1       0.999  -2.452  -0.020  0.00  0.00    +0.145 HD
ATOM      8  H   UNL     1       2.603  -1.953  -0.033  0.00  0.00    +0.145 HD
ENDROOT
BRANCH   1  12
ATOM      9  C   UNL     1      -3.489   3.806   0.040  0.00  0.00    +0.000 A 
ATOM     10  C   UNL     1      -3.618   2.428   0.034  0.00  0.00    +0.001 A 
ATOM     11  C   UNL     1      -2.495   1.627   0.024  0.00  0.00    +0.010 A 
ATOM     12  C   UNL     1      -1.228   2.208   0.020  0.00  0.00    +0.002 A 
ATOM     13  C   UNL     1      -1.103   3.597   0.032  0.00  0.00    +0.010 A 
ATOM     14  C   UNL     1      -2.234   4.388   0.036  0.00  0.00    +0.001 A 
ENDBRANCH   1  12
BRANCH   3  15
ATOM     15  N   UNL     1       3.470   0.654  -0.027  0.00  0.00    -0.172 NA
ATOM     16  C   UNL     1       4.137   1.503   0.693  0.00  0.00    +0.141 C 
BRANCH  16  17
ATOM     17  C   UNL     1       5.611   1.484   0.679  0.00  0.00    -0.005 A 
ATOM     18  C   UNL     1       6.293   0.549  -0.104  0.00  0.00    +0.011 A 
ATOM     19  C   UNL     1       7.672   0.541  -0.116  0.00  0.00    +0.020 A 
ATOM     20  C   UNL     1       8.381   1.448   0.653  0.00  0.00    +0.041 A 
ATOM     21  C   UNL     1       7.710   2.374   1.436  0.00  0.00    +0.020 A 
ATOM     22  C   UNL     1       6.332   2.397   1.454  0.00  0.00    +0.011 A 
ATOM     23 CL   UNL     1      10.116   1.426   0.637  0.00  0.00    -0.084 Cl
ENDBRANCH  16  17
ENDBRANCH   3  15
TORSDOF 3
