REMARK  Name = ZINC39656081
REMARK  8 active torsions:
REMARK  status: ('A' for Active; 'I' for Inactive)
REMARK    1  A    between atoms: C_1  and  C_2
REMARK    2  A    between atoms: C_8  and  C_11
REMARK    3  A    between atoms: C_11  and  C_12
REMARK    4  A    between atoms: C_12  and  N_13
REMARK    5  A    between atoms: C_14  and  C_16
REMARK    6  A    between atoms: C_27  and  C_29
REMARK    7  A    between atoms: C_33  and  O_34
REMARK    8  A    between atoms: O_34  and  C_35
REMARK                            x       y       z     vdW  Elec       q    Type
REMARK                         _______ _______ _______ _____ _____    ______ ____
ROOT
ATOM      1  C   UNL     1       4.606  -0.111  -7.506  0.00  0.00    +0.100 C 
ATOM      2  C   UNL     1       4.715   0.720  -8.805  0.00  0.00    +0.121 C 
ATOM      3  N   UNL     1       5.631  -0.059  -9.671  0.00  0.00    -0.296 N 
ATOM      4  C   UNL     1       5.248  -1.472  -9.438  0.00  0.00    +0.115 C 
ATOM      5  C   UNL     1       4.956  -1.548  -7.926  0.00  0.00    -0.004 C 
ATOM      6  C   UNL     1       3.775  -2.478  -7.664  0.00  0.00    -0.010 C 
ATOM      7  C   UNL     1       4.167  -3.911  -8.035  0.00  0.00    -0.082 C 
ATOM      8  N   UNL     1       5.327  -4.325  -7.237  0.00  0.00    +0.379 N 
ATOM      9  C   UNL     1       6.485  -3.484  -7.564  0.00  0.00    -0.082 C 
ATOM     10  C   UNL     1       6.192  -2.033  -7.174  0.00  0.00    -0.010 C 
ATOM     11  C   UNL     1       6.596   0.412 -10.487  0.00  0.00    +0.251 C 
ATOM     12  O   UNL     1       6.859   1.600 -10.496  0.00  0.00    -0.270 OA
ATOM     13  H   UNL     1       5.111  -4.230  -6.256  0.00  0.00    -0.086 HD
ATOM     14  H   UNL     1       5.546  -5.289  -7.439  0.00  0.00    -0.086 HD
ENDROOT
BRANCH  11  15
ATOM     15  C   UNL     1       7.331  -0.510 -11.365  0.00  0.00    +0.087 A 
ATOM     16  C   UNL     1       6.719  -1.605 -11.936  0.00  0.00    +0.063 A 
ATOM     17  S   UNL     1       7.933  -2.337 -12.833  0.00  0.00    -0.081 S 
ATOM     18  C   UNL     1       9.285  -1.232 -12.490  0.00  0.00    +0.120 A 
ATOM     19  C   UNL     1       8.728  -0.308 -11.675  0.00  0.00    +0.158 A 
ATOM     20 CL   UNL     1      10.920  -1.316 -13.068  0.00  0.00    -0.072 Cl
BRANCH  19  21
ATOM     21  O   UNL     1       9.438   0.741 -11.176  0.00  0.00    -0.492 OA
ATOM     22  C   UNL     1      10.102   0.539  -9.927  0.00  0.00    +0.277 C 
ENDBRANCH  19  21
ENDBRANCH  11  15
BRANCH   1  24
ATOM     23  N   UNL     1       2.972  -0.333  -5.663  0.00  0.00    -0.315 N 
ATOM     24  C   UNL     1       3.203  -0.050  -6.961  0.00  0.00    +0.218 C 
ATOM     25  O   UNL     1       2.282   0.252  -7.689  0.00  0.00    -0.275 OA
ATOM     26  H   UNL     1       3.708  -0.575  -5.081  0.00  0.00    +0.149 HD
BRANCH  23  27
ATOM     27  C   UNL     1       1.607  -0.274  -5.133  0.00  0.00    +0.109 C 
BRANCH  27  28
ATOM     28  C   UNL     1       1.622  -0.635  -3.646  0.00  0.00    +0.056 C 
BRANCH  28  36
ATOM     29  C   UNL     1      -1.925  -5.111  -4.101  0.00  0.00    +0.044 C 
ATOM     30  C   UNL     1      -1.917  -3.708  -3.549  0.00  0.00    -0.050 A 
ATOM     31  C   UNL     1      -3.052  -3.206  -2.928  0.00  0.00    +0.005 A 
ATOM     32  C   UNL     1      -3.066  -1.927  -2.417  0.00  0.00    +0.026 A 
ATOM     33  C   UNL     1      -1.931  -1.129  -2.522  0.00  0.00    +0.047 A 
ATOM     34  N   UNL     1      -1.636   0.155  -2.123  0.00  0.00    -0.360 N 
ATOM     35  C   UNL     1      -0.351   0.468  -2.477  0.00  0.00    +0.087 A 
ATOM     36  C   UNL     1       0.218  -0.575  -3.101  0.00  0.00    -0.021 A 
ATOM     37  C   UNL     1      -0.783  -1.643  -3.151  0.00  0.00    +0.003 A 
ATOM     38  C   UNL     1      -0.789  -2.944  -3.658  0.00  0.00    +0.013 A 
ATOM     39  H   UNL     1      -2.247   0.750  -1.661  0.00  0.00    +0.165 HD
ENDBRANCH  28  36
ENDBRANCH  27  28
ENDBRANCH  23  27
ENDBRANCH   1  24
TORSDOF 6
