REMARK  Name = ZINC05321080
REMARK  12 active torsions:
REMARK  status: ('A' for Active; 'I' for Inactive)
REMARK    1  A    between atoms: C_1  and  C_2
REMARK    2  A    between atoms: C_5  and  O_9
REMARK    3  A    between atoms: C_6  and  C_8
REMARK    4  A    between atoms: O_9  and  C_10
REMARK    5  A    between atoms: C_10  and  C_11
REMARK    6  A    between atoms: C_14  and  S_17
REMARK    7  A    between atoms: N_15  and  N_16
REMARK    8  A    between atoms: S_17  and  C_18
REMARK    9  A    between atoms: C_18  and  C_20
REMARK   10  A    between atoms: C_18  and  C_23
REMARK   11  A    between atoms: C_20  and  C_21
REMARK   12  A    between atoms: C_20  and  C_22
REMARK                            x       y       z     vdW  Elec       q    Type
REMARK                         _______ _______ _______ _____ _____    ______ ____
ROOT
ATOM      1  C   UNL     1      -0.598   3.828   0.462  0.00  0.00    +0.189 A 
ATOM      2  N   UNL     1       0.696   3.729   0.578  0.00  0.00    -0.128 NA
ATOM      3  N   UNL     1       1.063   2.510   0.403  0.00  0.00    -0.121 NA
ATOM      4  C   UNL     1       0.014   1.758   0.164  0.00  0.00    +0.209 A 
ATOM      5  N   UNL     1      -1.079   2.577   0.188  0.00  0.00    -0.225 N 
ENDROOT
BRANCH   5   6
ATOM      6  N   UNL     1      -2.381   2.220  -0.017  0.00  0.00    -0.295 N 
ATOM      7  H   UNL     1      -2.827   1.964   0.852  0.00  0.00    +0.163 HD
ATOM      8  H   UNL     1      -2.890   2.958  -0.480  0.00  0.00    +0.163 HD
ENDBRANCH   5   6
BRANCH   1   9
ATOM      9  C   UNL     1      -1.414   5.088   0.598  0.00  0.00    +0.306 C 
BRANCH   9  10
ATOM     10  O   UNL     1      -1.536   5.716  -0.680  0.00  0.00    -0.484 OA
BRANCH  10  15
ATOM     11  C   UNL     1      -4.483  10.511  -0.899  0.00  0.00    +0.044 C 
ATOM     12  C   UNL     1      -3.694   9.228  -0.841  0.00  0.00    -0.050 A 
ATOM     13  C   UNL     1      -3.539   8.568   0.365  0.00  0.00    +0.007 A 
ATOM     14  C   UNL     1      -2.816   7.392   0.421  0.00  0.00    +0.046 A 
ATOM     15  C   UNL     1      -2.247   6.873  -0.733  0.00  0.00    +0.124 A 
ATOM     16  C   UNL     1      -2.400   7.540  -1.939  0.00  0.00    -0.009 A 
ATOM     17  C   UNL     1      -3.127   8.713  -1.992  0.00  0.00    +0.010 A 
ATOM     18  C   UNL     1      -1.777   6.982  -3.193  0.00  0.00    +0.047 C 
ENDBRANCH  10  15
ENDBRANCH   9  10
ENDBRANCH   1   9
BRANCH   4  19
ATOM     19  S   UNL     1       0.016   0.023  -0.139  0.00  0.00    -0.071 S 
BRANCH  19  20
ATOM     20  C   UNL     1       1.799  -0.290  -0.161  0.00  0.00    +0.143 C 
BRANCH  20  21
ATOM     21  C   UNL     1       2.408   0.356  -1.378  0.00  0.00    +0.234 C 
ATOM     22  O   UNL     1       1.708   0.645  -2.325  0.00  0.00    -0.274 OA
ATOM     23  N   UNL     1       3.731   0.612  -1.415  0.00  0.00    -0.239 N 
ATOM     24  C   UNL     1       4.275   1.190  -2.504  0.00  0.00    +0.303 C 
ATOM     25  O   UNL     1       3.573   1.480  -3.453  0.00  0.00    -0.253 OA
ATOM     26  N   UNL     1       5.598   1.447  -2.540  0.00  0.00    -0.313 N 
ATOM     27  H   UNL     1       4.290   0.381  -0.657  0.00  0.00    +0.159 HD
ATOM     28  H   UNL     1       6.158   1.215  -1.783  0.00  0.00    +0.146 HD
ATOM     29  H   UNL     1       5.990   1.863  -3.324  0.00  0.00    +0.146 HD
ENDBRANCH  20  21
BRANCH  20  30
ATOM     30  C   UNL     1       2.051  -1.799  -0.204  0.00  0.00    +0.005 C 
ATOM     31  C   UNL     1       3.558  -2.063  -0.235  0.00  0.00    +0.009 C 
ATOM     32  C   UNL     1       1.445  -2.453   1.039  0.00  0.00    +0.009 C 
ENDBRANCH  20  30
ENDBRANCH  19  20
ENDBRANCH   4  19
TORSDOF 8
