REMARK  Name = ZINC14749432
REMARK  11 active torsions:
REMARK  status: ('A' for Active; 'I' for Inactive)
REMARK    1  A    between atoms: C_1  and  O_2
REMARK    2  A    between atoms: O_2  and  C_3
REMARK    3  A    between atoms: C_3  and  C_4
REMARK    4  A    between atoms: C_4  and  N_5
REMARK    5  A    between atoms: N_8  and  C_24
REMARK    6  A    between atoms: C_16  and  C_17
REMARK    7  A    between atoms: C_16  and  N_65
REMARK    8  A    between atoms: C_21  and  O_23
REMARK    9  A    between atoms: C_24  and  C_25
REMARK   10  A    between atoms: C_25  and  C_26
REMARK   11  A    between atoms: C_26  and  C_27
REMARK                            x       y       z     vdW  Elec       q    Type
REMARK                         _______ _______ _______ _____ _____    ______ ____
ROOT
ATOM      1  N   UNL     1      -5.742   5.080  -4.748  0.00  0.00    -0.269 N 
ATOM      2  C   UNL     1      -5.378   4.680  -3.515  0.00  0.00    +0.312 C 
ATOM      3  O   UNL     1      -5.664   3.597  -3.044  0.00  0.00    -0.252 OA
ATOM      4  N   UNL     1      -4.665   5.609  -2.867  0.00  0.00    -0.224 N 
ATOM      5  C   UNL     1      -4.496   6.718  -3.616  0.00  0.00    +0.247 C 
ATOM      6  O   UNL     1      -3.902   7.730  -3.307  0.00  0.00    -0.273 OA
ATOM      7  C   UNL     1      -5.199   6.433  -4.922  0.00  0.00    +0.112 C 
ATOM      8  C   UNL     1      -6.326   7.437  -5.147  0.00  0.00    +0.017 C 
ATOM      9  C   UNL     1      -7.007   7.143  -6.487  0.00  0.00    -0.076 C 
ATOM     10  C   UNL     1      -4.962   6.207  -7.394  0.00  0.00    -0.076 C 
ATOM     11  C   UNL     1      -4.212   6.469  -6.085  0.00  0.00    +0.017 C 
ATOM     12  N   UNL     1      -6.001   7.244  -7.567  0.00  0.00    +0.382 N 
ATOM     13  H   UNL     1      -5.558   8.170  -7.523  0.00  0.00    -0.081 HD
ENDROOT
BRANCH   1  14
ATOM     14  C   UNL     1      -6.524   4.316  -5.724  0.00  0.00    +0.138 C 
BRANCH  14  15
ATOM     15  C   UNL     1      -7.923   4.053  -5.162  0.00  0.00    +0.178 C 
BRANCH  15  17
ATOM     16  C   UNL     1      -9.927   5.161  -4.455  0.00  0.00    +0.194 C 
ATOM     17  O   UNL     1      -8.604   5.295  -4.979  0.00  0.00    -0.381 OA
ENDBRANCH  15  17
ENDBRANCH  14  15
ENDBRANCH   1  14
BRANCH  12  18
ATOM     18  C   UNL     1      -6.656   7.088  -8.882  0.00  0.00    -0.043 C 
BRANCH  18  19
ATOM     19  C   UNL     1      -7.880   7.966  -8.931  0.00  0.00    -0.061 A 
ATOM     20  C   UNL     1      -9.108   7.461  -8.545  0.00  0.00    +0.002 A 
ATOM     21  C   UNL     1     -10.232   8.266  -8.584  0.00  0.00    +0.004 A 
ATOM     22  C   UNL     1     -10.132   9.573  -9.019  0.00  0.00    +0.045 A 
ATOM     23  C   UNL     1      -8.902  10.081  -9.412  0.00  0.00    +0.117 A 
ATOM     24  C   UNL     1      -7.775   9.273  -9.367  0.00  0.00    +0.047 A 
BRANCH  23  25
ATOM     25  O   UNL     1      -8.801  11.366  -9.840  0.00  0.00    -0.507 OA
ATOM     26  H   UNL     1      -8.928  11.474 -10.793  0.00  0.00    +0.292 HD
ENDBRANCH  23  25
ENDBRANCH  18  19
ENDBRANCH  12  18
BRANCH   4  27
ATOM     27  C   UNL     1      -4.138   5.444  -1.509  0.00  0.00    +0.118 C 
BRANCH  27  28
ATOM     28  C   UNL     1      -2.739   4.830  -1.576  0.00  0.00    +0.024 C 
BRANCH  28  29
ATOM     29  C   UNL     1      -2.189   4.658  -0.159  0.00  0.00    +0.038 C 
BRANCH  29  30
ATOM     30  C   UNL     1      -0.810   4.053  -0.224  0.00  0.00    -0.029 A 
ATOM     31  C   UNL     1      -0.646   2.677  -0.209  0.00  0.00    +0.006 A 
ATOM     32  C   UNL     1       0.641   2.165  -0.266  0.00  0.00    +0.020 A 
ATOM     33  C   UNL     1       1.710   3.038  -0.347  0.00  0.00    +0.111 A 
ATOM     34  N   UNL     1       1.516   4.342  -0.365  0.00  0.00    -0.263 NA
ATOM     35  C   UNL     1       0.306   4.864  -0.307  0.00  0.00    +0.114 A 
ENDBRANCH  29  30
ENDBRANCH  28  29
ENDBRANCH  27  28
ENDBRANCH   4  27
TORSDOF 10
