REMARK  Name = ZINC67373711
REMARK  4 active torsions:
REMARK  status: ('A' for Active; 'I' for Inactive)
REMARK    1  A    between atoms: C_6  and  C_7
REMARK    2  A    between atoms: C_7  and  C_9
REMARK    3  A    between atoms: C_7  and  O_23
REMARK    4  A    between atoms: C_16  and  C_21
REMARK                            x       y       z     vdW  Elec       q    Type
REMARK                         _______ _______ _______ _____ _____    ______ ____
ROOT
ATOM      1  C   UNL     1      -1.542  -1.252  -1.426  0.00  0.00    +0.025 C 
ATOM      2  C   UNL     1      -0.485  -2.215  -1.971  0.00  0.00    +0.025 C 
ATOM      3  C   UNL     1      -0.875  -2.645  -3.389  0.00  0.00    +0.107 C 
ATOM      4  N   UNL     1      -2.236  -3.198  -3.357  0.00  0.00    -0.313 N 
ATOM      5  C   UNL     1      -3.313  -2.390  -2.770  0.00  0.00    +0.107 C 
ATOM      6  C   UNL     1      -2.896  -1.963  -1.359  0.00  0.00    +0.025 C 
ATOM      7  C   UNL     1      -2.498  -4.456  -3.872  0.00  0.00    +0.157 A 
ATOM      8  C   UNL     1      -2.875  -4.604  -5.218  0.00  0.00    +0.180 A 
ATOM      9  N   UNL     1      -3.124  -5.818  -5.702  0.00  0.00    -0.240 NA
ATOM     10  C   UNL     1      -3.017  -6.874  -4.920  0.00  0.00    +0.132 A 
ATOM     11  C   UNL     1      -2.646  -6.728  -3.592  0.00  0.00    +0.132 A 
ATOM     12  N   UNL     1      -2.390  -5.529  -3.099  0.00  0.00    -0.236 NA
ENDROOT
BRANCH   8  13
ATOM     13  C   UNL     1      -2.991  -3.455  -6.064  0.00  0.00    +0.123 C 
ATOM     14  N   UNL     1      -3.082  -2.543  -6.735  0.00  0.00    -0.189 NA
ENDBRANCH   8  13
BRANCH   1  15
ATOM     15  C   UNL     1      -1.139  -0.793  -0.023  0.00  0.00    +0.148 C 
BRANCH  15  21
ATOM     16  C   UNL     1       0.078   1.393  -0.076  0.00  0.00    +0.007 A 
ATOM     17  C   UNL     1       1.243   2.133  -0.150  0.00  0.00    +0.020 A 
ATOM     18  C   UNL     1       2.464   1.491  -0.253  0.00  0.00    +0.041 A 
ATOM     19  C   UNL     1       2.518   0.109  -0.282  0.00  0.00    +0.020 A 
ATOM     20  C   UNL     1       1.352  -0.630  -0.208  0.00  0.00    +0.007 A 
ATOM     21  C   UNL     1       0.132   0.012  -0.105  0.00  0.00    -0.019 A 
ATOM     22 CL   UNL     1       3.928   2.419  -0.347  0.00  0.00    -0.084 Cl
ENDBRANCH  15  21
BRANCH  15  23
ATOM     23  O   UNL     1      -0.926  -1.935   0.809  0.00  0.00    -0.387 OA
ATOM     24  H   UNL     1      -0.232  -2.529   0.492  0.00  0.00    +0.210 HD
ENDBRANCH  15  23
ENDBRANCH   1  15
TORSDOF 4
