REMARK  Name = ZINC40823508
REMARK  6 active torsions:
REMARK  status: ('A' for Active; 'I' for Inactive)
REMARK    1  A    between atoms: C_1  and  C_2
REMARK    2  A    between atoms: C_6  and  C_7
REMARK    3  A    between atoms: N_9  and  C_10
REMARK    4  A    between atoms: N_22  and  N_23
REMARK    5  A    between atoms: C_24  and  C_26
REMARK    6  A    between atoms: C_30  and  C_31
REMARK                            x       y       z     vdW  Elec       q    Type
REMARK                         _______ _______ _______ _____ _____    ______ ____
ROOT
ATOM      1  C   UNL     1      -0.005   1.502   0.010  0.00  0.00    +0.048 C 
ATOM      2  C   UNL     1       0.021  -0.004   0.002  0.00  0.00    +0.009 A 
ATOM      3  C   UNL     1       0.039  -0.839  -1.123  0.00  0.00    +0.042 A 
ATOM      4  C   UNL     1       0.059  -2.138  -0.673  0.00  0.00    +0.115 A 
ATOM      5  O   UNL     1       0.057  -2.112   0.658  0.00  0.00    -0.454 OA
ATOM      6  C   UNL     1       0.039  -0.831   1.091  0.00  0.00    +0.193 A 
ATOM      7  C   UNL     1       0.076  -3.327  -1.599  0.00  0.00    +0.075 C 
ATOM      8  C   UNL     1      -0.440  -2.905  -2.978  0.00  0.00    +0.014 C 
ATOM      9  C   UNL     1       0.330  -1.685  -3.493  0.00  0.00    +0.058 C 
ATOM     10  C   UNL     1       0.040  -0.513  -2.566  0.00  0.00    +0.070 C 
ATOM     11  N   UNL     1      -0.189   0.685  -3.010  0.00  0.00    -0.184 NA
ENDROOT
BRANCH   6  12
ATOM     12  C   UNL     1       0.036  -0.400   2.493  0.00  0.00    +0.284 C 
ATOM     13  O   UNL     1       0.016   0.786   2.765  0.00  0.00    -0.266 OA
ATOM     14  N   UNL     1       0.055  -1.318   3.480  0.00  0.00    -0.278 N 
ATOM     15  H   UNL     1      -0.010  -2.261   3.266  0.00  0.00    +0.155 HD
BRANCH  14  16
ATOM     16  C   UNL     1       0.168  -0.909   4.813  0.00  0.00    +0.054 A 
ATOM     17  C   UNL     1       0.761   0.309   5.119  0.00  0.00    +0.044 A 
ATOM     18  C   UNL     1       0.871   0.710   6.437  0.00  0.00    +0.043 A 
ATOM     19  C   UNL     1       0.393  -0.101   7.452  0.00  0.00    +0.021 A 
ATOM     20  C   UNL     1      -0.198  -1.315   7.150  0.00  0.00    +0.023 A 
ATOM     21  C   UNL     1      -0.317  -1.718   5.833  0.00  0.00    +0.062 A 
ATOM     22 CL   UNL     1      -1.066  -3.238   5.455  0.00  0.00    -0.082 Cl
ATOM     23 CL   UNL     1       1.612   2.232   6.821  0.00  0.00    -0.083 Cl
ENDBRANCH  14  16
ENDBRANCH   6  12
BRANCH  11  24
ATOM     24  N   UNL     1      -0.175   0.936  -4.388  0.00  0.00    -0.203 N 
ATOM     25  C   UNL     1      -0.413   2.180  -4.848  0.00  0.00    +0.267 C 
ATOM     26  O   UNL     1      -0.640   3.085  -4.067  0.00  0.00    -0.268 OA
ATOM     27  H   UNL     1       0.005   0.215  -5.011  0.00  0.00    +0.178 HD
BRANCH  25  28
ATOM     28  C   UNL     1      -0.399   2.445  -6.298  0.00  0.00    +0.079 A 
ATOM     29  C   UNL     1      -0.151   1.476  -7.376  0.00  0.00    +0.054 A 
ATOM     30  C   UNL     1      -0.238   2.168  -8.521  0.00  0.00    +0.196 A 
ATOM     31  O   UNL     1      -0.512   3.452  -8.240  0.00  0.00    -0.467 OA
ATOM     32  C   UNL     1      -0.618   3.639  -6.921  0.00  0.00    +0.114 A 
ATOM     33  C   UNL     1      -0.925   4.946  -6.237  0.00  0.00    +0.087 C 
ENDBRANCH  25  28
ENDBRANCH  11  24
TORSDOF 4
