REMARK  Name = ZINC64074241
REMARK  4 active torsions:
REMARK  status: ('A' for Active; 'I' for Inactive)
REMARK    1  A    between atoms: C_1  and  O_2
REMARK    2  A    between atoms: O_2  and  C_3
REMARK    3  A    between atoms: C_6  and  C_10
REMARK    4  A    between atoms: C_25  and  C_27
REMARK                            x       y       z     vdW  Elec       q    Type
REMARK                         _______ _______ _______ _____ _____    ______ ____
ROOT
ATOM      1  C   UNL     1       2.651  -2.576   4.271  0.00  0.00    +0.136 C 
ATOM      2  C   UNL     1       1.545  -2.931   5.271  0.00  0.00    +0.131 C 
ATOM      3  C   UNL     1       2.239  -3.288   6.579  0.00  0.00    -0.035 C 
ATOM      4  C   UNL     1       1.827  -4.509   6.901  0.00  0.00    -0.001 A 
ATOM      5  C   UNL     1       2.093  -5.353   8.077  0.00  0.00    +0.010 A 
ATOM      6  C   UNL     1       1.507  -6.580   8.078  0.00  0.00    +0.001 A 
ATOM      7  C   UNL     1       0.693  -7.045   7.040  0.00  0.00    +0.002 A 
ATOM      8  C   UNL     1       0.392  -6.334   5.925  0.00  0.00    +0.026 A 
ATOM      9  C   UNL     1       0.946  -5.026   5.810  0.00  0.00    +0.043 A 
ATOM     10  N   UNL     1       0.799  -4.121   4.858  0.00  0.00    -0.375 N 
ATOM     11  C   UNL     1       3.244  -2.376   7.239  0.00  0.00    +0.052 C 
ATOM     12  C   UNL     1       4.269  -1.990   6.157  0.00  0.00    +0.113 C 
ATOM     13  N   UNL     1       3.562  -1.624   4.924  0.00  0.00    -0.288 N 
ATOM     14  C   UNL     1       3.749  -0.403   4.386  0.00  0.00    +0.248 C 
ATOM     15  O   UNL     1       3.039  -0.025   3.471  0.00  0.00    -0.270 OA
ATOM     16  H   UNL     1       0.297  -4.219   4.034  0.00  0.00    +0.160 HD
ENDROOT
BRANCH  14  17
ATOM     17  C   UNL     1       4.769   0.441   4.883  0.00  0.00    +0.073 C 
ATOM     18  C   UNL     1       4.996   1.726   4.533  0.00  0.00    +0.100 C 
ATOM     19  N   UNL     1       6.074   2.243   5.192  0.00  0.00    -0.269 N 
ATOM     20  N   UNL     1       6.753   1.224   5.847  0.00  0.00    -0.232 N 
ATOM     21  C   UNL     1       5.814   0.082   5.914  0.00  0.00    +0.245 C 
ATOM     22  N   UNL     1       6.565  -1.113   5.524  0.00  0.00    -0.263 NA
ATOM     23  C   UNL     1       7.851  -1.162   5.700  0.00  0.00    +0.109 C 
ATOM     24  C   UNL     1       8.602  -0.090   6.230  0.00  0.00    +0.036 C 
ATOM     25  C   UNL     1       8.041   1.146   6.309  0.00  0.00    +0.095 C 
ATOM     26  H   UNL     1       6.327   3.179   5.202  0.00  0.00    +0.170 HD
ENDBRANCH  14  17
BRANCH   1  30
ATOM     27  C   UNL     1       0.935  -0.783   0.791  0.00  0.00    +0.123 A 
ATOM     28  C   UNL     1       0.206  -0.853   1.969  0.00  0.00    +0.046 A 
ATOM     29  C   UNL     1       0.763  -1.433   3.093  0.00  0.00    +0.012 A 
ATOM     30  C   UNL     1       2.046  -1.944   3.044  0.00  0.00    +0.011 A 
ATOM     31  C   UNL     1       2.777  -1.876   1.870  0.00  0.00    +0.132 A 
ATOM     32  C   UNL     1       2.220  -1.301   0.741  0.00  0.00    +0.084 A 
ATOM     33  F   UNL     1       4.031  -2.376   1.825  0.00  0.00    -0.205 F 
BRANCH  27  35
ATOM     34  C   UNL     1      -0.940   0.301  -0.191  0.00  0.00    +0.277 C 
ATOM     35  O   UNL     1       0.389  -0.212  -0.315  0.00  0.00    -0.495 OA
ENDBRANCH  27  35
ENDBRANCH   1  30
TORSDOF 3
