REMARK  Name = ZINC40569249
REMARK  11 active torsions:
REMARK  status: ('A' for Active; 'I' for Inactive)
REMARK    1  A    between atoms: C_1  and  C_2
REMARK    2  A    between atoms: C_2  and  C_3
REMARK    3  A    between atoms: C_3  and  C_4
REMARK    4  A    between atoms: N_10  and  C_11
REMARK    5  A    between atoms: C_11  and  C_12
REMARK    6  A    between atoms: C_12  and  O_13
REMARK    7  A    between atoms: C_14  and  C_22
REMARK    8  A    between atoms: C_16  and  C_20
REMARK    9  A    between atoms: C_17  and  N_19
REMARK   10  A    between atoms: C_22  and  C_23
REMARK   11  A    between atoms: C_22  and  C_24
REMARK                            x       y       z     vdW  Elec       q    Type
REMARK                         _______ _______ _______ _____ _____    ______ ____
ROOT
ATOM      1  C   UNL     1       0.797  -1.813   1.058  0.00  0.00    +0.026 A 
ATOM      2  C   UNL     1       1.976  -2.255   0.570  0.00  0.00    +0.068 A 
ATOM      3  C   UNL     1       2.273  -3.634   0.599  0.00  0.00    +0.141 A 
ATOM      4  C   UNL     1       1.345  -4.506   1.128  0.00  0.00    +0.068 A 
ATOM      5  C   UNL     1       0.136  -4.001   1.622  0.00  0.00    +0.259 A 
ATOM      6  O   UNL     1      -0.695  -4.761   2.095  0.00  0.00    -0.267 OA
ATOM      7  N   UNL     1      -0.110  -2.678   1.583  0.00  0.00    -0.310 N 
ATOM      8  C   UNL     1       1.619  -5.984   1.176  0.00  0.00    +0.076 C 
ATOM      9  C   UNL     1       3.086  -6.245   0.973  0.00  0.00    +0.094 C 
ATOM     10  C   UNL     1       3.904  -5.295   0.462  0.00  0.00    +0.198 C 
ATOM     11  O   UNL     1       3.450  -4.079   0.112  0.00  0.00    -0.441 OA
ENDROOT
BRANCH  10  12
ATOM     12  N   UNL     1       5.236  -5.582   0.296  0.00  0.00    -0.328 N 
ATOM     13  H   UNL     1       5.579  -6.455   0.543  0.00  0.00    +0.145 HD
ATOM     14  H   UNL     1       5.835  -4.912  -0.070  0.00  0.00    +0.145 HD
ENDBRANCH  10  12
BRANCH   8  15
ATOM     15  C   UNL     1       0.825  -6.683   0.071  0.00  0.00    -0.004 C 
ATOM     16  C   UNL     1       1.102  -8.187   0.118  0.00  0.00    +0.008 C 
ATOM     17  C   UNL     1      -0.670  -6.434   0.282  0.00  0.00    +0.008 C 
ENDBRANCH   8  15
BRANCH   9  18
ATOM     18  C   UNL     1       3.628  -7.522   1.329  0.00  0.00    +0.100 C 
ATOM     19  N   UNL     1       4.058  -8.535   1.610  0.00  0.00    -0.191 NA
ENDBRANCH   9  18
BRANCH   1  20
ATOM     20  C   UNL     1       0.485  -0.339   1.025  0.00  0.00    +0.053 C 
BRANCH  20  22
ATOM     21  C   UNL     1       0.739   1.824   2.250  0.00  0.00    +0.004 C 
ATOM     22  C   UNL     1       0.955   0.311   2.328  0.00  0.00    +0.003 C 
ENDBRANCH  20  22
ENDBRANCH   1  20
BRANCH   7  23
ATOM     23  C   UNL     1      -1.376  -2.163   2.110  0.00  0.00    +0.153 C 
BRANCH  23  24
ATOM     24  C   UNL     1      -2.396  -2.060   0.974  0.00  0.00    +0.177 C 
BRANCH  24  25
ATOM     25  O   UNL     1      -2.697  -3.368   0.484  0.00  0.00    -0.393 OA
ATOM     26  H   UNL     1      -3.339  -3.379  -0.240  0.00  0.00    +0.209 HD
ENDBRANCH  24  25
ENDBRANCH  23  24
ENDBRANCH   7  23
TORSDOF 8
