REMARK  Name = ZINC32988047
REMARK  12 active torsions:
REMARK  status: ('A' for Active; 'I' for Inactive)
REMARK    1  A    between atoms: C_1  and  C_2
REMARK    2  A    between atoms: C_2  and  C_3
REMARK    3  A    between atoms: C_3  and  C_4
REMARK    4  A    between atoms: C_4  and  N_5
REMARK    5  A    between atoms: C_6  and  N_38
REMARK    6  A    between atoms: C_7  and  N_14
REMARK    7  A    between atoms: N_14  and  C_15
REMARK    8  A    between atoms: C_15  and  C_16
REMARK    9  A    between atoms: C_16  and  O_17
REMARK   10  A    between atoms: O_17  and  C_18
REMARK   11  A    between atoms: C_19  and  C_21
REMARK   12  A    between atoms: C_24  and  N_27
REMARK                            x       y       z     vdW  Elec       q    Type
REMARK                         _______ _______ _______ _____ _____    ______ ____
ROOT
ATOM      1  N   UNL     1       2.149   4.992   0.110  0.00  0.00    -0.258 N 
ATOM      2  C   UNL     1       1.903   3.703   0.417  0.00  0.00    +0.251 C 
ATOM      3  O   UNL     1       0.756   3.300   0.473  0.00  0.00    -0.270 OA
ENDROOT
BRANCH   1   6
ATOM      4  N   UNL     1       5.509   5.459  -1.302  0.00  0.00    -0.280 N 
ATOM      5  C   UNL     1       4.218   5.007  -1.152  0.00  0.00    +0.127 A 
ATOM      6  C   UNL     1       3.477   5.433  -0.068  0.00  0.00    +0.140 A 
ATOM      7  C   UNL     1       4.071   6.310   0.859  0.00  0.00    +0.277 A 
ATOM      8  O   UNL     1       3.440   6.698   1.827  0.00  0.00    -0.266 OA
ATOM      9  N   UNL     1       5.341   6.718   0.668  0.00  0.00    -0.273 N 
ATOM     10  H   UNL     1       5.812   7.404   1.387  0.00  0.00    +0.173 HD
ATOM     11  C   UNL     1       6.046   6.297  -0.397  0.00  0.00    +0.331 A 
ATOM     12  O   UNL     1       7.190   6.681  -0.545  0.00  0.00    -0.246 OA
BRANCH   5  13
ATOM     13  N   UNL     1       3.671   4.146  -2.073  0.00  0.00    -0.343 N 
ATOM     14  H   UNL     1       2.639   3.788  -1.946  0.00  0.00    +0.144 HD
ATOM     15  H   UNL     1       4.266   3.813  -2.936  0.00  0.00    +0.144 HD
ENDBRANCH   5  13
BRANCH   4  16
ATOM     16  C   UNL     1       6.305   5.020  -2.450  0.00  0.00    +0.128 C 
BRANCH  16  17
ATOM     17  C   UNL     1       7.059   3.739  -2.088  0.00  0.00    +0.021 C 
BRANCH  17  19
ATOM     18  C   UNL     1       8.645   1.999  -2.926  0.00  0.00    +0.004 C 
ATOM     19  C   UNL     1       7.891   3.280  -3.288  0.00  0.00    -0.002 C 
ENDBRANCH  17  19
ENDBRANCH  16  17
ENDBRANCH   4  16
ENDBRANCH   1   6
BRANCH   2  20
ATOM     20  C   UNL     1       3.023   2.780   0.683  0.00  0.00    +0.037 A 
ATOM     21  C   UNL     1       2.837   1.400   0.567  0.00  0.00    +0.015 A 
ATOM     22  C   UNL     1       3.885   0.542   0.817  0.00  0.00    +0.025 A 
ATOM     23  C   UNL     1       5.126   1.048   1.190  0.00  0.00    +0.045 A 
ATOM     24  C   UNL     1       5.316   2.421   1.301  0.00  0.00    +0.025 A 
ATOM     25  C   UNL     1       4.273   3.284   1.053  0.00  0.00    +0.015 A 
BRANCH  23  26
ATOM     26  N   UNL     1       6.185   0.174   1.448  0.00  0.00    -0.202 N 
ATOM     27  C   UNL     1       6.103  -1.167   1.369  0.00  0.00    +0.258 C 
ATOM     28  O   UNL     1       5.111  -1.799   1.067  0.00  0.00    -0.269 OA
ATOM     29  C   UNL     1       7.422  -1.740   1.709  0.00  0.00    +0.050 A 
ATOM     30  C   UNL     1       7.925  -3.029   1.792  0.00  0.00    +0.014 A 
ATOM     31  C   UNL     1       9.247  -3.228   2.156  0.00  0.00    +0.001 A 
ATOM     32  C   UNL     1      10.067  -2.151   2.437  0.00  0.00    +0.001 A 
ATOM     33  C   UNL     1       9.578  -0.857   2.357  0.00  0.00    +0.014 A 
ATOM     34  C   UNL     1       8.258  -0.642   1.995  0.00  0.00    +0.050 A 
ATOM     35  C   UNL     1       7.420   0.562   1.814  0.00  0.00    +0.258 C 
ATOM     36  O   UNL     1       7.785   1.710   1.970  0.00  0.00    -0.269 OA
ENDBRANCH  23  26
ENDBRANCH   2  20
BRANCH   1  37
ATOM     37  C   UNL     1       1.038   5.935  -0.037  0.00  0.00    +0.142 C 
BRANCH  37  38
ATOM     38  C   UNL     1       0.661   6.498   1.335  0.00  0.00    +0.179 C 
BRANCH  38  39
ATOM     39  O   UNL     1       1.561   7.553   1.680  0.00  0.00    -0.381 OA
ATOM     40  C   UNL     1       1.296   8.151   2.951  0.00  0.00    +0.194 C 
ENDBRANCH  38  39
ENDBRANCH  37  38
ENDBRANCH   1  37
TORSDOF 10
