REMARK  Name = ZINC44863093
REMARK  7 active torsions:
REMARK  status: ('A' for Active; 'I' for Inactive)
REMARK    1  A    between atoms: C_1  and  C_2
REMARK    2  A    between atoms: C_2  and  C_3
REMARK    3  A    between atoms: C_2  and  C_4
REMARK    4  A    between atoms: C_4  and  C_6
REMARK    5  A    between atoms: C_4  and  C_10
REMARK    6  A    between atoms: N_7  and  O_8
REMARK    7  A    between atoms: N_12  and  C_13
REMARK                            x       y       z     vdW  Elec       q    Type
REMARK                         _______ _______ _______ _____ _____    ______ ____
ROOT
ATOM      1  C   UNL     1      -1.882  -1.723   0.437  0.00  0.00    +0.228 C 
ATOM      2  O   UNL     1      -2.739  -2.248  -0.243  0.00  0.00    -0.275 OA
ATOM      3  N   UNL     1      -1.167  -2.462   1.308  0.00  0.00    -0.283 N 
ATOM      4  H   UNL     1      -0.469  -2.046   1.839  0.00  0.00    +0.155 HD
ENDROOT
BRANCH   3   5
ATOM      5  C   UNL     1      -1.432  -3.831   1.449  0.00  0.00    +0.072 A 
ATOM      6  C   UNL     1      -2.084  -4.520   0.436  0.00  0.00    +0.029 A 
ATOM      7  C   UNL     1      -2.346  -5.869   0.575  0.00  0.00    +0.043 A 
ATOM      8  C   UNL     1      -1.957  -6.537   1.723  0.00  0.00    +0.161 A 
ATOM      9  C   UNL     1      -1.305  -5.853   2.738  0.00  0.00    +0.195 A 
ATOM     10  C   UNL     1      -1.036  -4.502   2.600  0.00  0.00    +0.182 A 
ATOM     11  F   UNL     1      -0.395  -3.835   3.585  0.00  0.00    -0.200 F 
ATOM     12  F   UNL     1      -0.927  -6.506   3.858  0.00  0.00    -0.199 F 
ATOM     13  F   UNL     1      -2.214  -7.857   1.856  0.00  0.00    -0.202 F 
ENDBRANCH   3   5
BRANCH   1  14
ATOM     14  C   UNL     1      -1.616  -0.245   0.306  0.00  0.00    +0.144 C 
BRANCH  14  15
ATOM     15  C   UNL     1      -2.839   0.437  -0.250  0.00  0.00    +0.144 C 
ATOM     16  N   UNL     1      -2.935   0.656  -1.520  0.00  0.00    -0.076 NA
ATOM     17  N   UNL     1      -3.854   0.828   0.594  0.00  0.00    -0.343 N 
ATOM     18  H   UNL     1      -3.782   0.664   1.547  0.00  0.00    +0.144 HD
ATOM     19  H   UNL     1      -4.641   1.268   0.236  0.00  0.00    +0.144 HD
BRANCH  16  20
ATOM     20  O   UNL     1      -4.084   1.298  -2.043  0.00  0.00    -0.408 OA
ATOM     21  H   UNL     1      -4.064   1.417  -3.003  0.00  0.00    +0.328 HD
ENDBRANCH  16  20
ENDBRANCH  14  15
BRANCH  14  23
ATOM     22  C   UNL     1      -0.147   1.478  -0.749  0.00  0.00    +0.008 C 
ATOM     23  C   UNL     1      -0.433  -0.021  -0.637  0.00  0.00    +0.002 C 
ATOM     24  C   UNL     1       0.802  -0.736  -0.085  0.00  0.00    +0.008 C 
ENDBRANCH  14  23
ENDBRANCH   1  14
TORSDOF 5
