REMARK  Name = ZINC39461210
REMARK  8 active torsions:
REMARK  status: ('A' for Active; 'I' for Inactive)
REMARK    1  A    between atoms: C_1  and  C_2
REMARK    2  A    between atoms: C_2  and  O_3
REMARK    3  A    between atoms: O_3  and  C_4
REMARK    4  A    between atoms: C_8  and  C_11
REMARK    5  A    between atoms: C_9  and  O_10
REMARK    6  A    between atoms: C_11  and  N_12
REMARK    7  A    between atoms: C_16  and  C_19
REMARK    8  A    between atoms: C_21  and  C_25
REMARK                            x       y       z     vdW  Elec       q    Type
REMARK                         _______ _______ _______ _____ _____    ______ ____
ROOT
ATOM      1  N   UNL     1      -4.867  -4.345  -1.354  0.00  0.00    +0.383 N 
ATOM      2  C   UNL     1      -4.062  -5.208  -2.227  0.00  0.00    -0.078 C 
ATOM      3  C   UNL     1      -4.582  -5.115  -3.663  0.00  0.00    -0.018 C 
ATOM      4  C   UNL     1      -6.044  -5.570  -3.701  0.00  0.00    +0.002 C 
ATOM      5  C   UNL     1      -6.861  -4.711  -2.731  0.00  0.00    +0.003 C 
ATOM      6  C   UNL     1      -6.256  -4.819  -1.330  0.00  0.00    -0.072 C 
ATOM      7  H   UNL     1      -4.842  -3.399  -1.704  0.00  0.00    -0.081 HD
ENDROOT
BRANCH   5   8
ATOM      8  C   UNL     1      -8.308  -5.207  -2.704  0.00  0.00    +0.161 C 
ATOM      9  C   UNL     1      -8.953  -5.059  -4.072  0.00  0.00    +0.006 C 
ATOM     10  C   UNL     1      -9.978  -4.204  -3.850  0.00  0.00    +0.140 C 
ATOM     11  N   UNL     1     -10.018  -3.840  -2.561  0.00  0.00    -0.162 NA
ATOM     12  N   UNL     1      -9.139  -4.342  -1.850  0.00  0.00    -0.179 NA
BRANCH   9  13
ATOM     13  C   UNL     1      -8.556  -5.695  -5.338  0.00  0.00    -0.018 A 
ATOM     14  C   UNL     1      -8.646  -7.083  -5.486  0.00  0.00    +0.010 A 
ATOM     15  C   UNL     1      -8.273  -7.671  -6.676  0.00  0.00    +0.020 A 
ATOM     16  C   UNL     1      -7.809  -6.891  -7.723  0.00  0.00    +0.041 A 
ATOM     17  C   UNL     1      -7.717  -5.516  -7.583  0.00  0.00    +0.020 A 
ATOM     18  C   UNL     1      -8.092  -4.913  -6.401  0.00  0.00    +0.010 A 
ATOM     19 CL   UNL     1      -7.341  -7.641  -9.217  0.00  0.00    -0.084 Cl
ENDBRANCH   9  13
ENDBRANCH   5   8
BRANCH   1  20
ATOM     20  C   UNL     1      -4.316  -4.377   0.007  0.00  0.00    -0.039 C 
BRANCH  20  25
ATOM     21  C   UNL     1      -1.498  -1.849   0.006  0.00  0.00    +0.162 A 
ATOM     22  C   UNL     1      -0.389  -2.680  -0.003  0.00  0.00    +0.049 A 
ATOM     23  C   UNL     1      -0.553  -4.052  -0.008  0.00  0.00    +0.004 A 
ATOM     24  C   UNL     1      -1.823  -4.600  -0.005  0.00  0.00    +0.005 A 
ATOM     25  C   UNL     1      -2.934  -3.777   0.004  0.00  0.00    -0.019 A 
ATOM     26  C   UNL     1      -2.776  -2.400   0.016  0.00  0.00    +0.160 A 
BRANCH  26  27
ATOM     27  O   UNL     1      -3.868  -1.589   0.030  0.00  0.00    -0.503 OA
ATOM     28  H   UNL     1      -4.192  -1.350  -0.849  0.00  0.00    +0.292 HD
ENDBRANCH  26  27
BRANCH  21  29
ATOM     29  O   UNL     1      -1.339  -0.499   0.012  0.00  0.00    -0.489 OA
BRANCH  29  31
ATOM     30  C   UNL     1      -0.019   1.526   0.010  0.00  0.00    +0.048 C 
ATOM     31  C   UNL     1       0.002  -0.004   0.002  0.00  0.00    +0.226 C 
ENDBRANCH  29  31
ENDBRANCH  21  29
ENDBRANCH  20  25
ENDBRANCH   1  20
TORSDOF 7
