REMARK  Name = ZINC50389332
REMARK  6 active torsions:
REMARK  status: ('A' for Active; 'I' for Inactive)
REMARK    1  A    between atoms: C_1  and  C_2
REMARK    2  A    between atoms: C_2  and  C_4
REMARK    3  A    between atoms: C_2  and  N_9
REMARK    4  A    between atoms: C_4  and  C_5
REMARK    5  A    between atoms: N_6  and  O_7
REMARK    6  A    between atoms: C_10  and  C_12
REMARK                            x       y       z     vdW  Elec       q    Type
REMARK                         _______ _______ _______ _____ _____    ______ ____
ROOT
ATOM      1  N   UNL     1      -1.372  -0.511   0.012  0.00  0.00    -0.308 N 
ATOM      2  C   UNL     1      -2.051  -0.643  -1.145  0.00  0.00    +0.251 C 
ATOM      3  O   UNL     1      -1.522  -0.340  -2.198  0.00  0.00    -0.270 OA
ATOM      4  H   UNL     1      -1.794  -0.752   0.852  0.00  0.00    +0.149 HD
ENDROOT
BRANCH   2   5
ATOM      5  C   UNL     1      -3.426  -1.150  -1.134  0.00  0.00    +0.074 A 
ATOM      6  C   UNL     1      -4.285  -1.364  -2.197  0.00  0.00    +0.024 A 
ATOM      7  C   UNL     1      -5.545  -1.857  -1.894  0.00  0.00    -0.036 A 
ATOM      8  C   UNL     1      -5.814  -2.084  -0.576  0.00  0.00    -0.006 A 
ATOM      9  S   UNL     1      -4.426  -1.660   0.251  0.00  0.00    -0.088 S 
ATOM     10  C   UNL     1      -7.095  -2.610   0.002  0.00  0.00    +0.043 C 
ATOM     11  C   UNL     1      -8.190  -2.502  -1.069  0.00  0.00    +0.005 C 
ATOM     12  C   UNL     1      -7.653  -3.078  -2.382  0.00  0.00    +0.005 C 
ATOM     13  C   UNL     1      -6.594  -2.142  -2.965  0.00  0.00    +0.036 C 
ENDBRANCH   2   5
BRANCH   1  15
ATOM     14  C   UNL     1      -0.019   1.526   0.010  0.00  0.00    +0.028 C 
ATOM     15  C   UNL     1       0.002  -0.004   0.002  0.00  0.00    +0.077 C 
BRANCH  15  16
ATOM     16  C   UNL     1       0.742  -0.511   1.242  0.00  0.00    +0.096 C 
BRANCH  16  17
ATOM     17  C   UNL     1       0.870  -2.011   1.172  0.00  0.00    +0.133 C 
ATOM     18  N   UNL     1       0.385  -2.654   0.162  0.00  0.00    -0.077 NA
ATOM     19  N   UNL     1       1.504  -2.696   2.184  0.00  0.00    -0.344 N 
ATOM     20  H   UNL     1       1.869  -2.212   2.942  0.00  0.00    +0.144 HD
ATOM     21  H   UNL     1       1.587  -3.661   2.140  0.00  0.00    +0.144 HD
BRANCH  18  22
ATOM     22  O   UNL     1       0.505  -4.064   0.097  0.00  0.00    -0.408 OA
ATOM     23  H   UNL     1       0.111  -4.456  -0.695  0.00  0.00    +0.328 HD
ENDBRANCH  18  22
ENDBRANCH  16  17
ENDBRANCH  15  16
ENDBRANCH   1  15
TORSDOF 5
