REMARK  Name = ZINC39945986
REMARK  10 active torsions:
REMARK  status: ('A' for Active; 'I' for Inactive)
REMARK    1  A    between atoms: C_1  and  C_2
REMARK    2  A    between atoms: C_6  and  C_8
REMARK    3  A    between atoms: C_9  and  C_10
REMARK    4  A    between atoms: C_13  and  C_33
REMARK    5  A    between atoms: C_14  and  N_21
REMARK    6  A    between atoms: C_17  and  C_19
REMARK    7  A    between atoms: C_17  and  C_20
REMARK    8  A    between atoms: C_22  and  C_24
REMARK    9  A    between atoms: C_24  and  S_25
REMARK   10  A    between atoms: S_25  and  C_26
REMARK                            x       y       z     vdW  Elec       q    Type
REMARK                         _______ _______ _______ _____ _____    ______ ____
ROOT
ATOM      1  C   UNL     1       4.067  -1.020   3.829  0.00  0.00    -0.046 C 
ATOM      2  C   UNL     1       3.808  -1.071   5.154  0.00  0.00    +0.013 C 
ATOM      3  C   UNL     1       4.960  -1.226   6.079  0.00  0.00    +0.005 A 
ATOM      4  C   UNL     1       4.888  -1.579   7.487  0.00  0.00    +0.088 A 
ATOM      5  C   UNL     1       6.083  -1.685   8.185  0.00  0.00    +0.090 A 
ATOM      6  S   UNL     1       7.304  -1.306   6.939  0.00  0.00    -0.076 S 
ATOM      7  C   UNL     1       6.223  -1.020   5.573  0.00  0.00    +0.006 A 
ATOM      8  C   UNL     1       6.526  -0.631   4.163  0.00  0.00    +0.001 C 
ATOM      9  C   UNL     1       5.437  -1.210   3.248  0.00  0.00    +0.046 C 
ATOM     10  C   UNL     1       7.888  -1.196   3.756  0.00  0.00    +0.017 C 
ATOM     11  C   UNL     1       6.543   0.895   4.045  0.00  0.00    +0.017 C 
ENDROOT
BRANCH   5  12
ATOM     12  N   UNL     1       6.281  -2.006   9.521  0.00  0.00    -0.278 N 
ATOM     13  C   UNL     1       7.530  -2.061  10.023  0.00  0.00    +0.228 C 
ATOM     14  O   UNL     1       8.482  -1.829   9.308  0.00  0.00    -0.275 OA
ATOM     15  H   UNL     1       5.519  -2.191  10.092  0.00  0.00    +0.155 HD
BRANCH  13  16
ATOM     16  C   UNL     1       7.744  -2.409  11.474  0.00  0.00    +0.173 C 
BRANCH  16  17
ATOM     17  S   UNL     1       9.520  -2.400  11.842  0.00  0.00    -0.075 S 
BRANCH  17  18
ATOM     18  C   UNL     1       9.603  -2.820  13.551  0.00  0.00    +0.210 A 
ATOM     19  N   UNL     1       8.575  -3.076  14.324  0.00  0.00    -0.144 NA
ATOM     20  H   UNL     1       8.572  -3.592  16.392  0.00  0.00    +0.192 HD
ATOM     21  N   UNL     1       9.084  -3.363  15.601  0.00  0.00    -0.246 N 
ATOM     22  C   UNL     1      10.426  -3.258  15.510  0.00  0.00    +0.209 A 
ATOM     23  N   UNL     1      10.726  -2.935  14.270  0.00  0.00    -0.188 NA
ATOM     24  N   UNL     1      11.329  -3.459  16.538  0.00  0.00    -0.328 N 
ATOM     25  H   UNL     1      11.011  -3.699  17.423  0.00  0.00    +0.145 HD
ATOM     26  H   UNL     1      12.280  -3.360  16.375  0.00  0.00    +0.145 HD
ENDBRANCH  17  18
ENDBRANCH  16  17
ENDBRANCH  13  16
ENDBRANCH   5  12
BRANCH   1  28
ATOM     27  C   UNL     1       3.190  -0.835   1.606  0.00  0.00    +0.045 C 
ATOM     28  C   UNL     1       2.991  -0.781   2.943  0.00  0.00    +0.007 C 
BRANCH  27  33
ATOM     29  C   UNL     1      -0.010   1.532   0.006  0.00  0.00    +0.052 C 
ATOM     30  C   UNL     1       0.003   0.002   0.003  0.00  0.00    +0.174 C 
ATOM     31  C   UNL     1       0.781  -0.541  -1.221  0.00  0.00    +0.075 C 
ATOM     32  C   UNL     1       2.173  -0.735  -0.644  0.00  0.00    +0.022 C 
ATOM     33  C   UNL     1       2.055  -0.693   0.690  0.00  0.00    +0.117 C 
ATOM     34  O   UNL     1       0.778  -0.508   1.105  0.00  0.00    -0.489 OA
ENDBRANCH  27  33
ENDBRANCH   1  28
BRANCH   4  35
ATOM     35  C   UNL     1       3.630  -1.810   8.131  0.00  0.00    +0.102 C 
ATOM     36  N   UNL     1       2.632  -1.994   8.642  0.00  0.00    -0.191 NA
ENDBRANCH   4  35
TORSDOF 7
