REMARK  Name = ZINC36566906
REMARK  10 active torsions:
REMARK  status: ('A' for Active; 'I' for Inactive)
REMARK    1  A    between atoms: C_1  and  C_2
REMARK    2  A    between atoms: C_2  and  C_3
REMARK    3  A    between atoms: N_5  and  C_6
REMARK    4  A    between atoms: C_10  and  N_13
REMARK    5  A    between atoms: C_11  and  C_12
REMARK    6  A    between atoms: N_13  and  C_14
REMARK    7  A    between atoms: C_14  and  N_16
REMARK    8  A    between atoms: C_17  and  C_19
REMARK    9  A    between atoms: C_20  and  C_21
REMARK   10  A    between atoms: C_25  and  N_27
REMARK                            x       y       z     vdW  Elec       q    Type
REMARK                         _______ _______ _______ _____ _____    ______ ____
ROOT
ATOM      1  C   UNL     1      -5.903  -5.947   0.435  0.00  0.00    +0.141 C 
ATOM      2  S   UNL     1      -7.225  -4.860   0.432  0.00  0.00    -0.018 S 
ENDROOT
BRANCH   1   3
ATOM      3  N   UNL     1      -6.124  -7.277   0.441  0.00  0.00    -0.264 N 
ATOM      4  C   UNL     1      -7.386  -7.750   0.445  0.00  0.00    +0.242 C 
ATOM      5  O   UNL     1      -8.326  -6.977   0.443  0.00  0.00    -0.270 OA
ATOM      6  H   UNL     1      -5.375  -7.893   0.443  0.00  0.00    +0.157 HD
BRANCH   4   7
ATOM      7  C   UNL     1      -7.626  -9.193   0.452  0.00  0.00    +0.068 C 
ATOM      8  C   UNL     1      -8.889  -9.667   0.456  0.00  0.00    +0.013 C 
BRANCH   8   9
ATOM      9  C   UNL     1      -9.130 -11.119   0.463  0.00  0.00    -0.023 A 
ATOM     10  C   UNL     1      -8.052 -12.011   0.472  0.00  0.00    +0.008 A 
ATOM     11  C   UNL     1      -8.287 -13.369   0.478  0.00  0.00    +0.003 A 
ATOM     12  C   UNL     1      -9.584 -13.851   0.476  0.00  0.00    +0.033 A 
ATOM     13  C   UNL     1     -10.655 -12.976   0.468  0.00  0.00    +0.127 A 
ATOM     14  C   UNL     1     -10.438 -11.614   0.468  0.00  0.00    +0.040 A 
BRANCH  13  15
ATOM     15  N   UNL     1     -12.039 -13.502   0.466  0.00  0.00    +0.056 N 
ATOM     16  O   UNL     1     -12.232 -14.695   0.471  0.00  0.00    -0.126 OA
ATOM     17  O   UNL     1     -12.976 -12.738   0.458  0.00  0.00    -0.126 OA
ENDBRANCH  13  15
ENDBRANCH   8   9
ENDBRANCH   4   7
ENDBRANCH   1   3
BRANCH   1  18
ATOM     18  N   UNL     1      -4.641  -5.474   0.431  0.00  0.00    -0.296 N 
ATOM     19  H   UNL     1      -3.893  -6.087   0.504  0.00  0.00    +0.154 HD
BRANCH  18  24
ATOM     20  C   UNL     1      -3.235  -2.257  -0.676  0.00  0.00    +0.038 A 
ATOM     21  C   UNL     1      -3.958  -1.372   0.113  0.00  0.00    +0.024 A 
ATOM     22  C   UNL     1      -4.903  -1.849   1.001  0.00  0.00    +0.004 A 
ATOM     23  C   UNL     1      -5.131  -3.208   1.107  0.00  0.00    +0.023 A 
ATOM     24  C   UNL     1      -4.410  -4.098   0.322  0.00  0.00    +0.037 A 
ATOM     25  C   UNL     1      -3.465  -3.622  -0.576  0.00  0.00    -0.008 A 
ATOM     26  C   UNL     1      -2.686  -4.585  -1.434  0.00  0.00    +0.047 C 
BRANCH  20  29
ATOM     27  C   UNL     1      -2.325  -0.489  -1.983  0.00  0.00    +0.217 C 
ATOM     28  O   UNL     1      -3.253   0.218  -1.651  0.00  0.00    -0.275 OA
ATOM     29  N   UNL     1      -2.278  -1.773  -1.575  0.00  0.00    -0.285 N 
ATOM     30  H   UNL     1      -1.581  -2.361  -1.906  0.00  0.00    +0.155 HD
BRANCH  27  32
ATOM     31  C   UNL     1      -1.520   1.534  -3.169  0.00  0.00    +0.013 C 
ATOM     32  C   UNL     1      -1.226   0.067  -2.851  0.00  0.00    +0.093 C 
ENDBRANCH  27  32
ENDBRANCH  20  29
ENDBRANCH  18  24
ENDBRANCH   1  18
TORSDOF 8
