REMARK  Name = ZINC10138530
REMARK  6 active torsions:
REMARK  status: ('A' for Active; 'I' for Inactive)
REMARK    1  A    between atoms: C_3  and  C_6
REMARK    2  A    between atoms: C_9  and  C_25
REMARK    3  A    between atoms: C_12  and  C_14
REMARK    4  A    between atoms: C_14  and  O_15
REMARK    5  A    between atoms: O_15  and  C_16
REMARK    6  A    between atoms: C_16  and  C_18
REMARK                            x       y       z     vdW  Elec       q    Type
REMARK                         _______ _______ _______ _____ _____    ______ ____
ROOT
ATOM      1  C   UNL     1       4.056   9.797  -1.390  0.00  0.00    +0.144 C 
ATOM      2  C   UNL     1       3.685  11.271  -1.649  0.00  0.00    +0.088 C 
ATOM      3  C   UNL     1       2.174  11.278  -1.614  0.00  0.00    +0.075 C 
ATOM      4  N   UNL     1       1.742  10.082  -1.392  0.00  0.00    -0.180 NA
ATOM      5  N   UNL     1       2.751   9.132  -1.248  0.00  0.00    -0.182 N 
ATOM      6  C   UNL     1       2.563   7.819  -1.011  0.00  0.00    +0.273 C 
ATOM      7  O   UNL     1       3.518   7.079  -0.902  0.00  0.00    -0.270 OA
ENDROOT
BRANCH   1  10
ATOM      8  C   UNL     1       6.716   9.367   1.302  0.00  0.00    +0.008 A 
ATOM      9  C   UNL     1       6.190   9.456   0.027  0.00  0.00    +0.013 A 
ATOM     10  C   UNL     1       4.859   9.665  -0.122  0.00  0.00    +0.013 A 
ATOM     11  S   UNL     1       4.307   9.750   1.573  0.00  0.00    -0.100 S 
ATOM     12  C   UNL     1       5.885   9.492   2.366  0.00  0.00    +0.045 A 
ENDBRANCH   1  10
BRANCH   3  13
ATOM     13  C   UNL     1       1.329  12.462  -1.804  0.00  0.00    +0.035 A 
ATOM     14  C   UNL     1      -0.052  12.560  -1.788  0.00  0.00    +0.017 A 
ATOM     15  C   UNL     1      -0.622  13.794  -1.994  0.00  0.00    +0.008 A 
ATOM     16  C   UNL     1       0.180  14.871  -2.204  0.00  0.00    +0.046 A 
ATOM     17  S   UNL     1       1.812  14.153  -2.107  0.00  0.00    -0.095 S 
ENDBRANCH   3  13
BRANCH   6  18
ATOM     18  C   UNL     1       1.166   7.269  -0.881  0.00  0.00    +0.330 C 
BRANCH  18  19
ATOM     19  O   UNL     1       1.229   5.840  -0.630  0.00  0.00    -0.451 OA
BRANCH  19  20
ATOM     20  C   UNL     1       0.057   5.192  -0.488  0.00  0.00    +0.362 C 
ATOM     21  O   UNL     1      -0.990   5.803  -0.572  0.00  0.00    -0.243 OA
BRANCH  20  22
ATOM     22  C   UNL     1       0.043   3.738  -0.230  0.00  0.00    +0.187 A 
ATOM     23  C   UNL     1      -1.174   3.038  -0.199  0.00  0.00    +0.149 A 
ATOM     24  N   UNL     1      -1.173   1.729   0.029  0.00  0.00    -0.237 NA
ATOM     25  C   UNL     1      -0.033   1.096   0.235  0.00  0.00    +0.132 A 
ATOM     26  C   UNL     1       1.169   1.788   0.204  0.00  0.00    +0.131 A 
ATOM     27  N   UNL     1       1.184   3.085  -0.026  0.00  0.00    -0.244 NA
ATOM     28  N   UNL     1      -2.366   3.706  -0.410  0.00  0.00    -0.341 N 
ATOM     29  H   UNL     1      -2.372   4.546  -0.895  0.00  0.00    +0.144 HD
ATOM     30  H   UNL     1      -3.196   3.334  -0.073  0.00  0.00    +0.144 HD
ENDBRANCH  20  22
ENDBRANCH  19  20
ENDBRANCH  18  19
ENDBRANCH   6  18
TORSDOF 6
