REMARK  Name = ZINC13460331
REMARK  6 active torsions:
REMARK  status: ('A' for Active; 'I' for Inactive)
REMARK    1  A    between atoms: C_1  and  C_2
REMARK    2  A    between atoms: C_3  and  O_18
REMARK    3  A    between atoms: C_5  and  O_16
REMARK    4  A    between atoms: C_9  and  C_15
REMARK    5  A    between atoms: C_12  and  O_14
REMARK    6  A    between atoms: O_16  and  C_17
REMARK                            x       y       z     vdW  Elec       q    Type
REMARK                         _______ _______ _______ _____ _____    ______ ____
ROOT
ATOM      1  C   UNL     1      -2.546   3.880   0.044  0.00  0.00    +0.048 C 
ATOM      2  C   UNL     1      -1.232   3.141   0.028  0.00  0.00    -0.005 A 
ATOM      3  C   UNL     1      -1.221   1.755   0.017  0.00  0.00    +0.123 A 
ATOM      4  C   UNL     1      -0.013   1.076   0.008  0.00  0.00    +0.091 A 
ATOM      5  C   UNL     1       1.176   1.787   0.000  0.00  0.00    +0.132 A 
ATOM      6  C   UNL     1       1.161   3.178   0.008  0.00  0.00    +0.053 A 
ATOM      7  C   UNL     1      -0.043   3.851   0.019  0.00  0.00    -0.027 A 
ATOM      8  C   UNL     1      -0.099   5.357   0.019  0.00  0.00    +0.067 C 
ATOM      9  C   UNL     1       1.260   5.926   0.431  0.00  0.00    +0.123 C 
ATOM     10  O   UNL     1       2.276   5.282  -0.346  0.00  0.00    -0.344 OA
ATOM     11  C   UNL     1       2.475   3.915   0.011  0.00  0.00    +0.283 C 
ATOM     12  C   UNL     1       1.286   7.434   0.174  0.00  0.00    +0.038 C 
ENDROOT
BRANCH  11  13
ATOM     13  O   UNL     1       3.362   3.305  -0.928  0.00  0.00    -0.363 OA
ATOM     14  H   UNL     1       4.230   3.727  -0.981  0.00  0.00    +0.213 HD
ENDBRANCH  11  13
BRANCH   5  15
ATOM     15  O   UNL     1       2.362   1.123  -0.015  0.00  0.00    -0.495 OA
ATOM     16  C   UNL     1       2.306  -0.305  -0.022  0.00  0.00    +0.277 C 
ENDBRANCH   5  15
BRANCH   3  17
ATOM     17  O   UNL     1      -2.391   1.064   0.021  0.00  0.00    -0.506 OA
ATOM     18  H   UNL     1      -2.725   0.860   0.905  0.00  0.00    +0.292 HD
ENDBRANCH   3  17
TORSDOF 3
