REMARK  Name = ZINC39639118
REMARK  11 active torsions:
REMARK  status: ('A' for Active; 'I' for Inactive)
REMARK    1  A    between atoms: C_1  and  C_2
REMARK    2  A    between atoms: C_5  and  C_10
REMARK    3  A    between atoms: C_14  and  C_23
REMARK    4  A    between atoms: N_25  and  C_26
REMARK    5  A    between atoms: C_26  and  C_27
REMARK    6  A    between atoms: C_28  and  O_37
REMARK    7  A    between atoms: C_30  and  O_35
REMARK    8  A    between atoms: C_32  and  O_33
REMARK    9  A    between atoms: O_33  and  C_34
REMARK   10  A    between atoms: O_35  and  C_36
REMARK   11  A    between atoms: O_37  and  C_38
REMARK                            x       y       z     vdW  Elec       q    Type
REMARK                         _______ _______ _______ _____ _____    ______ ____
ROOT
ATOM      1  C   UNL     1       0.160  -4.530   0.065  0.00  0.00    +0.250 C 
ATOM      2  O   UNL     1       0.289  -5.230   1.052  0.00  0.00    -0.270 OA
ATOM      3  N   UNL     1       0.024  -5.098  -1.150  0.00  0.00    -0.296 N 
ATOM      4  C   UNL     1      -0.036  -4.420  -2.466  0.00  0.00    +0.121 C 
ATOM      5  C   UNL     1       0.779  -5.332  -3.411  0.00  0.00    +0.100 C 
ATOM      6  C   UNL     1       0.732  -6.721  -2.754  0.00  0.00    -0.004 C 
ATOM      7  C   UNL     1      -0.094  -6.540  -1.471  0.00  0.00    +0.115 C 
ATOM      8  C   UNL     1       0.053  -7.723  -3.683  0.00  0.00    -0.010 C 
ATOM      9  C   UNL     1       0.070  -9.108  -3.032  0.00  0.00    -0.082 C 
ATOM     10  N   UNL     1       1.457  -9.513  -2.773  0.00  0.00    +0.379 N 
ATOM     11  C   UNL     1       2.073  -8.597  -1.806  0.00  0.00    -0.082 C 
ATOM     12  C   UNL     1       2.141  -7.189  -2.406  0.00  0.00    -0.010 C 
ATOM     13  H   UNL     1       1.468 -10.451  -2.401  0.00  0.00    -0.086 HD
ATOM     14  H   UNL     1       1.979  -9.490  -3.636  0.00  0.00    -0.086 HD
ENDROOT
BRANCH   1  19
ATOM     15  C   UNL     1       0.126   1.203   0.582  0.00  0.00    +0.047 C 
ATOM     16  C   UNL     1       0.137  -0.298   0.448  0.00  0.00    -0.012 A 
ATOM     17  C   UNL     1      -0.641  -0.909  -0.521  0.00  0.00    +0.007 A 
ATOM     18  C   UNL     1      -0.638  -2.282  -0.650  0.00  0.00    +0.016 A 
ATOM     19  C   UNL     1       0.153  -3.060   0.199  0.00  0.00    +0.075 A 
ATOM     20  C   UNL     1       0.937  -2.439   1.176  0.00  0.00    +0.171 A 
ATOM     21  C   UNL     1       0.928  -1.059   1.291  0.00  0.00    +0.162 A 
ATOM     22  F   UNL     1       1.689  -0.455   2.230  0.00  0.00    -0.202 F 
ATOM     23  F   UNL     1       1.705  -3.183   2.002  0.00  0.00    -0.202 F 
ENDBRANCH   1  19
BRANCH   5  24
ATOM     24  C   UNL     1       2.201  -4.845  -3.513  0.00  0.00    +0.218 C 
ATOM     25  O   UNL     1       2.714  -4.271  -2.575  0.00  0.00    -0.275 OA
ATOM     26  N   UNL     1       2.904  -5.046  -4.645  0.00  0.00    -0.311 N 
ATOM     27  H   UNL     1       2.494  -5.505  -5.395  0.00  0.00    +0.149 HD
BRANCH  26  28
ATOM     28  C   UNL     1       4.287  -4.573  -4.743  0.00  0.00    +0.147 C 
BRANCH  28  29
ATOM     29  C   UNL     1       4.842  -4.921  -6.100  0.00  0.00    +0.053 A 
ATOM     30  C   UNL     1       5.483  -6.136  -6.297  0.00  0.00    +0.132 A 
ATOM     31  C   UNL     1       5.993  -6.456  -7.545  0.00  0.00    +0.091 A 
ATOM     32  C   UNL     1       5.863  -5.563  -8.598  0.00  0.00    +0.127 A 
ATOM     33  C   UNL     1       5.221  -4.349  -8.402  0.00  0.00    +0.091 A 
ATOM     34  C   UNL     1       4.707  -4.030  -7.154  0.00  0.00    +0.132 A 
BRANCH  34  35
ATOM     35  O   UNL     1       4.074  -2.843  -6.963  0.00  0.00    -0.495 OA
ATOM     36  C   UNL     1       3.971  -1.974  -8.093  0.00  0.00    +0.277 C 
ENDBRANCH  34  35
BRANCH  32  37
ATOM     37  O   UNL     1       6.364  -5.876  -9.822  0.00  0.00    -0.495 OA
ATOM     38  C   UNL     1       6.194  -4.909 -10.860  0.00  0.00    +0.277 C 
ENDBRANCH  32  37
BRANCH  30  39
ATOM     39  O   UNL     1       5.610  -7.011  -5.265  0.00  0.00    -0.495 OA
ATOM     40  C   UNL     1       6.282  -8.242  -5.539  0.00  0.00    +0.277 C 
ENDBRANCH  30  39
ENDBRANCH  28  29
ENDBRANCH  26  28
ENDBRANCH   5  24
TORSDOF 7
