REMARK  Name = ZINC44784394
REMARK  5 active torsions:
REMARK  status: ('A' for Active; 'I' for Inactive)
REMARK    1  A    between atoms: C_1  and  C_2
REMARK    2  A    between atoms: C_8  and  N_10
REMARK    3  A    between atoms: C_11  and  C_13
REMARK    4  A    between atoms: C_13  and  C_19
REMARK    5  A    between atoms: N_20  and  O_21
REMARK                            x       y       z     vdW  Elec       q    Type
REMARK                         _______ _______ _______ _____ _____    ______ ____
ROOT
ATOM      1  C   UNL     1       4.241   0.541   2.367  0.00  0.00    +0.105 C 
ATOM      2  C   UNL     1       4.800   0.495   3.791  0.00  0.00    +0.024 C 
ATOM      3  C   UNL     1       4.006   1.452   4.682  0.00  0.00    +0.001 C 
ATOM      4  C   UNL     1       4.123   2.875   4.134  0.00  0.00    +0.000 C 
ATOM      5  C   UNL     1       3.565   2.922   2.710  0.00  0.00    +0.001 C 
ATOM      6  C   UNL     1       4.359   1.965   1.819  0.00  0.00    +0.024 C 
ENDROOT
BRANCH   1   7
ATOM      7  C   UNL     1       5.024  -0.401   1.489  0.00  0.00    +0.147 C 
ATOM      8  N   UNL     1       5.734   0.063   0.515  0.00  0.00    -0.076 NA
ATOM      9  N   UNL     1       4.982  -1.757   1.726  0.00  0.00    -0.343 N 
ATOM     10  H   UNL     1       4.510  -2.100   2.501  0.00  0.00    +0.144 HD
ATOM     11  H   UNL     1       5.425  -2.370   1.117  0.00  0.00    +0.144 HD
BRANCH   8  12
ATOM     12  O   UNL     1       6.469  -0.823  -0.310  0.00  0.00    -0.408 OA
ATOM     13  H   UNL     1       6.969  -0.383  -1.011  0.00  0.00    +0.328 HD
ENDBRANCH   8  12
ENDBRANCH   1   7
BRANCH   1  15
ATOM     14  N   UNL     1       2.051   0.229   1.262  0.00  0.00    -0.311 N 
ATOM     15  C   UNL     1       2.792   0.127   2.382  0.00  0.00    +0.227 C 
ATOM     16  O   UNL     1       2.294  -0.298   3.403  0.00  0.00    -0.275 OA
ATOM     17  H   UNL     1       2.428   0.636   0.466  0.00  0.00    +0.149 HD
BRANCH  14  24
ATOM     18  C   UNL     1      -0.137   1.965   0.494  0.00  0.00    +0.009 C 
ATOM     19  C   UNL     1      -0.128   0.469   0.176  0.00  0.00    +0.006 C 
ATOM     20  C   UNL     1       0.515   0.242  -1.194  0.00  0.00    +0.005 C 
ATOM     21  C   UNL     1       0.523  -1.255  -1.511  0.00  0.00    +0.000 C 
ATOM     22  C   UNL     1       1.326  -1.998  -0.442  0.00  0.00    +0.002 C 
ATOM     23  C   UNL     1       0.684  -1.772   0.928  0.00  0.00    +0.022 C 
ATOM     24  C   UNL     1       0.675  -0.275   1.246  0.00  0.00    +0.076 C 
ENDBRANCH  14  24
ENDBRANCH   1  15
TORSDOF 4
