REMARK  Name = ZINC67620169
REMARK  14 active torsions:
REMARK  status: ('A' for Active; 'I' for Inactive)
REMARK    1  A    between atoms: C_1  and  C_2
REMARK    2  A    between atoms: C_4  and  O_29
REMARK    3  A    between atoms: C_5  and  O_27
REMARK    4  A    between atoms: C_7  and  C_8
REMARK    5  A    between atoms: C_8  and  C_10
REMARK    6  A    between atoms: C_8  and  N_11
REMARK    7  A    between atoms: N_14  and  C_15
REMARK    8  A    between atoms: C_15  and  C_16
REMARK    9  A    between atoms: C_16  and  C_18
REMARK   10  A    between atoms: C_16  and  O_26
REMARK   11  A    between atoms: C_18  and  N_19
REMARK   12  A    between atoms: C_22  and  C_25
REMARK   13  A    between atoms: O_27  and  C_28
REMARK   14  A    between atoms: O_29  and  C_30
REMARK                            x       y       z     vdW  Elec       q    Type
REMARK                         _______ _______ _______ _____ _____    ______ ____
ROOT
ATOM      1  N   UNL     1       1.231  -0.750   3.270  0.00  0.00    -0.293 N 
ATOM      2  C   UNL     1       1.680  -0.183   4.407  0.00  0.00    +0.300 C 
ATOM      3  O   UNL     1       1.678   1.027   4.525  0.00  0.00    -0.253 OA
ATOM      4  N   UNL     1       2.131  -0.957   5.415  0.00  0.00    -0.297 N 
ATOM      5  H   UNL     1       1.233  -1.716   3.176  0.00  0.00    +0.151 HD
ATOM      6  H   UNL     1       2.132  -1.923   5.321  0.00  0.00    +0.150 HD
ENDROOT
BRANCH   1   7
ATOM      7  C   UNL     1       0.741   0.091   2.176  0.00  0.00    +0.102 C 
ATOM      8  C   UNL     1      -0.731   0.431   2.414  0.00  0.00    +0.033 C 
BRANCH   7  15
ATOM      9  C   UNL     1       0.966   1.560  -0.298  0.00  0.00    +0.044 C 
ATOM     10  C   UNL     1       0.989   0.054  -0.314  0.00  0.00    -0.042 A 
ATOM     11  C   UNL     1       1.123  -0.622  -1.513  0.00  0.00    +0.053 A 
ATOM     12  C   UNL     1       1.144  -2.007  -1.529  0.00  0.00    +0.162 A 
ATOM     13  C   UNL     1       1.030  -2.716  -0.337  0.00  0.00    +0.162 A 
ATOM     14  C   UNL     1       0.896  -2.033   0.861  0.00  0.00    +0.055 A 
ATOM     15  C   UNL     1       0.881  -0.650   0.871  0.00  0.00    -0.021 A 
BRANCH  13  16
ATOM     16  O   UNL     1       1.050  -4.075  -0.347  0.00  0.00    -0.491 OA
ATOM     17  C   UNL     1       0.928  -4.736   0.914  0.00  0.00    +0.277 C 
ENDBRANCH  13  16
BRANCH  12  18
ATOM     18  O   UNL     1       1.275  -2.672  -2.708  0.00  0.00    -0.491 OA
ATOM     19  C   UNL     1       1.387  -1.880  -3.892  0.00  0.00    +0.277 C 
ENDBRANCH  12  18
ENDBRANCH   7  15
ENDBRANCH   1   7
BRANCH   4  20
ATOM     20  C   UNL     1       2.618  -0.341   6.651  0.00  0.00    +0.135 C 
BRANCH  20  21
ATOM     21  C   UNL     1       3.068  -1.433   7.623  0.00  0.00    +0.115 C 
BRANCH  21  22
ATOM     22  O   UNL     1       4.193  -2.124   7.076  0.00  0.00    -0.392 OA
ATOM     23  H   UNL     1       4.959  -1.558   6.908  0.00  0.00    +0.210 HD
ENDBRANCH  21  22
BRANCH  21  24
ATOM     24  C   UNL     1       3.460  -0.798   8.958  0.00  0.00    -0.046 C 
BRANCH  24  25
ATOM     25  N   UNL     1       3.880  -1.848   9.896  0.00  0.00    +0.381 N 
ATOM     26  C   UNL     1       4.400  -1.229  11.121  0.00  0.00    -0.078 C 
ATOM     27  C   UNL     1       4.913  -2.316  12.068  0.00  0.00    -0.016 C 
ATOM     28  C   UNL     1       3.762  -3.262  12.421  0.00  0.00    -0.018 C 
ATOM     29  C   UNL     1       3.179  -3.845  11.131  0.00  0.00    -0.016 C 
ATOM     30  C   UNL     1       2.730  -2.701  10.219  0.00  0.00    -0.078 C 
ATOM     31  C   UNL     1       4.286  -4.397  13.304  0.00  0.00    +0.007 C 
ATOM     32  H   UNL     1       4.603  -2.408   9.470  0.00  0.00    -0.082 HD
ENDBRANCH  24  25
ENDBRANCH  21  24
ENDBRANCH  20  21
ENDBRANCH   4  20
TORSDOF 9
