REMARK  Name = ZINC02616647
REMARK  6 active torsions:
REMARK  status: ('A' for Active; 'I' for Inactive)
REMARK    1  A    between atoms: C_1  and  C_2
REMARK    2  A    between atoms: C_2  and  C_3
REMARK    3  A    between atoms: C_3  and  N_4
REMARK    4  A    between atoms: C_13  and  C_15
REMARK    5  A    between atoms: N_17  and  C_18
REMARK    6  A    between atoms: C_19  and  C_27
REMARK                            x       y       z     vdW  Elec       q    Type
REMARK                         _______ _______ _______ _____ _____    ______ ____
ROOT
ATOM      1  C   UNL     1       1.482   6.026   2.574  0.00  0.00    +0.269 C 
ATOM      2  O   UNL     1       1.570   7.237   2.639  0.00  0.00    -0.268 OA
ATOM      3  N   UNL     1       2.446   5.251   3.109  0.00  0.00    -0.274 N 
ATOM      4  H   UNL     1       2.377   4.285   3.058  0.00  0.00    +0.156 HD
ENDROOT
BRANCH   1  14
ATOM      5  N   UNL     1      -0.755   3.484   1.277  0.00  0.00    -0.228 N 
ATOM      6  C   UNL     1      -1.795   4.112   0.692  0.00  0.00    +0.275 A 
ATOM      7  O   UNL     1      -2.693   3.475   0.171  0.00  0.00    -0.266 OA
ATOM      8  C   UNL     1      -1.822   5.581   0.701  0.00  0.00    +0.050 A 
ATOM      9  C   UNL     1      -2.851   6.321   0.128  0.00  0.00    +0.014 A 
ATOM     10  C   UNL     1      -2.800   7.698   0.175  0.00  0.00    +0.001 A 
ATOM     11  C   UNL     1      -1.735   8.348   0.785  0.00  0.00    +0.001 A 
ATOM     12  C   UNL     1      -0.705   7.632   1.358  0.00  0.00    +0.011 A 
ATOM     13  C   UNL     1      -0.738   6.242   1.322  0.00  0.00    +0.020 A 
ATOM     14  C   UNL     1       0.321   5.405   1.909  0.00  0.00    +0.154 A 
ATOM     15  N   UNL     1       0.218   4.100   1.835  0.00  0.00    -0.163 NA
BRANCH   5  16
ATOM     16  C   UNL     1      -0.735   2.019   1.269  0.00  0.00    +0.147 C 
BRANCH  16  18
ATOM     17  C   UNL     1       0.002  -0.004   0.002  0.00  0.00    +0.005 C 
ATOM     18  C   UNL     1      -0.019   1.526   0.010  0.00  0.00    +0.020 C 
ENDBRANCH  16  18
ENDBRANCH   5  16
ENDBRANCH   1  14
BRANCH   3  19
ATOM     19  C   UNL     1       3.537   5.835   3.733  0.00  0.00    +0.085 A 
ATOM     20  C   UNL     1       4.617   5.211   4.343  0.00  0.00    +0.068 A 
ATOM     21  C   UNL     1       5.641   6.061   4.926  0.00  0.00    -0.023 A 
ATOM     22  C   UNL     1       5.417   7.389   4.817  0.00  0.00    -0.004 A 
ATOM     23  S   UNL     1       3.880   7.519   3.949  0.00  0.00    -0.077 S 
ATOM     24  C   UNL     1       6.288   8.496   5.326  0.00  0.00    +0.043 C 
ATOM     25  C   UNL     1       7.294   7.902   6.322  0.00  0.00    +0.005 C 
ATOM     26  C   UNL     1       7.924   6.652   5.700  0.00  0.00    +0.005 C 
ATOM     27  C   UNL     1       6.887   5.530   5.624  0.00  0.00    +0.037 C 
BRANCH  20  28
ATOM     28  C   UNL     1       4.723   3.750   4.392  0.00  0.00    +0.244 C 
ATOM     29  O   UNL     1       5.289   3.150   3.496  0.00  0.00    -0.270 OA
ATOM     30  N   UNL     1       4.195   3.071   5.429  0.00  0.00    -0.325 N 
ATOM     31  H   UNL     1       3.744   3.548   6.143  0.00  0.00    +0.145 HD
ATOM     32  H   UNL     1       4.265   2.104   5.462  0.00  0.00    +0.145 HD
ENDBRANCH  20  28
ENDBRANCH   3  19
TORSDOF 5
