REMARK  Name = ZINC22635168
REMARK  6 active torsions:
REMARK  status: ('A' for Active; 'I' for Inactive)
REMARK    1  A    between atoms: C_1  and  C_2
REMARK    2  A    between atoms: C_5  and  C_8
REMARK    3  A    between atoms: N_17  and  C_20
REMARK    4  A    between atoms: C_20  and  C_21
REMARK    5  A    between atoms: C_20  and  C_22
REMARK    6  A    between atoms: C_23  and  O_25
REMARK                            x       y       z     vdW  Elec       q    Type
REMARK                         _______ _______ _______ _____ _____    ______ ____
ROOT
ATOM      1  C   UNL     1      -1.425   9.960   0.556  0.00  0.00    +0.224 C 
ATOM      2  N   UNL     1      -1.935   9.001  -0.441  0.00  0.00    -0.313 N 
ATOM      3  C   UNL     1      -1.753   7.670  -0.155  0.00  0.00    +0.080 A 
ATOM      4  C   UNL     1      -1.594   7.198   1.155  0.00  0.00    +0.067 A 
ATOM      5  C   UNL     1      -1.423   5.765   1.294  0.00  0.00    -0.027 A 
ATOM      6  C   UNL     1      -1.431   5.058   0.138  0.00  0.00    -0.021 A 
ATOM      7  S   UNL     1      -1.669   6.268  -1.134  0.00  0.00    -0.080 S 
ATOM      8  C   UNL     1      -1.271   3.577   0.001  0.00  0.00    -0.035 C 
ATOM      9  N   UNL     1      -0.749   3.048   1.275  0.00  0.00    +0.384 N 
ATOM     10  C   UNL     1      -1.532   3.558   2.409  0.00  0.00    -0.073 C 
ATOM     11  C   UNL     1      -1.238   5.045   2.625  0.00  0.00    +0.018 C 
ATOM     12  C   UNL     1      -1.636   8.204   2.248  0.00  0.00    +0.220 C 
ATOM     13  N   UNL     1      -1.599   9.465   1.916  0.00  0.00    -0.223 NA
ATOM     14  H   UNL     1      -2.429   9.367  -1.353  0.00  0.00    +0.149 HD
ATOM     15  H   UNL     1       0.288   3.395   1.394  0.00  0.00    -0.081 HD
ENDROOT
BRANCH   1  20
ATOM     16  C   UNL     1       4.200  10.870  -0.407  0.00  0.00    +0.044 C 
ATOM     17  C   UNL     1       2.733  10.633  -0.156  0.00  0.00    -0.050 A 
ATOM     18  C   UNL     1       2.227  10.727   1.127  0.00  0.00    +0.004 A 
ATOM     19  C   UNL     1       0.882  10.510   1.357  0.00  0.00    +0.007 A 
ATOM     20  C   UNL     1       0.042  10.197   0.305  0.00  0.00    -0.005 A 
ATOM     21  C   UNL     1       0.549  10.097  -0.978  0.00  0.00    +0.007 A 
ATOM     22  C   UNL     1       1.893  10.320  -1.209  0.00  0.00    +0.004 A 
ENDBRANCH   1  20
BRANCH   9  23
ATOM     23  C   UNL     1      -0.729   1.579   1.267  0.00  0.00    -0.074 C 
ATOM     24  C   UNL     1      -0.013   1.086   0.008  0.00  0.00    -0.014 C 
ATOM     25  C   UNL     1       0.011   1.072   2.506  0.00  0.00    -0.014 C 
ENDBRANCH   9  23
BRANCH  12  26
ATOM     26  O   UNL     1      -1.710   7.824   3.545  0.00  0.00    -0.492 OA
ATOM     27  H   UNL     1      -1.740   8.585   4.339  0.00  0.00    +0.294 HD
ENDBRANCH  12  26
TORSDOF 3
