REMARK  Name = ZINC09706359
REMARK  6 active torsions:
REMARK  status: ('A' for Active; 'I' for Inactive)
REMARK    1  A    between atoms: C_4  and  C_7
REMARK    2  A    between atoms: C_7  and  C_8
REMARK    3  A    between atoms: C_7  and  N_14
REMARK    4  A    between atoms: C_15  and  C_17
REMARK    5  A    between atoms: N_19  and  C_20
REMARK    6  A    between atoms: C_28  and  C_29
REMARK                            x       y       z     vdW  Elec       q    Type
REMARK                         _______ _______ _______ _____ _____    ______ ____
ROOT
ATOM      1  C   UNL     1       1.313   5.788  -0.414  0.00  0.00    +0.303 C 
ATOM      2  O   UNL     1       0.141   5.968  -0.673  0.00  0.00    -0.265 OA
ATOM      3  N   UNL     1       1.736   4.573  -0.013  0.00  0.00    -0.274 N 
ATOM      4  H   UNL     1       2.662   4.442   0.246  0.00  0.00    +0.155 HD
ENDROOT
BRANCH   3   5
ATOM      5  C   UNL     1       0.847   3.507   0.028  0.00  0.00    +0.093 A 
ATOM      6  C   UNL     1      -0.369   3.338  -0.778  0.00  0.00    +0.042 A 
ATOM      7  C   UNL     1      -0.995   4.103  -1.763  0.00  0.00    +0.013 A 
ATOM      8  C   UNL     1      -2.152   3.654  -2.336  0.00  0.00    +0.001 A 
ATOM      9  C   UNL     1      -2.706   2.443  -1.944  0.00  0.00    +0.004 A 
ATOM     10  C   UNL     1      -2.103   1.674  -0.973  0.00  0.00    +0.047 A 
ATOM     11  C   UNL     1      -0.925   2.111  -0.376  0.00  0.00    +0.138 A 
ATOM     12  O   UNL     1      -0.131   1.591   0.580  0.00  0.00    -0.448 OA
ATOM     13  C   UNL     1       0.924   2.400   0.827  0.00  0.00    +0.211 A 
BRANCH  13  14
ATOM     14  C   UNL     1       1.980   2.135   1.803  0.00  0.00    +0.279 C 
ATOM     15  O   UNL     1       2.826   2.981   2.030  0.00  0.00    -0.267 OA
ATOM     16  N   UNL     1       2.017   0.954   2.452  0.00  0.00    -0.323 N 
ATOM     17  H   UNL     1       1.343   0.280   2.272  0.00  0.00    +0.145 HD
ATOM     18  H   UNL     1       2.718   0.779   3.099  0.00  0.00    +0.145 HD
ENDBRANCH  13  14
ENDBRANCH   3   5
BRANCH   1  20
ATOM     19  N   UNL     1       1.863   8.130  -0.938  0.00  0.00    -0.297 N 
ATOM     20  C   UNL     1       2.287   6.914  -0.537  0.00  0.00    +0.300 C 
ATOM     21  O   UNL     1       3.458   6.735  -0.278  0.00  0.00    -0.265 OA
ATOM     22  H   UNL     1       0.927   8.273  -1.145  0.00  0.00    +0.150 HD
BRANCH  19  23
ATOM     23  C   UNL     1       2.818   9.234  -1.059  0.00  0.00    +0.134 C 
BRANCH  23  27
ATOM     24  C   UNL     1       1.343  12.088  -3.874  0.00  0.00    +0.000 A 
ATOM     25  C   UNL     1       2.688  11.769  -3.854  0.00  0.00    +0.000 A 
ATOM     26  C   UNL     1       3.165  10.846  -2.943  0.00  0.00    +0.006 A 
ATOM     27  C   UNL     1       2.298  10.241  -2.052  0.00  0.00    -0.023 A 
ATOM     28  C   UNL     1       0.952  10.556  -2.076  0.00  0.00    +0.006 A 
ATOM     29  C   UNL     1       0.475  11.483  -2.984  0.00  0.00    +0.000 A 
ENDBRANCH  23  27
BRANCH  23  30
ATOM     30  C   UNL     1       2.994   9.897   0.283  0.00  0.00    -0.023 A 
ATOM     31  C   UNL     1       1.899  10.096   1.103  0.00  0.00    +0.006 A 
ATOM     32  C   UNL     1       2.061  10.700   2.337  0.00  0.00    +0.000 A 
ATOM     33  C   UNL     1       3.316  11.112   2.745  0.00  0.00    +0.000 A 
ATOM     34  C   UNL     1       4.409  10.918   1.922  0.00  0.00    +0.000 A 
ATOM     35  C   UNL     1       4.248  10.309   0.691  0.00  0.00    +0.006 A 
ENDBRANCH  23  30
ENDBRANCH  19  23
ENDBRANCH   1  20
TORSDOF 6
