REMARK  Name = ZINC40726875
REMARK  7 active torsions:
REMARK  status: ('A' for Active; 'I' for Inactive)
REMARK    1  A    between atoms: C_1  and  C_2
REMARK    2  A    between atoms: C_2  and  N_3
REMARK    3  A    between atoms: C_10  and  N_23
REMARK    4  A    between atoms: C_11  and  N_15
REMARK    5  A    between atoms: N_15  and  C_16
REMARK    6  A    between atoms: C_16  and  C_17
REMARK    7  A    between atoms: C_17  and  C_18
REMARK                            x       y       z     vdW  Elec       q    Type
REMARK                         _______ _______ _______ _____ _____    ______ ____
ROOT
ATOM      1  N   UNL     1       1.274   0.449  -2.109  0.00  0.00    +0.382 N 
ATOM      2  C   UNL     1       2.103   0.277  -3.309  0.00  0.00    -0.060 C 
ATOM      3  C   UNL     1       2.348  -1.217  -3.549  0.00  0.00    +0.088 C 
ATOM      4  N   UNL     1       1.047  -1.900  -3.607  0.00  0.00    -0.317 N 
ATOM      5  C   UNL     1       0.085  -1.653  -2.521  0.00  0.00    +0.088 C 
ATOM      6  C   UNL     1      -0.053  -0.140  -2.329  0.00  0.00    -0.060 C 
ATOM      7  C   UNL     1       0.734  -2.754  -4.658  0.00  0.00    +0.147 A 
ATOM      8  C   UNL     1       1.101  -4.100  -4.611  0.00  0.00    +0.105 A 
ATOM      9  C   UNL     1       0.761  -4.914  -5.693  0.00  0.00    +0.145 A 
ATOM     10  N   UNL     1       0.107  -4.379  -6.721  0.00  0.00    -0.219 NA
ATOM     11  C   UNL     1      -0.221  -3.103  -6.726  0.00  0.00    +0.225 A 
ATOM     12  N   UNL     1       0.076  -2.302  -5.723  0.00  0.00    -0.219 NA
ATOM     13  H   UNL     1       1.718  -0.010  -1.328  0.00  0.00    -0.082 HD
ENDROOT
BRANCH   8  14
ATOM     14  N   UNL     1       1.792  -4.621  -3.505  0.00  0.00    -0.353 N 
ATOM     15  H   UNL     1       1.942  -4.068  -2.722  0.00  0.00    +0.143 HD
ATOM     16  H   UNL     1       2.119  -5.534  -3.523  0.00  0.00    +0.143 HD
ENDBRANCH   8  14
BRANCH   1  18
ATOM     17  C   UNL     1       2.498   2.469  -1.464  0.00  0.00    -0.017 C 
ATOM     18  C   UNL     1       1.130   1.881  -1.817  0.00  0.00    -0.082 C 
ENDBRANCH   1  18
BRANCH   9  19
ATOM     19  N   UNL     1       1.103  -6.261  -5.697  0.00  0.00    -0.327 N 
ATOM     20  H   UNL     1       1.580  -6.643  -4.944  0.00  0.00    +0.148 HD
BRANCH  19  21
ATOM     21  C   UNL     1       0.741  -7.105  -6.838  0.00  0.00    +0.108 C 
BRANCH  21  22
ATOM     22  C   UNL     1       1.230  -8.534  -6.591  0.00  0.00    +0.061 C 
BRANCH  22  23
ATOM     23  C   UNL     1       0.858  -9.402  -7.766  0.00  0.00    -0.009 A 
ATOM     24  C   UNL     1       1.566  -9.664  -8.892  0.00  0.00    +0.011 A 
ATOM     25  C   UNL     1       1.021 -10.501  -9.847  0.00  0.00    +0.008 A 
ATOM     26  C   UNL     1      -0.206 -11.035  -9.630  0.00  0.00    +0.045 A 
ATOM     27  S   UNL     1      -0.626 -10.357  -8.032  0.00  0.00    -0.102 S 
ENDBRANCH  22  23
ENDBRANCH  21  22
ENDBRANCH  19  21
ENDBRANCH   9  19
TORSDOF 6
