REMARK  Name = ZINC58949009
REMARK  7 active torsions:
REMARK  status: ('A' for Active; 'I' for Inactive)
REMARK    1  A    between atoms: C_1  and  C_2
REMARK    2  A    between atoms: C_3  and  C_22
REMARK    3  A    between atoms: C_4  and  C_13
REMARK    4  A    between atoms: C_6  and  C_10
REMARK    5  A    between atoms: C_7  and  N_9
REMARK    6  A    between atoms: C_17  and  N_19
REMARK    7  A    between atoms: C_22  and  C_24
REMARK                            x       y       z     vdW  Elec       q    Type
REMARK                         _______ _______ _______ _____ _____    ______ ____
ROOT
ATOM      1  C   UNL     1      -0.022   1.503  -0.011  0.00  0.00    +0.086 C 
ATOM      2  C   UNL     1       0.000  -0.004  -0.008  0.00  0.00    +0.112 C 
ATOM      3  C   UNL     1      -1.164  -0.674   0.029  0.00  0.00    +0.044 C 
ATOM      4  C   UNL     1      -1.197  -2.178   0.034  0.00  0.00    +0.096 C 
ATOM      5  C   UNL     1       0.162  -2.719   0.388  0.00  0.00    +0.083 C 
ATOM      6  C   UNL     1       1.262  -1.927   0.331  0.00  0.00    +0.193 C 
ATOM      7  O   UNL     1       1.182  -0.638  -0.048  0.00  0.00    -0.446 OA
ENDROOT
BRANCH   4   8
ATOM      8  C   UNL     1      -1.590  -2.674  -1.334  0.00  0.00    -0.033 A 
ATOM      9  C   UNL     1      -0.810  -2.364  -2.432  0.00  0.00    +0.005 A 
ATOM     10  C   UNL     1      -1.171  -2.819  -3.687  0.00  0.00    +0.003 A 
ATOM     11  C   UNL     1      -2.311  -3.585  -3.842  0.00  0.00    +0.033 A 
ATOM     12  C   UNL     1      -3.090  -3.896  -2.744  0.00  0.00    +0.126 A 
ATOM     13  C   UNL     1      -2.727  -3.444  -1.489  0.00  0.00    +0.037 A 
BRANCH  12  14
ATOM     14  N   UNL     1      -4.311  -4.716  -2.911  0.00  0.00    +0.056 N 
ATOM     15  O   UNL     1      -4.627  -5.113  -4.008  0.00  0.00    -0.126 OA
ATOM     16  O   UNL     1      -4.992  -4.988  -1.950  0.00  0.00    -0.126 OA
ENDBRANCH  12  14
ENDBRANCH   4   8
BRANCH   5  17
ATOM     17  C   UNL     1       0.293  -4.062   0.784  0.00  0.00    +0.243 C 
ATOM     18  O   UNL     1      -0.002  -4.394   1.919  0.00  0.00    -0.271 OA
ATOM     19  N   UNL     1       0.744  -4.982  -0.091  0.00  0.00    -0.325 N 
ATOM     20  H   UNL     1       0.978  -4.718  -0.994  0.00  0.00    +0.145 HD
ATOM     21  H   UNL     1       0.834  -5.908   0.182  0.00  0.00    +0.145 HD
ENDBRANCH   5  17
BRANCH   6  22
ATOM     22  N   UNL     1       2.483  -2.454   0.661  0.00  0.00    -0.329 N 
ATOM     23  H   UNL     1       2.566  -3.400   0.858  0.00  0.00    +0.145 HD
ATOM     24  H   UNL     1       3.265  -1.880   0.697  0.00  0.00    +0.145 HD
ENDBRANCH   6  22
BRANCH   3  25
ATOM     25  C   UNL     1      -2.374   0.044   0.065  0.00  0.00    +0.160 C 
ATOM     26  O   UNL     1      -2.360   1.258   0.062  0.00  0.00    -0.293 OA
ATOM     27  C   UNL     1      -3.687  -0.694   0.107  0.00  0.00    +0.091 C 
ENDBRANCH   3  25
TORSDOF 5
