REMARK  Name = ZINC39856146
REMARK  7 active torsions:
REMARK  status: ('A' for Active; 'I' for Inactive)
REMARK    1  A    between atoms: C_1  and  C_2
REMARK    2  A    between atoms: C_6  and  C_7
REMARK    3  A    between atoms: C_15  and  C_23
REMARK    4  A    between atoms: C_15  and  C_24
REMARK    5  A    between atoms: N_18  and  N_19
REMARK    6  A    between atoms: N_19  and  C_20
REMARK    7  A    between atoms: C_20  and  N_22
REMARK                            x       y       z     vdW  Elec       q    Type
REMARK                         _______ _______ _______ _____ _____    ______ ____
ROOT
ATOM      1  C   UNL     1      -0.018   1.503   0.010  0.00  0.00    +0.048 C 
ATOM      2  C   UNL     1       0.002  -0.004   0.002  0.00  0.00    +0.009 A 
ATOM      3  C   UNL     1       0.009  -0.838  -1.123  0.00  0.00    +0.042 A 
ATOM      4  C   UNL     1       0.027  -2.137  -0.673  0.00  0.00    +0.116 A 
ATOM      5  O   UNL     1       0.035  -2.112   0.658  0.00  0.00    -0.454 OA
ATOM      6  C   UNL     1       0.024  -0.830   1.091  0.00  0.00    +0.193 A 
ATOM      7  C   UNL     1       0.034  -3.326  -1.600  0.00  0.00    +0.081 C 
ATOM      8  C   UNL     1      -0.491  -2.903  -2.974  0.00  0.00    -0.023 C 
ATOM      9  C   UNL     1       0.279  -1.685  -3.495  0.00  0.00    +0.064 C 
ATOM     10  C   UNL     1       0.000  -0.512  -2.566  0.00  0.00    +0.070 C 
ATOM     11  N   UNL     1      -0.229   0.686  -3.008  0.00  0.00    -0.185 NA
ATOM     12  C   UNL     1      -0.324  -4.063  -3.957  0.00  0.00    +0.011 C 
ATOM     13  C   UNL     1      -1.976  -2.549  -2.860  0.00  0.00    +0.011 C 
ENDROOT
BRANCH   6  14
ATOM     14  C   UNL     1       0.031  -0.400   2.494  0.00  0.00    +0.282 C 
ATOM     15  O   UNL     1       0.016   0.786   2.766  0.00  0.00    -0.267 OA
ATOM     16  N   UNL     1       0.053  -1.317   3.480  0.00  0.00    -0.295 N 
ATOM     17  C   UNL     1       0.079  -2.775   3.294  0.00  0.00    +0.108 C 
ATOM     18  C   UNL     1       0.072  -3.417   4.697  0.00  0.00    +0.020 C 
ATOM     19  C   UNL     1      -0.528  -2.297   5.588  0.00  0.00    +0.020 C 
ATOM     20  C   UNL     1       0.062  -1.025   4.925  0.00  0.00    +0.108 C 
ENDBRANCH   6  14
BRANCH  11  21
ATOM     21  N   UNL     1      -0.224   0.938  -4.386  0.00  0.00    -0.218 N 
ATOM     22  H   UNL     1      -0.050   0.216  -5.010  0.00  0.00    +0.176 HD
BRANCH  21  23
ATOM     23  C   UNL     1      -0.462   2.183  -4.844  0.00  0.00    +0.147 C 
ATOM     24  S   UNL     1      -0.456   2.490  -6.529  0.00  0.00    -0.017 S 
BRANCH  23  25
ATOM     25  N   UNL     1      -0.704   3.186  -3.977  0.00  0.00    -0.339 N 
ATOM     26  H   UNL     1      -0.707   3.011  -3.023  0.00  0.00    +0.144 HD
ATOM     27  H   UNL     1      -0.875   4.082  -4.307  0.00  0.00    +0.144 HD
ENDBRANCH  23  25
ENDBRANCH  21  23
ENDBRANCH  11  21
TORSDOF 4
