REMARK  Name = ZINC67082013
REMARK  8 active torsions:
REMARK  status: ('A' for Active; 'I' for Inactive)
REMARK    1  A    between atoms: C_1  and  C_2
REMARK    2  A    between atoms: C_9  and  C_11
REMARK    3  A    between atoms: C_11  and  C_13
REMARK    4  A    between atoms: C_11  and  N_14
REMARK    5  A    between atoms: N_17  and  N_18
REMARK    6  A    between atoms: C_19  and  C_21
REMARK    7  A    between atoms: C_21  and  C_22
REMARK    8  A    between atoms: C_22  and  C_23
REMARK                            x       y       z     vdW  Elec       q    Type
REMARK                         _______ _______ _______ _____ _____    ______ ____
ROOT
ATOM      1  N   UNL     1       2.931   0.984   3.745  0.00  0.00    -0.287 N 
ATOM      2  C   UNL     1       4.096   0.872   4.413  0.00  0.00    +0.317 C 
ATOM      3  O   UNL     1       4.717  -0.173   4.382  0.00  0.00    -0.251 OA
ATOM      4  N   UNL     1       4.574   1.919   5.115  0.00  0.00    -0.218 N 
ATOM      5  H   UNL     1       2.436   1.817   3.770  0.00  0.00    +0.151 HD
ATOM      6  H   UNL     1       5.412   1.838   5.595  0.00  0.00    +0.174 HD
ENDROOT
BRANCH   4   7
ATOM      7  N   UNL     1       3.859   3.123   5.150  0.00  0.00    -0.233 N 
ATOM      8  C   UNL     1       4.336   4.170   5.852  0.00  0.00    +0.229 C 
ATOM      9  O   UNL     1       5.385   4.069   6.453  0.00  0.00    -0.274 OA
ATOM     10  H   UNL     1       3.020   3.203   4.669  0.00  0.00    +0.173 HD
BRANCH   8  11
ATOM     11  C   UNL     1       3.567   5.465   5.890  0.00  0.00    +0.097 C 
BRANCH  11  12
ATOM     12  C   UNL     1       4.322   6.481   6.749  0.00  0.00    +0.013 C 
BRANCH  12  13
ATOM     13  C   UNL     1       3.542   7.797   6.788  0.00  0.00    -0.011 C 
ATOM     14  C   UNL     1       3.498   8.405   5.385  0.00  0.00    +0.003 C 
ATOM     15  C   UNL     1       2.718   9.721   5.423  0.00  0.00    +0.000 C 
ATOM     16  C   UNL     1       3.406  10.695   6.381  0.00  0.00    +0.000 C 
ATOM     17  C   UNL     1       3.450  10.086   7.784  0.00  0.00    +0.000 C 
ATOM     18  C   UNL     1       4.230   8.771   7.745  0.00  0.00    +0.003 C 
ENDBRANCH  12  13
ENDBRANCH  11  12
ENDBRANCH   8  11
ENDBRANCH   4   7
BRANCH   1  19
ATOM     19  C   UNL     1       2.412  -0.154   2.982  0.00  0.00    +0.157 C 
ATOM     20  C   UNL     1       1.621  -1.075   3.914  0.00  0.00    +0.038 C 
BRANCH  19  28
ATOM     21  C   UNL     1      -0.046   1.473   0.003  0.00  0.00    +0.028 C 
ATOM     22  C   UNL     1       0.279  -0.008  -0.202  0.00  0.00    +0.073 C 
ATOM     23  C   UNL     1      -1.022  -0.812  -0.291  0.00  0.00    +0.022 C 
ATOM     24  C   UNL     1      -0.691  -2.305  -0.356  0.00  0.00    +0.003 C 
ATOM     25  C   UNL     1       0.049  -2.721   0.917  0.00  0.00    +0.019 C 
ATOM     26  C   UNL     1       1.362  -1.939   1.019  0.00  0.00    +0.108 C 
ATOM     27  N   UNL     1       1.067  -0.502   0.935  0.00  0.00    -0.297 N 
ATOM     28  C   UNL     1       1.508   0.347   1.885  0.00  0.00    +0.236 C 
ATOM     29  O   UNL     1       1.178   1.513   1.857  0.00  0.00    -0.274 OA
ENDBRANCH  19  28
ENDBRANCH   1  19
TORSDOF 6
