REMARK  Name = ZINC08120561
REMARK  7 active torsions:
REMARK  status: ('A' for Active; 'I' for Inactive)
REMARK    1  A    between atoms: C_1  and  N_48
REMARK    2  A    between atoms: C_2  and  C_3
REMARK    3  A    between atoms: C_2  and  N_48
REMARK    4  A    between atoms: C_10  and  C_11
REMARK    5  A    between atoms: C_10  and  N_48
REMARK    6  A    between atoms: N_13  and  C_14
REMARK    7  A    between atoms: C_15  and  C_23
REMARK                            x       y       z     vdW  Elec       q    Type
REMARK                         _______ _______ _______ _____ _____    ______ ____
ROOT
ATOM      1  C   UNL     1      -1.114   1.262  -3.560  0.00  0.00    +0.201 C 
ATOM      2  O   UNL     1      -2.089   1.963  -3.389  0.00  0.00    -0.278 OA
ATOM      3  N   UNL     1      -0.839   0.778  -4.788  0.00  0.00    -0.281 N 
ATOM      4  H   UNL     1      -0.060   0.216  -4.925  0.00  0.00    +0.155 HD
ENDROOT
BRANCH   3   5
ATOM      5  C   UNL     1      -1.671   1.082  -5.855  0.00  0.00    +0.084 A 
ATOM      6  C   UNL     1      -1.552   0.688  -7.180  0.00  0.00    +0.068 A 
ATOM      7  C   UNL     1      -2.569   1.146  -8.111  0.00  0.00    -0.023 A 
ATOM      8  C   UNL     1      -3.530   1.928  -7.573  0.00  0.00    -0.004 A 
ATOM      9  S   UNL     1      -3.105   2.054  -5.859  0.00  0.00    -0.077 S 
ATOM     10  C   UNL     1      -4.694   2.547  -8.285  0.00  0.00    +0.043 C 
ATOM     11  C   UNL     1      -4.433   2.471  -9.796  0.00  0.00    +0.005 C 
ATOM     12  C   UNL     1      -3.984   1.050 -10.148  0.00  0.00    +0.005 C 
ATOM     13  C   UNL     1      -2.581   0.795  -9.594  0.00  0.00    +0.037 C 
BRANCH   6  14
ATOM     14  C   UNL     1      -0.443  -0.163  -7.624  0.00  0.00    +0.244 C 
ATOM     15  O   UNL     1      -0.560  -1.374  -7.605  0.00  0.00    -0.270 OA
ATOM     16  N   UNL     1       0.706   0.396  -8.053  0.00  0.00    -0.325 N 
ATOM     17  H   UNL     1       0.799   1.362  -8.068  0.00  0.00    +0.145 HD
ATOM     18  H   UNL     1       1.439  -0.167  -8.346  0.00  0.00    +0.145 HD
ENDBRANCH   6  14
ENDBRANCH   3   5
BRANCH   1  19
ATOM     19  C   UNL     1      -0.211   0.930  -2.400  0.00  0.00    +0.019 C 
BRANCH  19  21
ATOM     20  C   UNL     1      -0.640   3.036  -1.283  0.00  0.00    -0.095 C 
ATOM     21  N   UNL     1      -0.751   1.565  -1.179  0.00  0.00    +0.386 N 
ATOM     22  H   UNL     1      -1.741   1.312  -1.081  0.00  0.00    -0.081 HD
BRANCH  21  23
ATOM     23  C   UNL     1      -0.013   1.086   0.008  0.00  0.00    -0.043 C 
BRANCH  23  24
ATOM     24  C   UNL     1      -0.718   1.572   1.248  0.00  0.00    -0.064 A 
ATOM     25  C   UNL     1      -0.359   2.779   1.818  0.00  0.00    +0.004 A 
ATOM     26  C   UNL     1      -1.009   3.228   2.953  0.00  0.00    +0.038 A 
ATOM     27  C   UNL     1      -2.012   2.463   3.524  0.00  0.00    +0.123 A 
ATOM     28  C   UNL     1      -2.367   1.252   2.955  0.00  0.00    +0.038 A 
ATOM     29  C   UNL     1      -1.719   0.807   1.817  0.00  0.00    +0.004 A 
ATOM     30  F   UNL     1      -2.644   2.899   4.635  0.00  0.00    -0.205 F 
ENDBRANCH  23  24
ENDBRANCH  21  23
ENDBRANCH  19  21
ENDBRANCH   1  19
TORSDOF 6
