REMARK  Name = ZINC25336441
REMARK  4 active torsions:
REMARK  status: ('A' for Active; 'I' for Inactive)
REMARK    1  A    between atoms: C_1  and  C_2
REMARK    2  A    between atoms: C_4  and  C_15
REMARK    3  A    between atoms: C_5  and  C_14
REMARK    4  A    between atoms: N_6  and  C_7
REMARK                            x       y       z     vdW  Elec       q    Type
REMARK                         _______ _______ _______ _____ _____    ______ ____
ROOT
ATOM      1  C   UNL     1       0.041  -3.353  -1.534  0.00  0.00    +0.211 C 
ATOM      2  N   UNL     1      -0.414  -3.005  -2.892  0.00  0.00    -0.293 N 
ATOM      3  C   UNL     1       0.466  -2.452  -3.784  0.00  0.00    +0.183 C 
ATOM      4  N   UNL     1       1.757  -2.729  -3.738  0.00  0.00    -0.183 NA
ATOM      5  C   UNL     1       2.211  -3.529  -2.746  0.00  0.00    +0.236 A 
ATOM      6  N   UNL     1       1.411  -3.865  -1.663  0.00  0.00    -0.285 N 
ATOM      7  C   UNL     1       2.136  -4.685  -0.853  0.00  0.00    +0.072 A 
ATOM      8  C   UNL     1       1.848  -5.333   0.342  0.00  0.00    +0.028 A 
ATOM      9  C   UNL     1       2.853  -6.107   0.901  0.00  0.00    +0.002 A 
ATOM     10  C   UNL     1       4.095  -6.237   0.306  0.00  0.00    +0.002 A 
ATOM     11  C   UNL     1       4.409  -5.603  -0.882  0.00  0.00    +0.030 A 
ATOM     12  C   UNL     1       3.409  -4.816  -1.467  0.00  0.00    +0.091 A 
ATOM     13  N   UNL     1       3.391  -4.084  -2.604  0.00  0.00    -0.210 NA
ATOM     14  N   UNL     1      -0.003  -1.595  -4.744  0.00  0.00    -0.331 N 
ATOM     15  H   UNL     1      -0.949  -1.385  -4.786  0.00  0.00    +0.145 HD
ATOM     16  H   UNL     1       0.612  -1.198  -5.380  0.00  0.00    +0.145 HD
ATOM     17  H   UNL     1      -1.333  -3.168  -3.154  0.00  0.00    +0.151 HD
ENDROOT
BRANCH   1  21
ATOM     18  C   UNL     1      -0.018   1.503   0.010  0.00  0.00    +0.064 C 
ATOM     19  C   UNL     1       0.002  -0.004   0.002  0.00  0.00    +0.021 A 
ATOM     20  C   UNL     1       0.008  -0.789  -1.095  0.00  0.00    +0.030 A 
ATOM     21  C   UNL     1       0.028  -2.128  -0.656  0.00  0.00    +0.014 A 
ATOM     22  C   UNL     1       0.034  -2.113   0.692  0.00  0.00    +0.028 A 
ATOM     23  N   UNL     1       0.024  -0.811   1.104  0.00  0.00    -0.317 N 
ATOM     24  C   UNL     1       0.053  -3.323   1.589  0.00  0.00    +0.064 C 
BRANCH  23  25
ATOM     25  C   UNL     1       0.031  -0.374   2.436  0.00  0.00    +0.047 A 
ATOM     26  C   UNL     1       1.134  -0.621   3.243  0.00  0.00    +0.027 A 
ATOM     27  C   UNL     1       1.139  -0.190   4.555  0.00  0.00    +0.016 A 
ATOM     28  C   UNL     1       0.046   0.487   5.066  0.00  0.00    +0.014 A 
ATOM     29  C   UNL     1      -1.054   0.734   4.265  0.00  0.00    +0.016 A 
ATOM     30  C   UNL     1      -1.062   0.310   2.950  0.00  0.00    +0.027 A 
ATOM     31  I   UNL     1       0.057   1.138   7.057  0.00  0.00    -0.044 I 
ENDBRANCH  23  25
ENDBRANCH   1  21
TORSDOF 2
