REMARK  Name = ZINC21386509
REMARK  11 active torsions:
REMARK  status: ('A' for Active; 'I' for Inactive)
REMARK    1  A    between atoms: C_1  and  C_2
REMARK    2  A    between atoms: C_2  and  C_3
REMARK    3  A    between atoms: C_3  and  C_4
REMARK    4  A    between atoms: C_4  and  N_5
REMARK    5  A    between atoms: C_6  and  N_29
REMARK    6  A    between atoms: C_7  and  N_14
REMARK    7  A    between atoms: N_14  and  C_15
REMARK    8  A    between atoms: N_14  and  C_17
REMARK    9  A    between atoms: C_15  and  C_16
REMARK   10  A    between atoms: C_17  and  C_18
REMARK   11  A    between atoms: N_23  and  C_24
REMARK                            x       y       z     vdW  Elec       q    Type
REMARK                         _______ _______ _______ _____ _____    ______ ____
ROOT
ATOM      1  N   UNL     1      -0.723   1.572  -1.182  0.00  0.00    -0.315 N 
ENDROOT
BRANCH   1   4
ATOM      2  N   UNL     1      -0.535  -0.444  -4.243  0.00  0.00    -0.280 N 
ATOM      3  C   UNL     1      -1.039   0.146  -3.106  0.00  0.00    +0.127 A 
ATOM      4  C   UNL     1      -0.230   0.954  -2.355  0.00  0.00    +0.134 A 
ATOM      5  C   UNL     1       1.097   1.166  -2.769  0.00  0.00    +0.277 A 
ATOM      6  O   UNL     1       1.835   1.887  -2.119  0.00  0.00    -0.266 OA
ATOM      7  N   UNL     1       1.549   0.563  -3.886  0.00  0.00    -0.273 N 
ATOM      8  H   UNL     1       2.589   0.716  -4.211  0.00  0.00    +0.173 HD
ATOM      9  C   UNL     1       0.740  -0.228  -4.613  0.00  0.00    +0.331 A 
ATOM     10  O   UNL     1       1.169  -0.757  -5.621  0.00  0.00    -0.246 OA
BRANCH   3  11
ATOM     11  N   UNL     1      -2.344  -0.076  -2.728  0.00  0.00    -0.343 N 
ATOM     12  H   UNL     1      -2.741   0.398  -1.819  0.00  0.00    +0.144 HD
ATOM     13  H   UNL     1      -2.989  -0.727  -3.336  0.00  0.00    +0.144 HD
ENDBRANCH   3  11
BRANCH   2  14
ATOM     14  C   UNL     1      -1.393  -1.311  -5.055  0.00  0.00    +0.128 C 
BRANCH  14  15
ATOM     15  C   UNL     1      -2.109  -0.472  -6.115  0.00  0.00    +0.021 C 
BRANCH  15  17
ATOM     16  C   UNL     1      -3.721  -0.539  -8.023  0.00  0.00    +0.004 C 
ATOM     17  C   UNL     1      -3.005  -1.378  -6.963  0.00  0.00    -0.002 C 
ENDBRANCH  15  17
ENDBRANCH  14  15
ENDBRANCH   2  14
ENDBRANCH   1   4
BRANCH   1  18
ATOM     18  C   UNL     1      -0.640   3.036  -1.283  0.00  0.00    +0.102 C 
ATOM     19  C   UNL     1      -1.588   3.526  -2.379  0.00  0.00    +0.024 C 
ENDBRANCH   1  18
BRANCH   1  20
ATOM     20  C   UNL     1      -0.013   1.086   0.008  0.00  0.00    +0.201 C 
BRANCH  20  21
ATOM     21  C   UNL     1      -0.718   1.572   1.248  0.00  0.00    +0.238 C 
ATOM     22  O   UNL     1      -1.714   2.256   1.150  0.00  0.00    -0.274 OA
ATOM     23  N   UNL     1      -0.242   1.246   2.466  0.00  0.00    -0.239 N 
ATOM     24  C   UNL     1      -0.872   1.681   3.575  0.00  0.00    +0.306 C 
ATOM     25  O   UNL     1      -1.871   2.366   3.476  0.00  0.00    -0.252 OA
ATOM     26  N   UNL     1      -0.396   1.355   4.793  0.00  0.00    -0.296 N 
ATOM     27  H   UNL     1       0.662   0.625   2.555  0.00  0.00    +0.159 HD
ATOM     28  H   UNL     1       0.508   0.734   4.881  0.00  0.00    +0.151 HD
BRANCH  26  29
ATOM     29  C   UNL     1      -1.082   1.827   5.998  0.00  0.00    +0.074 C 
ATOM     30  C   UNL     1      -0.546   3.217   6.400  0.00  0.00    +0.022 C 
ATOM     31  C   UNL     1      -0.529   3.184   7.949  0.00  0.00    +0.002 C 
ATOM     32  C   UNL     1      -0.080   1.733   8.254  0.00  0.00    +0.002 C 
ATOM     33  C   UNL     1      -0.785   0.884   7.177  0.00  0.00    +0.022 C 
ENDBRANCH  26  29
ENDBRANCH  20  21
ENDBRANCH   1  20
TORSDOF 9
