REMARK  Name = ZINC67029020
REMARK  5 active torsions:
REMARK  status: ('A' for Active; 'I' for Inactive)
REMARK    1  A    between atoms: C_1  and  C_2
REMARK    2  A    between atoms: C_3  and  C_15
REMARK    3  A    between atoms: C_4  and  C_10
REMARK    4  A    between atoms: N_17  and  C_18
REMARK    5  A    between atoms: C_21  and  N_24
REMARK                            x       y       z     vdW  Elec       q    Type
REMARK                         _______ _______ _______ _____ _____    ______ ____
ROOT
ATOM      1  C   UNL     1      -0.064   1.511  -0.515  0.00  0.00    +0.061 C 
ATOM      2  C   UNL     1      -0.018   0.016  -0.326  0.00  0.00    +0.017 C 
ATOM      3  C   UNL     1      -1.171  -0.666  -0.158  0.00  0.00    +0.057 C 
ATOM      4  C   UNL     1      -1.080  -2.167   0.029  0.00  0.00    +0.158 C 
ATOM      5  N   UNL     1       0.267  -2.762   0.010  0.00  0.00    -0.314 N 
ATOM      6  C   UNL     1       1.325  -1.947  -0.169  0.00  0.00    +0.135 C 
ATOM      7  S   UNL     1       2.897  -2.624  -0.193  0.00  0.00    -0.019 S 
ATOM      8  N   UNL     1       1.187  -0.626  -0.334  0.00  0.00    -0.300 N 
ATOM      9  H   UNL     1       0.390  -3.717   0.124  0.00  0.00    +0.149 HD
ATOM     10  H   UNL     1       1.988  -0.094  -0.463  0.00  0.00    +0.154 HD
ENDROOT
BRANCH   4  11
ATOM     11  C   UNL     1      -1.721  -2.511   1.349  0.00  0.00    +0.073 A 
ATOM     12  C   UNL     1      -2.723  -3.424   1.435  0.00  0.00    +0.072 A 
ATOM     13  S   UNL     1      -3.046  -3.392   3.191  0.00  0.00    -0.084 S 
ATOM     14  C   UNL     1      -1.893  -2.242   3.617  0.00  0.00    +0.156 A 
ATOM     15  N   UNL     1      -1.331  -1.944   2.473  0.00  0.00    -0.250 NA
ENDBRANCH   4  11
BRANCH   3  16
ATOM     16  C   UNL     1      -2.421  -0.002  -0.154  0.00  0.00    +0.248 C 
ATOM     17  O   UNL     1      -2.470   1.205  -0.305  0.00  0.00    -0.270 OA
ATOM     18  N   UNL     1      -3.558  -0.707   0.016  0.00  0.00    -0.282 N 
ATOM     19  H   UNL     1      -3.526  -1.675   0.058  0.00  0.00    +0.155 HD
BRANCH  18  20
ATOM     20  C   UNL     1      -4.782  -0.041   0.131  0.00  0.00    +0.034 A 
ATOM     21  C   UNL     1      -5.942  -0.626  -0.362  0.00  0.00    +0.025 A 
ATOM     22  C   UNL     1      -7.149   0.034  -0.246  0.00  0.00    +0.034 A 
ATOM     23  C   UNL     1      -7.205   1.276   0.360  0.00  0.00    +0.126 A 
ATOM     24  C   UNL     1      -6.053   1.861   0.852  0.00  0.00    +0.034 A 
ATOM     25  C   UNL     1      -4.843   1.204   0.745  0.00  0.00    +0.025 A 
BRANCH  23  26
ATOM     26  N   UNL     1      -8.501   1.980   0.483  0.00  0.00    +0.056 N 
ATOM     27  O   UNL     1      -9.509   1.470   0.053  0.00  0.00    -0.126 OA
ATOM     28  O   UNL     1      -8.552   3.066   1.013  0.00  0.00    -0.126 OA
ENDBRANCH  23  26
ENDBRANCH  18  20
ENDBRANCH   3  16
TORSDOF 4
