REMARK  Name = ZINC12774167
REMARK  4 active torsions:
REMARK  status: ('A' for Active; 'I' for Inactive)
REMARK    1  A    between atoms: C_4  and  C_7
REMARK    2  A    between atoms: C_7  and  C_9
REMARK    3  A    between atoms: C_7  and  N_19
REMARK    4  A    between atoms: C_20  and  C_22
REMARK                            x       y       z     vdW  Elec       q    Type
REMARK                         _______ _______ _______ _____ _____    ______ ____
ROOT
ATOM      1  C   UNL     1       3.711  -0.707  -0.038  0.00  0.00    +0.134 C 
ENDROOT
BRANCH   1   2
ATOM      2  C   UNL     1       4.044  -1.175   1.356  0.00  0.00    -0.021 A 
ATOM      3  C   UNL     1       3.450  -2.325   1.857  0.00  0.00    +0.008 A 
ATOM      4  C   UNL     1       3.739  -2.765   3.118  0.00  0.00    +0.030 A 
ATOM      5  C   UNL     1       4.640  -2.054   3.914  0.00  0.00    +0.089 A 
ATOM      6  C   UNL     1       5.241  -0.890   3.408  0.00  0.00    +0.066 A 
ATOM      7  C   UNL     1       4.940  -0.460   2.122  0.00  0.00    +0.033 A 
ATOM      8  N   UNL     1       6.066  -0.420   4.410  0.00  0.00    -0.344 N 
ATOM      9  H   UNL     1       6.623   0.373   4.371  0.00  0.00    +0.167 HD
ATOM     10  C   UNL     1       5.952  -1.275   5.462  0.00  0.00    +0.197 A 
ATOM     11  N   UNL     1       5.119  -2.231   5.173  0.00  0.00    -0.236 NA
ENDBRANCH   1   2
BRANCH   1  15
ATOM     12  C   UNL     1      -0.017   1.378   0.010  0.00  0.00    +0.000 A 
ATOM     13  C   UNL     1       1.171   2.086   0.002  0.00  0.00    +0.000 A 
ATOM     14  C   UNL     1       2.377   1.411  -0.013  0.00  0.00    +0.006 A 
ATOM     15  C   UNL     1       2.396   0.029  -0.020  0.00  0.00    -0.023 A 
ATOM     16  C   UNL     1       1.208  -0.679  -0.012  0.00  0.00    +0.006 A 
ATOM     17  C   UNL     1       0.002  -0.004   0.002  0.00  0.00    +0.000 A 
ENDBRANCH   1  15
BRANCH   1  18
ATOM     18  N   UNL     1       3.611  -1.865  -0.930  0.00  0.00    -0.301 N 
ATOM     19  C   UNL     1       3.825  -1.716  -2.253  0.00  0.00    +0.245 C 
ATOM     20  O   UNL     1       4.100  -0.621  -2.705  0.00  0.00    -0.270 OA
ATOM     21  H   UNL     1       3.392  -2.738  -0.569  0.00  0.00    +0.150 HD
BRANCH  19  22
ATOM     22  C   UNL     1       3.724  -2.881  -3.151  0.00  0.00    +0.039 A 
ATOM     23  C   UNL     1       3.402  -4.138  -2.632  0.00  0.00    +0.014 A 
ATOM     24  C   UNL     1       3.309  -5.229  -3.469  0.00  0.00    +0.017 A 
ATOM     25  C   UNL     1       3.534  -5.076  -4.831  0.00  0.00    +0.029 A 
ATOM     26  C   UNL     1       3.854  -3.823  -5.357  0.00  0.00    +0.048 A 
ATOM     27  C   UNL     1       3.946  -2.727  -4.524  0.00  0.00    +0.037 A 
ATOM     28  N   UNL     1       4.074  -3.691  -6.738  0.00  0.00    -0.285 N 
ATOM     29  C   UNL     1       3.183  -4.173  -7.613  0.00  0.00    +0.218 C 
ATOM     30  O   UNL     1       3.474  -4.225  -8.790  0.00  0.00    -0.275 OA
ATOM     31  C   UNL     1       1.833  -4.649  -7.168  0.00  0.00    +0.107 C 
ATOM     32  C   UNL     1       1.875  -6.150  -6.833  0.00  0.00    +0.083 C 
ATOM     33  S   UNL     1       3.423  -6.462  -5.918  0.00  0.00    -0.123 S 
ATOM     34  H   UNL     1       4.875  -3.248  -7.059  0.00  0.00    +0.155 HD
ENDBRANCH  19  22
ENDBRANCH   1  18
TORSDOF 4
