REMARK  Name = ZINC44320451
REMARK  10 active torsions:
REMARK  status: ('A' for Active; 'I' for Inactive)
REMARK    1  A    between atoms: C_1  and  O_2
REMARK    2  A    between atoms: O_2  and  C_3
REMARK    3  A    between atoms: C_5  and  C_11
REMARK    4  A    between atoms: C_8  and  O_9
REMARK    5  A    between atoms: C_11  and  CA_12
REMARK    6  A    between atoms: CA_12  and  C_14
REMARK    7  A    between atoms: CA_12  and  N_17
REMARK    8  A    between atoms: C_18  and  O_20
REMARK    9  A    between atoms: O_20  and  C_21
REMARK   10  A    between atoms: C_21  and  C_22
REMARK                            x       y       z     vdW  Elec       q    Type
REMARK                         _______ _______ _______ _____ _____    ______ ____
ROOT
ATOM      1  N   UNL     1       4.623  -0.583  -3.885  0.00  0.00    -0.267 N 
ATOM      2  C   UNL     1       5.751  -0.686  -3.154  0.00  0.00    +0.401 C 
ATOM      3  O   UNL     1       6.139   0.260  -2.498  0.00  0.00    -0.226 OA
ATOM      4  H   UNL     1       4.314  -1.338  -4.409  0.00  0.00    +0.153 HD
ENDROOT
BRANCH   1   5
ATOM      5  CA  UNL     1       3.865   0.671  -3.888  0.00  0.00    +0.193 C 
BRANCH   5   6
ATOM      6  C   UNL     1       4.446   1.607  -4.916  0.00  0.00    +0.376 C 
ATOM      7  O   UNL     1       4.380   2.813  -4.749  0.00  0.00    -0.244 OA
ATOM      8  OXT UNL     1       4.981   1.158  -5.916  0.00  0.00    -0.244 OA
ENDBRANCH   5   6
BRANCH   5   9
ATOM      9  C   UNL     1       2.402   0.381  -4.230  0.00  0.00    +0.069 C 
BRANCH   9  12
ATOM     10  C   UNL     1       0.606  -0.608  -1.056  0.00  0.00    +0.163 A 
ATOM     11  C   UNL     1       1.173   0.159  -2.062  0.00  0.00    +0.053 A 
ATOM     12  C   UNL     1       1.787  -0.455  -3.138  0.00  0.00    -0.040 A 
ATOM     13  C   UNL     1       1.837  -1.835  -3.214  0.00  0.00    +0.027 A 
ATOM     14  C   UNL     1       1.273  -2.606  -2.213  0.00  0.00    +0.086 A 
ATOM     15  C   UNL     1       0.662  -1.996  -1.129  0.00  0.00    +0.177 A 
ATOM     16 CL   UNL     1       1.337  -4.338  -2.312  0.00  0.00    -0.080 Cl
BRANCH  10  18
ATOM     17  C   UNL     1      -0.017   1.425   0.010  0.00  0.00    +0.277 C 
ATOM     18  O   UNL     1       0.002  -0.004   0.002  0.00  0.00    -0.491 OA
ENDBRANCH  10  18
BRANCH  15  19
ATOM     19  O   UNL     1       0.112  -2.752  -0.141  0.00  0.00    -0.502 OA
ATOM     20  H   UNL     1      -0.816  -2.979  -0.290  0.00  0.00    +0.292 HD
ENDBRANCH  15  19
ENDBRANCH   9  12
ENDBRANCH   5   9
ENDBRANCH   1   5
BRANCH   2  21
ATOM     21  O   UNL     1       6.448  -1.838  -3.152  0.00  0.00    -0.449 OA
BRANCH  21  22
ATOM     22  C   UNL     1       7.633  -1.878  -2.354  0.00  0.00    +0.246 C 
BRANCH  22  23
ATOM     23  C   UNL     1       8.285  -3.257  -2.477  0.00  0.00    +0.088 C 
ATOM     24  C   UNL     1       8.831  -3.451  -3.870  0.00  0.00    -0.029 A 
ATOM     25  C   UNL     1       8.225  -3.463  -5.108  0.00  0.00    +0.005 A 
ATOM     26  C   UNL     1       8.982  -3.668  -6.248  0.00  0.00    +0.000 A 
ATOM     27  C   UNL     1      10.348  -3.862  -6.148  0.00  0.00    +0.001 A 
ATOM     28  C   UNL     1      10.963  -3.853  -4.913  0.00  0.00    +0.009 A 
ATOM     29  C   UNL     1      10.205  -3.646  -3.759  0.00  0.00    -0.014 A 
ATOM     30  C   UNL     1      10.598  -3.587  -2.329  0.00  0.00    -0.014 A 
ATOM     31  C   UNL     1       9.469  -3.356  -1.547  0.00  0.00    -0.029 A 
ATOM     32  C   UNL     1       9.580  -3.261  -0.176  0.00  0.00    +0.005 A 
ATOM     33  C   UNL     1      10.817  -3.394   0.430  0.00  0.00    +0.000 A 
ATOM     34  C   UNL     1      11.944  -3.624  -0.339  0.00  0.00    +0.001 A 
ATOM     35  C   UNL     1      11.842  -3.721  -1.711  0.00  0.00    +0.009 A 
ENDBRANCH  22  23
ENDBRANCH  21  22
ENDBRANCH   2  21
TORSDOF 9
