REMARK  Name = ZINC39353580
REMARK  5 active torsions:
REMARK  status: ('A' for Active; 'I' for Inactive)
REMARK    1  A    between atoms: C_1  and  C_2
REMARK    2  A    between atoms: C_7  and  C_19
REMARK    3  A    between atoms: C_15  and  O_18
REMARK    4  A    between atoms: C_19  and  N_20
REMARK    5  A    between atoms: N_20  and  C_21
REMARK                            x       y       z     vdW  Elec       q    Type
REMARK                         _______ _______ _______ _____ _____    ______ ____
ROOT
ATOM      1  C   UNL     1      -0.732   1.154  -1.166  0.00  0.00    +0.044 C 
ATOM      2  C   UNL     1      -0.460  -0.312  -0.946  0.00  0.00    -0.048 A 
ATOM      3  C   UNL     1      -0.222  -1.136  -2.043  0.00  0.00    +0.004 A 
ATOM      4  C   UNL     1       0.027  -2.465  -1.877  0.00  0.00    +0.010 A 
ATOM      5  C   UNL     1       0.043  -3.012  -0.585  0.00  0.00    -0.001 A 
ATOM      6  C   UNL     1       0.297  -4.383  -0.373  0.00  0.00    +0.018 A 
ATOM      7  C   UNL     1       0.299  -4.849   0.907  0.00  0.00    +0.005 A 
ATOM      8  C   UNL     1       0.052  -3.970   1.971  0.00  0.00    +0.104 A 
ATOM      9  N   UNL     1      -0.185  -2.690   1.767  0.00  0.00    -0.343 N 
ATOM     10  C   UNL     1      -0.199  -2.176   0.532  0.00  0.00    +0.048 A 
ATOM     11  C   UNL     1      -0.446  -0.808   0.321  0.00  0.00    +0.029 A 
ATOM     12  N   UNL     1       0.056  -4.459   3.269  0.00  0.00    -0.316 N 
ATOM     13  C   UNL     1      -1.199  -4.849   3.926  0.00  0.00    +0.109 C 
ATOM     14  C   UNL     1      -1.304  -4.111   5.265  0.00  0.00    +0.050 C 
ATOM     15  C   UNL     1      -0.047  -4.387   6.094  0.00  0.00    +0.118 C 
ATOM     16  C   UNL     1       1.183  -3.864   5.349  0.00  0.00    +0.050 C 
ATOM     17  C   UNL     1       1.317  -4.604   4.010  0.00  0.00    +0.109 C 
ATOM     18  H   UNL     1      -0.352  -2.110   2.526  0.00  0.00    +0.167 HD
ENDROOT
BRANCH  15  19
ATOM     19  O   UNL     1      -0.156  -3.727   7.357  0.00  0.00    -0.392 OA
ATOM     20  H   UNL     1       0.607  -3.858   7.936  0.00  0.00    +0.210 HD
ENDBRANCH  15  19
BRANCH   7  21
ATOM     21  C   UNL     1       0.565  -6.307   1.178  0.00  0.00    +0.120 C 
BRANCH  21  22
ATOM     22  N   UNL     1      -0.708  -7.003   1.408  0.00  0.00    -0.302 NA
ATOM     23  H   UNL     1      -1.195  -6.614   2.201  0.00  0.00    +0.123 HD
BRANCH  22  24
ATOM     24  C   UNL     1      -0.496  -8.447   1.577  0.00  0.00    +0.141 C 
ATOM     25  C   UNL     1      -1.648  -9.044   2.389  0.00  0.00    +0.028 C 
ATOM     26  C   UNL     1      -2.954  -8.341   2.068  0.00  0.00    +0.003 C 
ATOM     27  C   UNL     1      -3.442  -8.573   0.649  0.00  0.00    +0.019 C 
ATOM     28  C   UNL     1      -2.502  -7.919  -0.365  0.00  0.00    +0.104 C 
ATOM     29  N   UNL     1      -1.416  -8.862  -0.678  0.00  0.00    -0.314 N 
ATOM     30  C   UNL     1      -0.460  -9.119   0.221  0.00  0.00    +0.230 C 
ATOM     31  O   UNL     1       0.434  -9.894  -0.046  0.00  0.00    -0.274 OA
ATOM     32  H   UNL     1      -1.392  -9.300  -1.543  0.00  0.00    +0.149 HD
ENDBRANCH  22  24
ENDBRANCH  21  22
ENDBRANCH   7  21
TORSDOF 4
