REMARK  Name = ZINC16612547
REMARK  6 active torsions:
REMARK  status: ('A' for Active; 'I' for Inactive)
REMARK    1  A    between atoms: C_4  and  N_7
REMARK    2  A    between atoms: N_9  and  C_17
REMARK    3  A    between atoms: C_17  and  C_18
REMARK    4  A    between atoms: N_20  and  C_21
REMARK    5  A    between atoms: C_21  and  C_22
REMARK    6  A    between atoms: C_22  and  C_23
REMARK                            x       y       z     vdW  Elec       q    Type
REMARK                         _______ _______ _______ _____ _____    ______ ____
ROOT
ATOM      1  N   UNL     1       2.353   3.888   0.001  0.00  0.00    -0.300 N 
ATOM      2  C   UNL     1       3.052   3.767   1.302  0.00  0.00    +0.217 C 
ATOM      3  N   UNL     1       3.717   5.056   1.531  0.00  0.00    -0.275 N 
ATOM      4  C   UNL     1       3.174   5.994   0.726  0.00  0.00    +0.241 C 
ATOM      5  O   UNL     1       3.493   7.163   0.682  0.00  0.00    -0.273 OA
ATOM      6  C   UNL     1       2.101   5.340  -0.109  0.00  0.00    +0.109 C 
ATOM      7  C   UNL     1       0.718   5.676   0.441  0.00  0.00    +0.016 C 
ATOM      8  C   UNL     1       0.458   7.176   0.278  0.00  0.00    -0.080 C 
ATOM      9  C   UNL     1       1.907   7.280  -1.664  0.00  0.00    -0.080 C 
ATOM     10  C   UNL     1       2.215   5.784  -1.565  0.00  0.00    +0.016 C 
ATOM     11  N   UNL     1       0.549   7.543  -1.149  0.00  0.00    +0.379 N 
ATOM     12  H   UNL     1       0.335   8.542  -1.255  0.00  0.00    -0.086 HD
ATOM     13  H   UNL     1      -0.129   6.989  -1.684  0.00  0.00    -0.086 HD
ENDROOT
BRANCH   1  17
ATOM     14  C   UNL     1      -1.222   1.754   0.024  0.00  0.00    +0.000 A 
ATOM     15  C   UNL     1      -0.915   2.574  -1.046  0.00  0.00    +0.002 A 
ATOM     16  C   UNL     1       0.269   3.285  -1.056  0.00  0.00    +0.023 A 
ATOM     17  C   UNL     1       1.155   3.171   0.008  0.00  0.00    +0.032 A 
ATOM     18  C   UNL     1       0.846   2.341   1.079  0.00  0.00    +0.023 A 
ATOM     19  C   UNL     1      -0.340   1.633   1.083  0.00  0.00    +0.002 A 
ENDBRANCH   1  17
BRANCH   3  20
ATOM     20  C   UNL     1       4.803   5.289   2.486  0.00  0.00    +0.205 C 
BRANCH  20  21
ATOM     21  C   UNL     1       4.224   5.681   3.820  0.00  0.00    +0.230 C 
ATOM     22  O   UNL     1       3.021   5.759   3.960  0.00  0.00    -0.274 OA
ATOM     23  N   UNL     1       5.041   5.946   4.858  0.00  0.00    -0.314 N 
ATOM     24  H   UNL     1       6.003   5.884   4.747  0.00  0.00    +0.149 HD
BRANCH  23  25
ATOM     25  C   UNL     1       4.478   6.328   6.156  0.00  0.00    +0.109 C 
BRANCH  25  26
ATOM     26  C   UNL     1       5.612   6.571   7.153  0.00  0.00    +0.055 C 
BRANCH  26  27
ATOM     27  C   UNL     1       5.033   6.963   8.487  0.00  0.00    -0.027 A 
ATOM     28  C   UNL     1       4.922   6.024   9.496  0.00  0.00    +0.006 A 
ATOM     29  C   UNL     1       4.391   6.384  10.720  0.00  0.00    +0.020 A 
ATOM     30  C   UNL     1       3.970   7.684  10.937  0.00  0.00    +0.042 A 
ATOM     31  C   UNL     1       4.080   8.624   9.928  0.00  0.00    +0.040 A 
ATOM     32  C   UNL     1       4.617   8.264   8.705  0.00  0.00    +0.046 A 
ATOM     33 CL   UNL     1       4.762   9.445   7.440  0.00  0.00    -0.083 Cl
ATOM     34 CL   UNL     1       3.302   8.135  12.475  0.00  0.00    -0.083 Cl
ENDBRANCH  26  27
ENDBRANCH  25  26
ENDBRANCH  23  25
ENDBRANCH  20  21
ENDBRANCH   3  20
TORSDOF 6
