REMARK  Name = ZINC05164316
REMARK  10 active torsions:
REMARK  status: ('A' for Active; 'I' for Inactive)
REMARK    1  A    between atoms: C_1  and  C_2
REMARK    2  A    between atoms: C_2  and  O_3
REMARK    3  A    between atoms: O_3  and  C_4
REMARK    4  A    between atoms: C_7  and  C_10
REMARK    5  A    between atoms: C_17  and  N_32
REMARK    6  A    between atoms: C_18  and  C_30
REMARK    7  A    between atoms: C_19  and  C_21
REMARK    8  A    between atoms: C_24  and  O_27
REMARK    9  A    between atoms: O_27  and  C_28
REMARK   10  A    between atoms: C_28  and  C_29
REMARK                            x       y       z     vdW  Elec       q    Type
REMARK                         _______ _______ _______ _____ _____    ______ ____
ROOT
ATOM      1  C   UNL     1       1.104  -5.970   1.762  0.00  0.00    +0.074 A 
ATOM      2  C   UNL     1       0.998  -6.695   2.901  0.00  0.00    +0.054 A 
ATOM      3  C   UNL     1       1.193  -8.052   2.576  0.00  0.00    +0.245 A 
ATOM      4  N   UNL     1       1.409  -8.139   1.294  0.00  0.00    -0.135 NA
ATOM      5  N   UNL     1       1.354  -6.848   0.746  0.00  0.00    -0.273 N 
ATOM      6  H   UNL     1       1.475  -6.619  -0.189  0.00  0.00    +0.189 HD
ATOM      7  O   UNL     1       1.143  -9.033   3.517  0.00  0.00    -0.421 OA
ATOM      8  C   UNL     1       0.635  -8.711   4.723  0.00  0.00    +0.201 C 
ATOM      9  C   UNL     1       0.416  -7.450   5.149  0.00  0.00    +0.098 C 
ATOM     10  C   UNL     1       0.724  -6.235   4.311  0.00  0.00    +0.102 C 
ENDROOT
BRANCH   1  14
ATOM     11  C   UNL     1       0.712  -1.752   1.411  0.00  0.00    +0.121 A 
ATOM     12  C   UNL     1       1.775  -2.402   0.797  0.00  0.00    +0.046 A 
ATOM     13  C   UNL     1       1.905  -3.771   0.909  0.00  0.00    +0.013 A 
ATOM     14  C   UNL     1       0.968  -4.502   1.640  0.00  0.00    +0.000 A 
ATOM     15  C   UNL     1      -0.098  -3.844   2.256  0.00  0.00    +0.013 A 
ATOM     16  C   UNL     1      -0.219  -2.476   2.144  0.00  0.00    +0.046 A 
BRANCH  11  17
ATOM     17  O   UNL     1       0.587  -0.404   1.299  0.00  0.00    -0.492 OA
BRANCH  17  19
ATOM     18  C   UNL     1       1.275   1.777   0.518  0.00  0.00    +0.048 C 
ATOM     19  C   UNL     1       1.580   0.278   0.530  0.00  0.00    +0.225 C 
ENDBRANCH  17  19
ENDBRANCH  11  17
ENDBRANCH   1  14
BRANCH  10  20
ATOM     20  C   UNL     1       1.938  -5.532   4.861  0.00  0.00    -0.034 A 
ATOM     21  C   UNL     1       3.158  -6.183   4.892  0.00  0.00    +0.008 A 
ATOM     22  C   UNL     1       4.272  -5.540   5.397  0.00  0.00    +0.046 A 
ATOM     23  C   UNL     1       4.166  -4.241   5.871  0.00  0.00    +0.121 A 
ATOM     24  C   UNL     1       2.942  -3.590   5.838  0.00  0.00    +0.046 A 
ATOM     25  C   UNL     1       1.832  -4.235   5.328  0.00  0.00    +0.008 A 
BRANCH  23  26
ATOM     26  O   UNL     1       5.261  -3.607   6.368  0.00  0.00    -0.492 OA
BRANCH  26  27
ATOM     27  C   UNL     1       5.078  -2.270   6.839  0.00  0.00    +0.225 C 
ATOM     28  C   UNL     1       6.411  -1.726   7.357  0.00  0.00    +0.048 C 
ENDBRANCH  26  27
ENDBRANCH  23  26
ENDBRANCH  10  20
BRANCH   8  29
ATOM     29  N   UNL     1       0.318  -9.738   5.578  0.00  0.00    -0.328 N 
ATOM     30  H   UNL     1       0.463 -10.658   5.305  0.00  0.00    +0.145 HD
ATOM     31  H   UNL     1      -0.050  -9.544   6.454  0.00  0.00    +0.145 HD
ENDBRANCH   8  29
BRANCH   9  32
ATOM     32  C   UNL     1      -0.135  -7.256   6.457  0.00  0.00    +0.101 C 
ATOM     33  N   UNL     1      -0.571  -7.102   7.494  0.00  0.00    -0.191 NA
ENDBRANCH   9  32
TORSDOF 8
