REMARK  Name = ZINC40827005
REMARK  9 active torsions:
REMARK  status: ('A' for Active; 'I' for Inactive)
REMARK    1  A    between atoms: C_1  and  C_2
REMARK    2  A    between atoms: C_4  and  C_35
REMARK    3  A    between atoms: C_10  and  C_11
REMARK    4  A    between atoms: C_11  and  C_12
REMARK    5  A    between atoms: N_14  and  N_15
REMARK    6  A    between atoms: C_22  and  C_34
REMARK    7  A    between atoms: C_23  and  C_25
REMARK    8  A    between atoms: C_25  and  O_27
REMARK    9  A    between atoms: O_27  and  C_28
REMARK                            x       y       z     vdW  Elec       q    Type
REMARK                         _______ _______ _______ _____ _____    ______ ____
ROOT
ATOM      1  N   UNL     1       2.642  -7.091  -2.138  0.00  0.00    -0.184 NA
ATOM      2  C   UNL     1       2.881  -8.144  -2.856  0.00  0.00    +0.070 C 
ATOM      3  C   UNL     1       1.769  -9.007  -3.434  0.00  0.00    +0.058 C 
ATOM      4  C   UNL     1       2.160 -10.478  -3.255  0.00  0.00    +0.014 C 
ATOM      5  C   UNL     1       3.412 -10.808  -4.073  0.00  0.00    +0.075 C 
ATOM      6  C   UNL     1       4.504  -9.823  -3.736  0.00  0.00    +0.115 A 
ATOM      7  C   UNL     1       4.255  -8.591  -3.177  0.00  0.00    +0.042 A 
ATOM      8  C   UNL     1       5.487  -7.949  -3.006  0.00  0.00    +0.011 A 
ATOM      9  C   UNL     1       6.437  -8.813  -3.475  0.00  0.00    +0.215 A 
ATOM     10  O   UNL     1       5.818  -9.940  -3.905  0.00  0.00    -0.452 OA
ATOM     11  C   UNL     1       5.719  -6.579  -2.422  0.00  0.00    +0.048 C 
ENDROOT
BRANCH   1  14
ATOM     12  C   UNL     1       1.071  -5.620  -1.119  0.00  0.00    +0.237 C 
ATOM     13  O   UNL     1       1.992  -4.960  -0.683  0.00  0.00    -0.274 OA
ATOM     14  N   UNL     1       1.320  -6.714  -1.865  0.00  0.00    -0.206 N 
ATOM     15  H   UNL     1       0.584  -7.242  -2.212  0.00  0.00    +0.177 HD
BRANCH  12  16
ATOM     16  C   UNL     1      -0.350  -5.215  -0.825  0.00  0.00    +0.136 C 
BRANCH  16  26
ATOM     17  C   UNL     1      -0.061  -2.647   5.561  0.00  0.00    +0.044 C 
ATOM     18  C   UNL     1      -0.133  -3.080   4.119  0.00  0.00    -0.047 A 
ATOM     19  C   UNL     1      -0.092  -4.431   3.805  0.00  0.00    +0.007 A 
ATOM     20  C   UNL     1      -0.156  -4.842   2.503  0.00  0.00    -0.039 A 
ATOM     21  C   UNL     1      -0.263  -3.896   1.485  0.00  0.00    +0.027 A 
ATOM     22  C   UNL     1      -0.305  -2.526   1.796  0.00  0.00    +0.136 A 
ATOM     23  C   UNL     1      -0.244  -2.131   3.126  0.00  0.00    +0.050 A 
ATOM     24  O   UNL     1      -0.409  -1.854   0.632  0.00  0.00    -0.463 OA
ATOM     25  C   UNL     1      -0.437  -2.702  -0.411  0.00  0.00    +0.200 A 
ATOM     26  C   UNL     1      -0.353  -3.968   0.021  0.00  0.00    +0.007 A 
ATOM     27  C   UNL     1      -0.111  -6.311   2.169  0.00  0.00    +0.044 C 
ENDBRANCH  16  26
ENDBRANCH  12  16
ENDBRANCH   1  14
BRANCH   9  28
ATOM     28  C   UNL     1       7.881  -8.567  -3.498  0.00  0.00    +0.380 C 
ATOM     29  O   UNL     1       8.326  -7.518  -3.075  0.00  0.00    -0.241 OA
BRANCH  28  30
ATOM     30  O   UNL     1       8.717  -9.505  -3.990  0.00  0.00    -0.420 OA
BRANCH  30  31
ATOM     31  C   UNL     1      10.054  -9.276  -3.903  0.00  0.00    +0.132 A 
ATOM     32  C   UNL     1      10.684  -9.296  -2.667  0.00  0.00    +0.046 A 
ATOM     33  C   UNL     1      12.043  -9.063  -2.582  0.00  0.00    +0.004 A 
ATOM     34  C   UNL     1      12.775  -8.810  -3.727  0.00  0.00    +0.000 A 
ATOM     35  C   UNL     1      12.150  -8.790  -4.960  0.00  0.00    +0.004 A 
ATOM     36  C   UNL     1      10.793  -9.028  -5.052  0.00  0.00    +0.046 A 
ENDBRANCH  30  31
ENDBRANCH  28  30
ENDBRANCH   9  28
TORSDOF 6
