REMARK  Name = ZINC08859183
REMARK  13 active torsions:
REMARK  status: ('A' for Active; 'I' for Inactive)
REMARK    1  A    between atoms: C_1  and  C_2
REMARK    2  A    between atoms: C_2  and  O_3
REMARK    3  A    between atoms: O_3  and  C_4
REMARK    4  A    between atoms: C_4  and  C_6
REMARK    5  A    between atoms: C_9  and  N_12
REMARK    6  A    between atoms: N_12  and  C_13
REMARK    7  A    between atoms: C_13  and  N_15
REMARK    8  A    between atoms: N_15  and  C_16
REMARK    9  A    between atoms: C_16  and  C_18
REMARK   10  A    between atoms: C_16  and  N_22
REMARK   11  A    between atoms: C_23  and  C_25
REMARK   12  A    between atoms: C_25  and  C_26
REMARK   13  A    between atoms: C_29  and  C_32
REMARK                            x       y       z     vdW  Elec       q    Type
REMARK                         _______ _______ _______ _____ _____    ______ ____
ROOT
ATOM      1  N   UNL     1       2.411   6.588   3.602  0.00  0.00    -0.305 N 
ATOM      2  H   UNL     1       2.768   7.349   3.118  0.00  0.00    +0.150 HD
ENDROOT
BRANCH   1   3
ATOM      3  C   UNL     1       3.222   5.847   4.384  0.00  0.00    +0.136 C 
ATOM      4  S   UNL     1       2.593   4.504   5.239  0.00  0.00    -0.019 S 
BRANCH   3   5
ATOM      5  N   UNL     1       4.527   6.164   4.492  0.00  0.00    -0.297 N 
ATOM      6  H   UNL     1       4.901   6.874   3.947  0.00  0.00    +0.154 HD
BRANCH   5  10
ATOM      7  C   UNL     1       6.957   4.095   7.168  0.00  0.00    +0.059 A 
ATOM      8  C   UNL     1       7.430   4.408   5.889  0.00  0.00    +0.017 A 
ATOM      9  C   UNL     1       6.624   5.092   5.008  0.00  0.00    +0.024 A 
ATOM     10  C   UNL     1       5.340   5.471   5.387  0.00  0.00    +0.033 A 
ATOM     11  C   UNL     1       4.869   5.167   6.660  0.00  0.00    +0.024 A 
ATOM     12  C   UNL     1       5.667   4.478   7.545  0.00  0.00    +0.017 A 
BRANCH   7  13
ATOM     13  C   UNL     1       7.818   3.362   8.115  0.00  0.00    +0.339 C 
ATOM     14  O   UNL     1       8.939   3.029   7.785  0.00  0.00    -0.245 OA
BRANCH  13  15
ATOM     15  O   UNL     1       7.361   3.062   9.346  0.00  0.00    -0.461 OA
BRANCH  15  17
ATOM     16  C   UNL     1       7.573   2.089  11.569  0.00  0.00    +0.048 C 
ATOM     17  C   UNL     1       8.262   2.339  10.226  0.00  0.00    +0.229 C 
ENDBRANCH  15  17
ENDBRANCH  13  15
ENDBRANCH   7  13
ENDBRANCH   5  10
ENDBRANCH   3   5
ENDBRANCH   1   3
BRANCH   1  18
ATOM     18  C   UNL     1       0.992   6.244   3.485  0.00  0.00    +0.211 C 
BRANCH  18  19
ATOM     19  C   UNL     1       0.148   7.515   3.602  0.00  0.00    +0.225 C 
ATOM     20 CL   UNL     1      -1.599   7.091   3.457  0.00  0.00    -0.080 Cl
ATOM     21 CL   UNL     1       0.448   8.290   5.201  0.00  0.00    -0.080 Cl
ATOM     22 CL   UNL     1       0.600   8.660   2.284  0.00  0.00    -0.080 Cl
ENDBRANCH  18  19
BRANCH  18  23
ATOM     23  N   UNL     1       0.749   5.614   2.185  0.00  0.00    -0.293 N 
ATOM     24  C   UNL     1       0.552   4.283   2.108  0.00  0.00    +0.219 C 
ATOM     25  O   UNL     1       0.577   3.607   3.114  0.00  0.00    -0.275 OA
ATOM     26  H   UNL     1       0.729   6.154   1.380  0.00  0.00    +0.151 HD
BRANCH  24  27
ATOM     27  C   UNL     1       0.302   3.634   0.770  0.00  0.00    +0.131 C 
BRANCH  27  28
ATOM     28  C   UNL     1       0.115   2.151   0.959  0.00  0.00    -0.039 A 
ATOM     29  C   UNL     1      -1.148   1.636   1.185  0.00  0.00    +0.004 A 
ATOM     30  C   UNL     1      -1.319   0.275   1.357  0.00  0.00    +0.003 A 
ATOM     31  C   UNL     1      -0.227  -0.571   1.302  0.00  0.00    -0.050 A 
ATOM     32  C   UNL     1       1.036  -0.056   1.076  0.00  0.00    +0.003 A 
ATOM     33  C   UNL     1       1.207   1.304   0.904  0.00  0.00    +0.004 A 
ATOM     34  C   UNL     1      -0.414  -2.054   1.490  0.00  0.00    +0.044 C 
ENDBRANCH  27  28
ENDBRANCH  24  27
ENDBRANCH  18  23
ENDBRANCH   1  18
TORSDOF 11
