REMARK  Name = ZINC40411644
REMARK  5 active torsions:
REMARK  status: ('A' for Active; 'I' for Inactive)
REMARK    1  A    between atoms: C_1  and  C_2
REMARK    2  A    between atoms: C_7  and  C_8
REMARK    3  A    between atoms: C_8  and  C_10
REMARK    4  A    between atoms: C_8  and  N_11
REMARK    5  A    between atoms: C_12  and  C_14
REMARK                            x       y       z     vdW  Elec       q    Type
REMARK                         _______ _______ _______ _____ _____    ______ ____
ROOT
ATOM      1  N   UNL     1      -0.537  -0.808   3.554  0.00  0.00    -0.304 N 
ATOM      2  C   UNL     1      -1.190  -0.255   4.595  0.00  0.00    +0.260 C 
ATOM      3  O   UNL     1      -1.312   0.954   4.663  0.00  0.00    -0.269 OA
ATOM      4  H   UNL     1      -0.440  -1.772   3.500  0.00  0.00    +0.150 HD
ENDROOT
BRANCH   2   5
ATOM      5  C   UNL     1      -1.753  -1.109   5.646  0.00  0.00    +0.121 C 
ATOM      6  N   UNL     1      -1.613  -2.396   5.568  0.00  0.00    -0.180 NA
ATOM      7  N   UNL     1      -2.138  -3.242   6.550  0.00  0.00    -0.207 N 
ATOM      8  C   UNL     1      -3.108  -2.807   7.378  0.00  0.00    +0.233 C 
ATOM      9  O   UNL     1      -3.563  -3.546   8.224  0.00  0.00    -0.274 OA
ATOM     10  C   UNL     1      -3.626  -1.397   7.247  0.00  0.00    +0.104 C 
ATOM     11  C   UNL     1      -2.480  -0.480   6.805  0.00  0.00    +0.071 C 
ATOM     12  H   UNL     1      -1.801  -4.148   6.636  0.00  0.00    +0.177 HD
ENDBRANCH   2   5
BRANCH   1  13
ATOM     13  C   UNL     1       0.025   0.045   2.504  0.00  0.00    +0.101 C 
ATOM     14  C   UNL     1       1.455   0.440   2.880  0.00  0.00    +0.033 C 
BRANCH  13  21
ATOM     15  C   UNL     1      -0.099   1.488   0.004  0.00  0.00    +0.044 C 
ATOM     16  C   UNL     1      -0.021  -0.017   0.003  0.00  0.00    -0.046 A 
ATOM     17  C   UNL     1      -0.003  -0.707  -1.195  0.00  0.00    +0.004 A 
ATOM     18  C   UNL     1       0.069  -2.088  -1.197  0.00  0.00    +0.000 A 
ATOM     19  C   UNL     1       0.123  -2.778  -0.000  0.00  0.00    +0.000 A 
ATOM     20  C   UNL     1       0.106  -2.088   1.197  0.00  0.00    +0.006 A 
ATOM     21  C   UNL     1       0.039  -0.708   1.199  0.00  0.00    -0.025 A 
ENDBRANCH  13  21
ENDBRANCH   1  13
TORSDOF 3
