REMARK  Name = ZINC64891185
REMARK  11 active torsions:
REMARK  status: ('A' for Active; 'I' for Inactive)
REMARK    1  A    between atoms: C_1  and  C_2
REMARK    2  A    between atoms: C_2  and  C_3
REMARK    3  A    between atoms: C_3  and  N_4
REMARK    4  A    between atoms: C_8  and  C_15
REMARK    5  A    between atoms: C_18  and  C_22
REMARK    6  A    between atoms: C_22  and  C_24
REMARK    7  A    between atoms: C_22  and  N_27
REMARK    8  A    between atoms: C_24  and  C_25
REMARK    9  A    between atoms: C_24  and  C_26
REMARK   10  A    between atoms: N_27  and  S_28
REMARK   11  A    between atoms: S_28  and  C_31
REMARK                            x       y       z     vdW  Elec       q    Type
REMARK                         _______ _______ _______ _____ _____    ______ ____
ROOT
ATOM      1  C   UNL     1      -1.228  -5.340  -4.230  0.00  0.00    +0.180 C 
ATOM      2  N   UNL     1      -2.124  -5.174  -5.399  0.00  0.00    -0.268 NA
ATOM      3  C   UNL     1      -2.656  -6.540  -5.641  0.00  0.00    +0.230 C 
ATOM      4  O   UNL     1      -2.842  -7.067  -4.308  0.00  0.00    -0.278 OA
ATOM      5  N   UNL     1      -1.690  -6.561  -3.537  0.00  0.00    -0.178 NA
ATOM      6  H   UNL     1      -2.871  -4.527  -5.193  0.00  0.00    +0.126 HD
ATOM      7  H   UNL     1      -0.954  -7.250  -3.489  0.00  0.00    +0.156 HD
ENDROOT
BRANCH   1  12
ATOM      8  N   UNL     1      -1.589  -1.061  -0.572  0.00  0.00    -0.292 N 
ATOM      9  C   UNL     1      -1.549  -1.950  -1.644  0.00  0.00    +0.070 A 
ATOM     10  C   UNL     1      -1.730  -1.802  -3.010  0.00  0.00    +0.028 A 
ATOM     11  C   UNL     1      -1.625  -2.900  -3.841  0.00  0.00    +0.009 A 
ATOM     12  C   UNL     1      -1.340  -4.148  -3.315  0.00  0.00    -0.012 A 
ATOM     13  C   UNL     1      -1.157  -4.306  -1.955  0.00  0.00    +0.034 A 
ATOM     14  C   UNL     1      -1.260  -3.209  -1.113  0.00  0.00    +0.067 A 
ATOM     15  N   UNL     1      -1.134  -3.046   0.264  0.00  0.00    -0.306 N 
ATOM     16  H   UNL     1      -0.934  -3.748   0.903  0.00  0.00    +0.170 HD
ATOM     17  C   UNL     1      -1.330  -1.746   0.557  0.00  0.00    +0.328 A 
ATOM     18  O   UNL     1      -1.285  -1.266   1.674  0.00  0.00    -0.247 OA
BRANCH   8  19
ATOM     19  C   UNL     1      -1.859   0.376  -0.660  0.00  0.00    +0.127 C 
BRANCH  19  21
ATOM     20  C   UNL     1      -0.826   2.633  -0.949  0.00  0.00    +0.005 C 
ATOM     21  C   UNL     1      -0.544   1.132  -0.857  0.00  0.00    +0.018 C 
ENDBRANCH  19  21
ENDBRANCH   8  19
ENDBRANCH   1  12
BRANCH   3  22
ATOM     22  C   UNL     1      -3.988  -6.476  -6.391  0.00  0.00    +0.125 C 
BRANCH  22  23
ATOM     23  C   UNL     1      -4.510  -7.895  -6.625  0.00  0.00    +0.005 C 
ATOM     24  C   UNL     1      -4.861  -8.538  -5.282  0.00  0.00    +0.009 C 
ATOM     25  C   UNL     1      -5.760  -7.839  -7.506  0.00  0.00    +0.009 C 
ENDBRANCH  22  23
BRANCH  22  26
ATOM     26  N   UNL     1      -4.960  -5.724  -5.594  0.00  0.00    -0.183 NA
ATOM     27  H   UNL     1      -5.272  -6.079  -4.747  0.00  0.00    +0.148 HD
BRANCH  26  28
ATOM     28  S   UNL     1      -5.527  -4.266  -6.139  0.00  0.00    +0.059 S 
ATOM     29  O   UNL     1      -6.443  -3.795  -5.161  0.00  0.00    -0.153 OA
ATOM     30  O   UNL     1      -4.391  -3.515  -6.544  0.00  0.00    -0.153 OA
BRANCH  28  31
ATOM     31  C   UNL     1      -6.465  -4.585  -7.596  0.00  0.00    +0.105 A 
ATOM     32  C   UNL     1      -5.835  -4.641  -8.825  0.00  0.00    +0.028 A 
ATOM     33  C   UNL     1      -6.572  -4.891  -9.969  0.00  0.00    +0.002 A 
ATOM     34  C   UNL     1      -7.938  -5.084  -9.883  0.00  0.00    +0.000 A 
ATOM     35  C   UNL     1      -8.568  -5.028  -8.653  0.00  0.00    +0.002 A 
ATOM     36  C   UNL     1      -7.831  -4.783  -7.510  0.00  0.00    +0.028 A 
ENDBRANCH  28  31
ENDBRANCH  26  28
ENDBRANCH  22  26
ENDBRANCH   3  22
TORSDOF 8
