REMARK  Name = ZINC35457365
REMARK  10 active torsions:
REMARK  status: ('A' for Active; 'I' for Inactive)
REMARK    1  A    between atoms: C_1  and  C_2
REMARK    2  A    between atoms: C_2  and  C_3
REMARK    3  A    between atoms: C_2  and  C_4
REMARK    4  A    between atoms: C_2  and  C_5
REMARK    5  A    between atoms: N_11  and  C_16
REMARK    6  A    between atoms: C_16  and  C_17
REMARK    7  A    between atoms: C_19  and  C_22
REMARK    8  A    between atoms: N_24  and  C_25
REMARK    9  A    between atoms: C_25  and  C_26
REMARK   10  A    between atoms: C_26  and  N_27
REMARK                            x       y       z     vdW  Elec       q    Type
REMARK                         _______ _______ _______ _____ _____    ______ ____
ROOT
ATOM      1  C   UNL     1       5.537  -0.836  -1.058  0.00  0.00    +0.097 A 
ATOM      2  N   UNL     1       6.698  -1.371  -1.323  0.00  0.00    -0.238 NA
ATOM      3  C   UNL     1       7.126  -2.375  -0.551  0.00  0.00    +0.133 A 
ATOM      4  C   UNL     1       6.288  -2.754   0.463  0.00  0.00    +0.080 A 
ATOM      5  S   UNL     1       4.993  -1.699   0.275  0.00  0.00    -0.078 S 
ENDROOT
BRANCH   3   6
ATOM      6  C   UNL     1       8.422  -3.035  -0.779  0.00  0.00    +0.263 C 
ATOM      7  O   UNL     1       8.776  -3.947  -0.055  0.00  0.00    -0.269 OA
ATOM      8  N   UNL     1       9.217  -2.630  -1.790  0.00  0.00    -0.312 N 
ATOM      9  H   UNL     1       8.934  -1.904  -2.367  0.00  0.00    +0.149 HD
BRANCH   8  10
ATOM     10  C   UNL     1      10.506  -3.287  -2.016  0.00  0.00    +0.086 C 
BRANCH  10  11
ATOM     11  C   UNL     1      11.204  -2.642  -3.215  0.00  0.00    -0.060 C 
BRANCH  11  12
ATOM     12  N   UNL     1      12.497  -3.301  -3.442  0.00  0.00    +0.381 N 
ATOM     13  C   UNL     1      13.377  -3.057  -2.293  0.00  0.00    -0.079 C 
ATOM     14  C   UNL     1      14.696  -3.808  -2.488  0.00  0.00    -0.019 C 
ATOM     15  C   UNL     1      15.376  -3.312  -3.767  0.00  0.00    -0.004 C 
ATOM     16  C   UNL     1      14.419  -3.503  -4.948  0.00  0.00    -0.019 C 
ATOM     17  C   UNL     1      13.111  -2.763  -4.662  0.00  0.00    -0.079 C 
ATOM     18  H   UNL     1      12.353  -4.294  -3.549  0.00  0.00    -0.082 HD
ENDBRANCH  11  12
ENDBRANCH  10  11
ENDBRANCH   8  10
ENDBRANCH   3   6
BRANCH   1  19
ATOM     19  C   UNL     1       4.849   0.295  -1.777  0.00  0.00    +0.176 C 
BRANCH  19  26
ATOM     20  C   UNL     1       0.707  -0.490  -1.238  0.00  0.00    -0.040 A 
ATOM     21  C   UNL     1       0.034  -1.284  -2.147  0.00  0.00    +0.008 A 
ATOM     22  C   UNL     1       0.674  -1.734  -3.288  0.00  0.00    +0.048 A 
ATOM     23  C   UNL     1       1.994  -1.388  -3.520  0.00  0.00    +0.143 A 
ATOM     24  C   UNL     1       2.673  -0.587  -2.603  0.00  0.00    +0.079 A 
ATOM     25  C   UNL     1       2.025  -0.136  -1.465  0.00  0.00    +0.031 A 
ATOM     26  N   UNL     1       4.010  -0.246  -2.849  0.00  0.00    -0.259 N 
ATOM     27  C   UNL     1       4.513  -0.423  -4.090  0.00  0.00    +0.258 C 
ATOM     28  O   UNL     1       5.676  -0.165  -4.318  0.00  0.00    -0.271 OA
ATOM     29  C   UNL     1       3.624  -0.945  -5.190  0.00  0.00    +0.325 C 
ATOM     30  O   UNL     1       2.638  -1.820  -4.637  0.00  0.00    -0.481 OA
BRANCH  20  32
ATOM     31  C   UNL     1      -0.019   1.526   0.010  0.00  0.00    +0.015 C 
ATOM     32  C   UNL     1       0.002  -0.004   0.002  0.00  0.00    -0.013 C 
ATOM     33  C   UNL     1       0.742  -0.511   1.242  0.00  0.00    +0.015 C 
ATOM     34  C   UNL     1      -1.433  -0.534   0.013  0.00  0.00    +0.015 C 
ENDBRANCH  20  32
ENDBRANCH  19  26
ENDBRANCH   1  19
TORSDOF 7
