REMARK  Name = ZINC36571282
REMARK  14 active torsions:
REMARK  status: ('A' for Active; 'I' for Inactive)
REMARK    1  A    between atoms: C_1  and  C_2
REMARK    2  A    between atoms: C_2  and  C_3
REMARK    3  A    between atoms: C_3  and  N_4
REMARK    4  A    between atoms: N_4  and  C_5
REMARK    5  A    between atoms: C_5  and  C_7
REMARK    6  A    between atoms: C_5  and  C_14
REMARK    7  A    between atoms: C_12  and  O_13
REMARK    8  A    between atoms: N_16  and  C_17
REMARK    9  A    between atoms: C_17  and  C_18
REMARK   10  A    between atoms: C_17  and  C_19
REMARK   11  A    between atoms: C_17  and  C_20
REMARK   12  A    between atoms: C_21  and  C_23
REMARK   13  A    between atoms: C_27  and  O_30
REMARK   14  A    between atoms: C_28  and  O_29
REMARK                            x       y       z     vdW  Elec       q    Type
REMARK                         _______ _______ _______ _____ _____    ______ ____
ROOT
ATOM      1  C   UNL     1      -1.237  -3.048   1.771  0.00  0.00    +0.196 C 
ENDROOT
BRANCH   1   2
ATOM      2  C   UNL     1      -0.153  -2.617   2.725  0.00  0.00    +0.023 A 
ATOM      3  C   UNL     1       0.231  -1.291   2.782  0.00  0.00    +0.009 A 
ATOM      4  C   UNL     1       1.226  -0.895   3.656  0.00  0.00    +0.001 A 
ATOM      5  C   UNL     1       1.840  -1.825   4.475  0.00  0.00    +0.004 A 
ATOM      6  C   UNL     1       1.460  -3.151   4.422  0.00  0.00    +0.046 A 
ATOM      7  C   UNL     1       0.458  -3.550   3.550  0.00  0.00    +0.122 A 
BRANCH   7   8
ATOM      8  O   UNL     1       0.078  -4.854   3.500  0.00  0.00    -0.506 OA
ATOM      9  H   UNL     1       0.576  -5.385   2.862  0.00  0.00    +0.292 HD
ENDBRANCH   7   8
ENDBRANCH   1   2
BRANCH   1  10
ATOM     10  C   UNL     1      -2.532  -3.214   2.525  0.00  0.00    +0.239 C 
ATOM     11  O   UNL     1      -3.528  -2.631   2.154  0.00  0.00    -0.273 OA
ATOM     12  N   UNL     1      -2.582  -4.010   3.611  0.00  0.00    -0.309 N 
ATOM     13  H   UNL     1      -1.785  -4.477   3.907  0.00  0.00    +0.149 HD
BRANCH  12  14
ATOM     14  C   UNL     1      -3.840  -4.172   4.343  0.00  0.00    +0.026 C 
ATOM     15  C   UNL     1      -4.903  -4.753   3.409  0.00  0.00    +0.031 C 
ATOM     16  C   UNL     1      -3.625  -5.121   5.524  0.00  0.00    +0.031 C 
ATOM     17  C   UNL     1      -4.307  -2.810   4.862  0.00  0.00    +0.031 C 
ENDBRANCH  12  14
ENDBRANCH   1  10
BRANCH   1  18
ATOM     18  N   UNL     1      -1.405  -2.031   0.730  0.00  0.00    -0.282 N 
ATOM     19  C   UNL     1      -0.445  -1.853  -0.199  0.00  0.00    +0.251 C 
ATOM     20  O   UNL     1      -0.654  -1.138  -1.160  0.00  0.00    -0.270 OA
BRANCH  19  21
ATOM     21  C   UNL     1       0.860  -2.524  -0.049  0.00  0.00    +0.082 A 
ATOM     22  C   UNL     1       1.034  -3.512   0.924  0.00  0.00    +0.017 A 
ATOM     23  C   UNL     1       2.254  -4.138   1.061  0.00  0.00    +0.005 A 
ATOM     24  C   UNL     1       3.313  -3.793   0.237  0.00  0.00    +0.049 A 
ATOM     25  C   UNL     1       3.157  -2.816  -0.731  0.00  0.00    +0.159 A 
ATOM     26  C   UNL     1       1.929  -2.179  -0.885  0.00  0.00    +0.171 A 
BRANCH  26  27
ATOM     27  O   UNL     1       1.769  -1.225  -1.837  0.00  0.00    -0.503 OA
ATOM     28  H   UNL     1       1.976  -0.330  -1.535  0.00  0.00    +0.292 HD
ENDBRANCH  26  27
BRANCH  25  29
ATOM     29  O   UNL     1       4.201  -2.482  -1.536  0.00  0.00    -0.503 OA
ATOM     30  H   UNL     1       4.253  -3.002  -2.350  0.00  0.00    +0.292 HD
ENDBRANCH  25  29
ENDBRANCH  19  21
BRANCH  18  31
ATOM     31  C   UNL     1      -2.616  -1.207   0.699  0.00  0.00    +0.109 C 
BRANCH  31  33
ATOM     32  C   UNL     1      -5.007  -1.134  -0.021  0.00  0.00    +0.005 C 
ATOM     33  C   UNL     1      -3.700  -1.925  -0.107  0.00  0.00    +0.016 C 
ENDBRANCH  31  33
ENDBRANCH  18  31
ENDBRANCH   1  18
TORSDOF 10
