REMARK  Name = ZINC65237888
REMARK  5 active torsions:
REMARK  status: ('A' for Active; 'I' for Inactive)
REMARK    1  A    between atoms: C_1  and  C_2
REMARK    2  A    between atoms: C_2  and  C_4
REMARK    3  A    between atoms: C_2  and  C_24
REMARK    4  A    between atoms: C_4  and  N_5
REMARK    5  A    between atoms: C_6  and  C_8
REMARK                            x       y       z     vdW  Elec       q    Type
REMARK                         _______ _______ _______ _____ _____    ______ ____
ROOT
ATOM      1  C   UNL     1      -4.058  -0.123  -2.685  0.00  0.00    +0.153 C 
ATOM      2  N   UNL     1      -3.533   0.558  -3.663  0.00  0.00    -0.166 NA
ATOM      3  N   UNL     1      -4.451   0.775  -4.699  0.00  0.00    -0.184 N 
ATOM      4  N   UNL     1      -5.713   0.394  -4.265  0.00  0.00    -0.218 N 
ATOM      5  C   UNL     1      -5.481  -0.450  -3.066  0.00  0.00    +0.236 C 
ATOM      6  C   UNL     1      -6.454   0.015  -2.013  0.00  0.00    +0.246 C 
ATOM      7  O   UNL     1      -6.187  -0.129  -0.839  0.00  0.00    -0.273 OA
ATOM      8  N   UNL     1      -7.621   0.590  -2.370  0.00  0.00    -0.282 N 
ATOM      9  C   UNL     1      -7.982   0.787  -3.708  0.00  0.00    +0.059 A 
ATOM     10  C   UNL     1      -6.996   0.710  -4.702  0.00  0.00    +0.072 A 
ATOM     11  C   UNL     1      -7.318   0.922  -6.024  0.00  0.00    +0.029 A 
ATOM     12  C   UNL     1      -8.627   1.215  -6.373  0.00  0.00    +0.040 A 
ATOM     13  C   UNL     1      -9.604   1.293  -5.396  0.00  0.00    +0.125 A 
ATOM     14  C   UNL     1      -9.288   1.069  -4.068  0.00  0.00    +0.063 A 
ATOM     15  F   UNL     1     -10.879   1.572  -5.744  0.00  0.00    -0.205 F 
ATOM     16  H   UNL     1      -4.239   1.134  -5.575  0.00  0.00    +0.193 HD
ATOM     17  H   UNL     1      -8.232   0.878  -1.674  0.00  0.00    +0.155 HD
ENDROOT
BRANCH   1  19
ATOM     18  N   UNL     1      -2.105  -0.148  -1.230  0.00  0.00    -0.310 N 
ATOM     19  C   UNL     1      -3.387  -0.508  -1.443  0.00  0.00    +0.262 C 
ATOM     20  O   UNL     1      -3.985  -1.153  -0.603  0.00  0.00    -0.269 OA
ATOM     21  H   UNL     1      -1.628   0.366  -1.901  0.00  0.00    +0.149 HD
BRANCH  18  22
ATOM     22  C   UNL     1      -1.433  -0.534   0.013  0.00  0.00    +0.112 C 
BRANCH  22  24
ATOM     23  C   UNL     1      -0.019   1.526   0.010  0.00  0.00    +0.014 C 
ATOM     24  C   UNL     1       0.002  -0.004   0.002  0.00  0.00    +0.033 C 
BRANCH  24  25
ATOM     25  C   UNL     1       0.731  -0.503   1.223  0.00  0.00    -0.043 A 
ATOM     26  C   UNL     1       0.263  -0.187   2.485  0.00  0.00    +0.004 A 
ATOM     27  C   UNL     1       0.931  -0.645   3.605  0.00  0.00    +0.000 A 
ATOM     28  C   UNL     1       2.068  -1.419   3.463  0.00  0.00    +0.000 A 
ATOM     29  C   UNL     1       2.535  -1.736   2.201  0.00  0.00    +0.000 A 
ATOM     30  C   UNL     1       1.864  -1.282   1.081  0.00  0.00    +0.004 A 
ENDBRANCH  24  25
ENDBRANCH  22  24
ENDBRANCH  18  22
ENDBRANCH   1  19
TORSDOF 4
