REMARK  Name = ZINC41580992
REMARK  3 active torsions:
REMARK  status: ('A' for Active; 'I' for Inactive)
REMARK    1  A    between atoms: C_4  and  C_7
REMARK    2  A    between atoms: N_11  and  C_15
REMARK    3  A    between atoms: C_15  and  C_16
REMARK                            x       y       z     vdW  Elec       q    Type
REMARK                         _______ _______ _______ _____ _____    ______ ____
ROOT
ATOM      1  C   UNL     1       3.711  -0.707  -0.038  0.00  0.00    +0.191 C 
ATOM      2  C   UNL     1       4.046  -1.235   1.344  0.00  0.00    +0.248 C 
ATOM      3  O   UNL     1       4.222  -0.586   2.352  0.00  0.00    -0.273 OA
ATOM      4  N   UNL     1       4.106  -2.575   1.217  0.00  0.00    -0.223 N 
ATOM      5  C   UNL     1       3.858  -2.964  -0.039  0.00  0.00    +0.309 C 
ATOM      6  O   UNL     1       3.856  -4.125  -0.399  0.00  0.00    -0.252 OA
ATOM      7  N   UNL     1       3.614  -1.924  -0.862  0.00  0.00    -0.284 N 
ATOM      8  H   UNL     1       3.412  -1.967  -1.810  0.00  0.00    +0.151 HD
ENDROOT
BRANCH   1  12
ATOM      9  C   UNL     1      -0.017   1.378   0.010  0.00  0.00    +0.000 A 
ATOM     10  C   UNL     1       1.171   2.086   0.002  0.00  0.00    +0.000 A 
ATOM     11  C   UNL     1       2.377   1.411  -0.013  0.00  0.00    +0.006 A 
ATOM     12  C   UNL     1       2.396   0.029  -0.020  0.00  0.00    -0.018 A 
ATOM     13  C   UNL     1       1.208  -0.679  -0.012  0.00  0.00    +0.006 A 
ATOM     14  C   UNL     1       0.002  -0.004   0.002  0.00  0.00    +0.000 A 
ENDBRANCH   1  12
BRANCH   4  15
ATOM     15  C   UNL     1       4.406  -3.493   2.319  0.00  0.00    +0.129 C 
BRANCH  15  16
ATOM     16  C   UNL     1       3.103  -3.905   3.009  0.00  0.00    +0.099 C 
ATOM     17 BR   UNL     1       3.506  -5.136   4.487  0.00  0.00    -0.090 Br
ENDBRANCH  15  16
ENDBRANCH   4  15
TORSDOF 3
