REMARK  Name = ZINC08748657
REMARK  8 active torsions:
REMARK  status: ('A' for Active; 'I' for Inactive)
REMARK    1  A    between atoms: C_1  and  O_2
REMARK    2  A    between atoms: O_2  and  C_3
REMARK    3  A    between atoms: C_5  and  C_14
REMARK    4  A    between atoms: C_8  and  O_9
REMARK    5  A    between atoms: O_9  and  C_10
REMARK    6  A    between atoms: C_10  and  C_11
REMARK    7  A    between atoms: C_28  and  N_32
REMARK    8  A    between atoms: C_29  and  C_30
REMARK                            x       y       z     vdW  Elec       q    Type
REMARK                         _______ _______ _______ _____ _____    ______ ____
ROOT
ATOM      1  C   UNL     1       0.805   3.817   0.029  0.00  0.00    +0.102 C 
ATOM      2  C   UNL     1       1.030   2.318   0.005  0.00  0.00    +0.062 A 
ATOM      3  C   UNL     1      -0.018   1.465   0.010  0.00  0.00    +0.147 A 
ATOM      4  C   UNL     1       0.002  -0.004   0.002  0.00  0.00    +0.032 A 
ATOM      5  C   UNL     1      -1.221  -0.701   0.016  0.00  0.00    +0.012 A 
ATOM      6  C   UNL     1      -1.229  -2.065   0.007  0.00  0.00    +0.001 A 
ATOM      7  C   UNL     1      -0.050  -2.798  -0.016  0.00  0.00    +0.001 A 
ATOM      8  C   UNL     1       1.168  -2.143  -0.029  0.00  0.00    +0.016 A 
ATOM      9  C   UNL     1       1.183  -0.765  -0.020  0.00  0.00    +0.026 A 
ATOM     10  S   UNL     1       2.692   0.170  -0.036  0.00  0.00    -0.047 S 
ATOM     11  C   UNL     1       2.398   1.928  -0.019  0.00  0.00    +0.225 A 
ATOM     12  O   UNL     1       3.308   2.740  -0.028  0.00  0.00    -0.280 OA
ATOM     13  O   UNL     1      -1.286   1.985   0.019  0.00  0.00    -0.440 OA
ATOM     14  C   UNL     1      -1.529   3.192   0.547  0.00  0.00    +0.199 C 
ATOM     15  C   UNL     1      -0.554   4.136   0.579  0.00  0.00    +0.098 C 
ENDROOT
BRANCH   1  18
ATOM     16  C   UNL     1       1.963   5.809  -2.966  0.00  0.00    +0.162 A 
ATOM     17  C   UNL     1       1.866   5.310  -1.677  0.00  0.00    +0.054 A 
ATOM     18  C   UNL     1       0.909   4.359  -1.374  0.00  0.00    -0.031 A 
ATOM     19  C   UNL     1       0.051   3.900  -2.356  0.00  0.00    +0.008 A 
ATOM     20  C   UNL     1       0.139   4.398  -3.643  0.00  0.00    +0.050 A 
ATOM     21  C   UNL     1       1.096   5.351  -3.953  0.00  0.00    +0.163 A 
BRANCH  16  23
ATOM     22  C   UNL     1       3.760   7.167  -2.202  0.00  0.00    +0.277 C 
ATOM     23  O   UNL     1       2.904   6.744  -3.265  0.00  0.00    -0.491 OA
ENDBRANCH  16  23
BRANCH  21  24
ATOM     24  O   UNL     1       1.188   5.838  -5.220  0.00  0.00    -0.479 OA
BRANCH  24  25
ATOM     25  C   UNL     1       0.265   5.322  -6.181  0.00  0.00    +0.324 C 
BRANCH  25  26
ATOM     26  C   UNL     1       0.516   5.972  -7.517  0.00  0.00    +0.248 C 
ATOM     27  O   UNL     1       1.398   6.796  -7.634  0.00  0.00    -0.272 OA
ATOM     28  N   UNL     1      -0.240   5.638  -8.582  0.00  0.00    -0.327 N 
ATOM     29  H   UNL     1      -0.946   4.979  -8.488  0.00  0.00    +0.145 HD
ATOM     30  H   UNL     1      -0.079   6.057  -9.442  0.00  0.00    +0.145 HD
ENDBRANCH  25  26
ENDBRANCH  24  25
ENDBRANCH  21  24
ENDBRANCH   1  18
BRANCH  14  31
ATOM     31  N   UNL     1      -2.771   3.475   1.057  0.00  0.00    -0.328 N 
ATOM     32  H   UNL     1      -2.950   4.349   1.439  0.00  0.00    +0.145 HD
ATOM     33  H   UNL     1      -3.469   2.803   1.035  0.00  0.00    +0.145 HD
ENDBRANCH  14  31
BRANCH  15  34
ATOM     34  C   UNL     1      -0.822   5.428   1.136  0.00  0.00    +0.101 C 
ATOM     35  N   UNL     1      -1.034   6.453   1.578  0.00  0.00    -0.191 NA
ENDBRANCH  15  34
TORSDOF 7
