REMARK  Name = ZINC05419633
REMARK  8 active torsions:
REMARK  status: ('A' for Active; 'I' for Inactive)
REMARK    1  A    between atoms: C_1  and  C_2
REMARK    2  A    between atoms: C_6  and  C_9
REMARK    3  A    between atoms: C_7  and  O_8
REMARK    4  A    between atoms: C_9  and  C_11
REMARK    5  A    between atoms: C_9  and  N_25
REMARK    6  A    between atoms: C_11  and  C_12
REMARK    7  A    between atoms: C_11  and  C_18
REMARK    8  A    between atoms: C_11  and  O_24
REMARK                            x       y       z     vdW  Elec       q    Type
REMARK                         _______ _______ _______ _____ _____    ______ ____
ROOT
ATOM      1  C   UNL     1       1.886   5.154  -0.983  0.00  0.00    +0.183 C 
ENDROOT
BRANCH   1   2
ATOM      2  N   UNL     1       1.140   4.591  -2.111  0.00  0.00    -0.233 N 
ATOM      3  C   UNL     1       1.411   4.769  -3.447  0.00  0.00    +0.090 A 
ATOM      4  C   UNL     1       2.392   5.458  -4.151  0.00  0.00    +0.029 A 
ATOM      5  C   UNL     1       2.393   5.432  -5.517  0.00  0.00    +0.002 A 
ATOM      6  C   UNL     1       1.425   4.717  -6.211  0.00  0.00    +0.002 A 
ATOM      7  C   UNL     1       0.455   4.027  -5.544  0.00  0.00    +0.032 A 
ATOM      8  C   UNL     1       0.432   4.038  -4.143  0.00  0.00    +0.113 A 
ATOM      9  N   UNL     1      -0.379   3.468  -3.230  0.00  0.00    -0.129 NA
ATOM     10  N   UNL     1       0.005   3.770  -2.040  0.00  0.00    -0.064 NA
ENDBRANCH   1   2
BRANCH   1  16
ATOM     11  C   UNL     1       0.867   9.570   1.163  0.00  0.00    +0.047 C 
ATOM     12  C   UNL     1       0.485   8.143   0.866  0.00  0.00    -0.009 A 
ATOM     13  C   UNL     1      -0.706   7.632   1.345  0.00  0.00    +0.007 A 
ATOM     14  C   UNL     1      -1.058   6.323   1.073  0.00  0.00    +0.001 A 
ATOM     15  C   UNL     1      -0.219   5.522   0.319  0.00  0.00    +0.009 A 
ATOM     16  C   UNL     1       0.973   6.028  -0.162  0.00  0.00    +0.022 A 
ATOM     17  C   UNL     1       1.331   7.340   0.115  0.00  0.00    +0.125 A 
BRANCH  17  18
ATOM     18  O   UNL     1       2.505   7.838  -0.353  0.00  0.00    -0.506 OA
ATOM     19  H   UNL     1       2.438   8.249  -1.226  0.00  0.00    +0.292 HD
ENDBRANCH  17  18
ENDBRANCH   1  16
BRANCH   1  20
ATOM     20  C   UNL     1       2.426   4.019  -0.111  0.00  0.00    +0.142 C 
BRANCH  20  21
ATOM     21  C   UNL     1       3.221   4.598   1.031  0.00  0.00    -0.009 A 
ATOM     22  C   UNL     1       2.923   4.240   2.333  0.00  0.00    +0.007 A 
ATOM     23  C   UNL     1       3.653   4.771   3.380  0.00  0.00    +0.000 A 
ATOM     24  C   UNL     1       4.677   5.663   3.126  0.00  0.00    +0.000 A 
ATOM     25  C   UNL     1       4.979   6.017   1.824  0.00  0.00    +0.000 A 
ATOM     26  C   UNL     1       4.250   5.486   0.777  0.00  0.00    +0.007 A 
ENDBRANCH  20  21
BRANCH  20  27
ATOM     27  C   UNL     1       3.313   3.127  -0.940  0.00  0.00    -0.009 A 
ATOM     28  C   UNL     1       4.289   3.680  -1.748  0.00  0.00    +0.007 A 
ATOM     29  C   UNL     1       5.106   2.861  -2.504  0.00  0.00    +0.000 A 
ATOM     30  C   UNL     1       4.940   1.490  -2.461  0.00  0.00    +0.000 A 
ATOM     31  C   UNL     1       3.961   0.937  -1.657  0.00  0.00    +0.000 A 
ATOM     32  C   UNL     1       3.148   1.755  -0.897  0.00  0.00    +0.007 A 
ENDBRANCH  20  27
BRANCH  20  33
ATOM     33  O   UNL     1       1.334   3.257   0.408  0.00  0.00    -0.377 OA
ATOM     34  H   UNL     1       0.778   2.854  -0.273  0.00  0.00    +0.211 HD
ENDBRANCH  20  33
ENDBRANCH   1  20
TORSDOF 7
