REMARK  Name = ZINC40388626
REMARK  5 active torsions:
REMARK  status: ('A' for Active; 'I' for Inactive)
REMARK    1  A    between atoms: C_1  and  C_2
REMARK    2  A    between atoms: C_5  and  N_9
REMARK    3  A    between atoms: C_10  and  C_12
REMARK    4  A    between atoms: C_28  and  C_35
REMARK    5  A    between atoms: C_31  and  C_34
REMARK                            x       y       z     vdW  Elec       q    Type
REMARK                         _______ _______ _______ _____ _____    ______ ____
ROOT
ATOM      1  C   UNL     1       0.311  -6.351   1.119  0.00  0.00    +0.122 C 
ATOM      2  C   UNL     1      -0.928  -6.956   0.455  0.00  0.00    +0.114 C 
ATOM      3  C   UNL     1      -2.111  -6.826   1.378  0.00  0.00    +0.219 C 
ATOM      4  O   UNL     1      -3.207  -6.588   0.918  0.00  0.00    -0.275 OA
ATOM      5  N   UNL     1      -1.964  -6.973   2.706  0.00  0.00    -0.270 N 
ATOM      6  C   UNL     1      -0.711  -7.141   3.269  0.00  0.00    +0.138 A 
ATOM      7  C   UNL     1       0.425  -6.860   2.530  0.00  0.00    +0.069 A 
ATOM      8  C   UNL     1       1.681  -7.058   3.113  0.00  0.00    +0.258 A 
ATOM      9  O   UNL     1       2.702  -6.831   2.483  0.00  0.00    -0.267 OA
ATOM     10  N   UNL     1       1.741  -7.504   4.386  0.00  0.00    -0.295 N 
ATOM     11  H   UNL     1       2.602  -7.662   4.804  0.00  0.00    +0.172 HD
ATOM     12  C   UNL     1       0.594  -7.731   5.083  0.00  0.00    +0.200 A 
ATOM     13  N   UNL     1      -0.589  -7.549   4.537  0.00  0.00    -0.200 NA
ATOM     14  N   UNL     1       0.674  -8.158   6.381  0.00  0.00    -0.301 N 
ATOM     15  C   UNL     1       1.973  -8.251   7.061  0.00  0.00    +0.111 C 
ATOM     16  C   UNL     1       1.902  -7.460   8.371  0.00  0.00    +0.004 C 
ATOM     17  C   UNL     1       0.721  -7.964   9.203  0.00  0.00    +0.009 C 
ATOM     18  C   UNL     1      -0.582  -7.738   8.431  0.00  0.00    +0.004 C 
ATOM     19  C   UNL     1      -0.540  -8.526   7.124  0.00  0.00    +0.111 C 
ATOM     20  C   UNL     1      -1.765  -8.211   9.278  0.00  0.00    +0.009 C 
ATOM     21  C   UNL     1       3.201  -7.655   9.156  0.00  0.00    +0.009 C 
ATOM     22  H   UNL     1      -2.748  -6.960   3.278  0.00  0.00    +0.156 HD
ENDROOT
BRANCH   1  24
ATOM     23  N   UNL     1       0.073  -4.169  -0.022  0.00  0.00    -0.285 N 
ATOM     24  C   UNL     1       0.188  -4.849   1.136  0.00  0.00    +0.225 C 
ATOM     25  O   UNL     1       0.192  -4.252   2.191  0.00  0.00    -0.275 OA
ATOM     26  H   UNL     1       0.004  -4.650  -0.862  0.00  0.00    +0.155 HD
BRANCH  23  31
ATOM     27  C   UNL     1      -0.007   1.504   0.012  0.00  0.00    +0.045 C 
ATOM     28  C   UNL     1       0.014  -0.003   0.003  0.00  0.00    -0.032 A 
ATOM     29  C   UNL     1       0.622  -0.678  -1.039  0.00  0.00    +0.006 A 
ATOM     30  C   UNL     1       0.644  -2.059  -1.050  0.00  0.00    +0.023 A 
ATOM     31  C   UNL     1       0.053  -2.770  -0.013  0.00  0.00    +0.035 A 
ATOM     32  C   UNL     1      -0.557  -2.090   1.032  0.00  0.00    +0.043 A 
ATOM     33  C   UNL     1      -0.570  -0.707   1.040  0.00  0.00    +0.046 A 
ATOM     34 CL   UNL     1      -1.327   0.145   2.350  0.00  0.00    -0.083 Cl
ENDBRANCH  23  31
ENDBRANCH   1  24
TORSDOF 2
