REMARK  Name = ZINC37054783
REMARK  5 active torsions:
REMARK  status: ('A' for Active; 'I' for Inactive)
REMARK    1  A    between atoms: C_1  and  C_2
REMARK    2  A    between atoms: N_5  and  S_11
REMARK    3  A    between atoms: C_7  and  C_10
REMARK    4  A    between atoms: S_11  and  C_14
REMARK    5  A    between atoms: C_15  and  N_22
REMARK                            x       y       z     vdW  Elec       q    Type
REMARK                         _______ _______ _______ _____ _____    ______ ____
ROOT
ATOM      1  S   UNL     1       3.326   0.905  -3.036  0.00  0.00    +0.064 S 
ATOM      2  O   UNL     1       4.744   0.824  -3.030  0.00  0.00    -0.153 OA
ATOM      3  O   UNL     1       2.557   0.731  -4.218  0.00  0.00    -0.153 OA
ENDROOT
BRANCH   1   7
ATOM      4  C   UNL     1       0.503   0.806  -0.359  0.00  0.00    +0.039 C 
ATOM      5  C   UNL     1       0.749  -0.668  -0.684  0.00  0.00    +0.131 C 
ATOM      6  C   UNL     1       1.428  -0.784  -2.054  0.00  0.00    +0.140 C 
ATOM      7  N   UNL     1       2.783  -0.222  -1.949  0.00  0.00    -0.172 NA
ATOM      8  C   UNL     1       3.643  -0.690  -0.851  0.00  0.00    +0.140 C 
ATOM      9  C   UNL     1       2.857  -0.579   0.460  0.00  0.00    +0.131 C 
ATOM     10  O   UNL     1       1.598  -1.242   0.312  0.00  0.00    -0.371 OA
ATOM     11  C   UNL     1       3.652  -1.236   1.590  0.00  0.00    +0.039 C 
ENDBRANCH   1   7
BRANCH   1  12
ATOM     12  C   UNL     1       2.909   2.491  -2.393  0.00  0.00    +0.140 A 
ATOM     13  C   UNL     1       1.690   3.075  -2.716  0.00  0.00    +0.053 A 
ATOM     14  C   UNL     1       1.365   4.325  -2.207  0.00  0.00    +0.040 A 
ATOM     15  C   UNL     1       2.254   4.986  -1.380  0.00  0.00    +0.021 A 
ATOM     16  C   UNL     1       3.467   4.403  -1.060  0.00  0.00    +0.032 A 
ATOM     17  C   UNL     1       3.791   3.154  -1.561  0.00  0.00    +0.047 A 
ATOM     18 BR   UNL     1       5.447   2.358  -1.114  0.00  0.00    -0.048 Br
ATOM     19 BR   UNL     1       1.812   6.689  -0.687  0.00  0.00    -0.050 Br
BRANCH  13  20
ATOM     20  N   UNL     1       0.794   2.405  -3.553  0.00  0.00    -0.356 N 
ATOM     21  H   UNL     1       0.851   1.442  -3.653  0.00  0.00    +0.142 HD
ATOM     22  H   UNL     1       0.115   2.903  -4.033  0.00  0.00    +0.142 HD
ENDBRANCH  13  20
ENDBRANCH   1  12
TORSDOF 3
