REMARK  Name = ZINC42524617
REMARK  7 active torsions:
REMARK  status: ('A' for Active; 'I' for Inactive)
REMARK    1  A    between atoms: C_1  and  C_2
REMARK    2  A    between atoms: C_2  and  C_3
REMARK    3  A    between atoms: C_3  and  C_5
REMARK    4  A    between atoms: C_3  and  N_9
REMARK    5  A    between atoms: N_6  and  O_7
REMARK    6  A    between atoms: N_9  and  S_10
REMARK    7  A    between atoms: S_10  and  C_13
REMARK                            x       y       z     vdW  Elec       q    Type
REMARK                         _______ _______ _______ _____ _____    ______ ____
ROOT
ATOM      1  N   UNL     1       2.216  -0.001   1.042  0.00  0.00    -0.179 NA
ATOM      2  H   UNL     1       2.742  -0.232   0.261  0.00  0.00    +0.149 HD
ENDROOT
BRANCH   1   3
ATOM      3  S   UNL     1       2.905   0.849   2.285  0.00  0.00    +0.066 S 
ATOM      4  O   UNL     1       4.260   1.073   1.920  0.00  0.00    -0.152 OA
ATOM      5  O   UNL     1       2.014   1.911   2.595  0.00  0.00    -0.152 OA
BRANCH   3   6
ATOM      6  C   UNL     1       2.932  -0.213   3.691  0.00  0.00    +0.156 A 
ATOM      7  C   UNL     1       3.395   0.037   4.941  0.00  0.00    +0.051 A 
ATOM      8  C   UNL     1       3.312  -0.959   5.897  0.00  0.00    +0.025 A 
ATOM      9  C   UNL     1       2.771  -2.154   5.556  0.00  0.00    +0.048 A 
ATOM     10  S   UNL     1       2.350  -1.894   3.841  0.00  0.00    -0.076 S 
ATOM     11 BR   UNL     1       4.142   1.720   5.369  0.00  0.00    -0.048 Br
ENDBRANCH   3   6
ENDBRANCH   1   3
BRANCH   1  12
ATOM     12  C   UNL     1       0.809  -0.405   1.123  0.00  0.00    +0.142 C 
BRANCH  12  13
ATOM     13  C   UNL     1       0.713  -1.907   1.042  0.00  0.00    +0.150 C 
ATOM     14  N   UNL     1      -0.303  -2.517   1.557  0.00  0.00    -0.075 NA
ATOM     15  N   UNL     1       1.707  -2.629   0.420  0.00  0.00    -0.343 N 
ATOM     16  H   UNL     1       2.470  -2.171   0.034  0.00  0.00    +0.144 HD
ATOM     17  H   UNL     1       1.644  -3.595   0.369  0.00  0.00    +0.144 HD
BRANCH  14  18
ATOM     18  O   UNL     1      -0.395  -3.928   1.482  0.00  0.00    -0.408 OA
ATOM     19  H   UNL     1      -1.189  -4.293   1.894  0.00  0.00    +0.328 HD
ENDBRANCH  14  18
ENDBRANCH  12  13
BRANCH  12  21
ATOM     20  C   UNL     1       0.030   1.742   0.110  0.00  0.00    +0.006 C 
ATOM     21  C   UNL     1       0.033   0.219  -0.038  0.00  0.00    +0.025 C 
ENDBRANCH  12  21
ENDBRANCH   1  12
TORSDOF 6
