REMARK  Name = ZINC34988580
REMARK  9 active torsions:
REMARK  status: ('A' for Active; 'I' for Inactive)
REMARK    1  A    between atoms: C_1  and  C_2
REMARK    2  A    between atoms: C_6  and  C_25
REMARK    3  A    between atoms: C_7  and  O_8
REMARK    4  A    between atoms: O_8  and  C_9
REMARK    5  A    between atoms: C_9  and  C_10
REMARK    6  A    between atoms: N_12  and  N_13
REMARK    7  A    between atoms: C_16  and  C_22
REMARK    8  A    between atoms: C_20  and  C_21
REMARK    9  A    between atoms: C_22  and  C_24
REMARK                            x       y       z     vdW  Elec       q    Type
REMARK                         _______ _______ _______ _____ _____    ______ ____
ROOT
ATOM      1  C   UNL     1      -1.018   0.848   4.409  0.00  0.00    +0.270 C 
ATOM      2  O   UNL     1       0.015   0.687   5.023  0.00  0.00    -0.270 OA
ATOM      3  N   UNL     1      -2.051   1.493   4.985  0.00  0.00    -0.204 N 
ATOM      4  H   UNL     1      -2.878   1.621   4.494  0.00  0.00    +0.177 HD
ENDROOT
BRANCH   3   5
ATOM      5  N   UNL     1      -1.932   1.979   6.294  0.00  0.00    -0.185 NA
ATOM      6  C   UNL     1      -2.963   2.495   6.892  0.00  0.00    +0.062 C 
ATOM      7  C   UNL     1      -2.803   3.350   8.133  0.00  0.00    +0.065 C 
ATOM      8  C   UNL     1      -3.763   4.540   7.994  0.00  0.00    +0.024 C 
ATOM      9  C   UNL     1      -5.198   4.018   7.926  0.00  0.00    +0.035 C 
ATOM     10  C   UNL     1      -5.345   2.973   6.861  0.00  0.00    -0.021 C 
ATOM     11  C   UNL     1      -4.327   2.276   6.384  0.00  0.00    -0.032 C 
ATOM     12  C   UNL     1      -4.567   1.242   5.315  0.00  0.00    +0.045 C 
BRANCH   8  13
ATOM     13  C   UNL     1      -3.612   5.452   9.184  0.00  0.00    -0.076 C 
ATOM     14  C   UNL     1      -3.247   6.698   9.012  0.00  0.00    +0.007 C 
ATOM     15  C   UNL     1      -3.880   4.930  10.572  0.00  0.00    +0.039 C 
ENDBRANCH   8  13
ENDBRANCH   3   5
BRANCH   1  16
ATOM     16  C   UNL     1      -1.147   0.325   3.001  0.00  0.00    +0.326 C 
BRANCH  16  17
ATOM     17  O   UNL     1       0.071  -0.316   2.618  0.00  0.00    -0.482 OA
BRANCH  17  24
ATOM     18  C   UNL     1       0.986   1.355   0.531  0.00  0.00    +0.047 C 
ATOM     19  C   UNL     1       0.564  -0.073   0.303  0.00  0.00    -0.009 A 
ATOM     20  C   UNL     1       0.621  -0.616  -0.966  0.00  0.00    +0.007 A 
ATOM     21  C   UNL     1       0.234  -1.927  -1.177  0.00  0.00    +0.001 A 
ATOM     22  C   UNL     1      -0.212  -2.697  -0.118  0.00  0.00    +0.007 A 
ATOM     23  C   UNL     1      -0.271  -2.159   1.153  0.00  0.00    -0.009 A 
ATOM     24  C   UNL     1       0.123  -0.846   1.367  0.00  0.00    +0.127 A 
ATOM     25  C   UNL     1      -0.756  -2.999   2.306  0.00  0.00    +0.047 C 
ENDBRANCH  17  24
ENDBRANCH  16  17
ENDBRANCH   1  16
TORSDOF 5
