REMARK  Name = ZINC08236746
REMARK  5 active torsions:
REMARK  status: ('A' for Active; 'I' for Inactive)
REMARK    1  A    between atoms: C_1  and  C_2
REMARK    2  A    between atoms: C_2  and  C_21
REMARK    3  A    between atoms: C_7  and  C_11
REMARK    4  A    between atoms: N_13  and  C_14
REMARK    5  A    between atoms: C_14  and  C_15
REMARK                            x       y       z     vdW  Elec       q    Type
REMARK                         _______ _______ _______ _____ _____    ______ ____
ROOT
ATOM      1  C   UNL     1       6.532  -5.409  -1.526  0.00  0.00    +0.019 C 
ATOM      2  C   UNL     1       6.201  -4.406  -2.633  0.00  0.00    +0.027 C 
ATOM      3  C   UNL     1       7.482  -3.624  -3.058  0.00  0.00    +0.003 C 
ATOM      4  C   UNL     1       7.048  -2.835  -4.330  0.00  0.00    +0.006 C 
ATOM      5  C   UNL     1       6.043  -1.757  -3.803  0.00  0.00    +0.024 C 
ATOM      6  C   UNL     1       6.002  -2.011  -2.266  0.00  0.00    +0.106 C 
ATOM      7  C   UNL     1       7.475  -2.475  -1.988  0.00  0.00    +0.028 C 
ATOM      8  C   UNL     1       5.247  -3.340  -2.114  0.00  0.00    +0.154 C 
ATOM      9  O   UNL     1       4.134  -3.504  -1.676  0.00  0.00    -0.296 OA
ATOM     10  C   UNL     1       5.592  -5.124  -3.839  0.00  0.00    +0.019 C 
ENDROOT
BRANCH   6  11
ATOM     11  C   UNL     1       5.495  -0.869  -1.424  0.00  0.00    +0.226 C 
ATOM     12  O   UNL     1       6.222  -0.353  -0.601  0.00  0.00    -0.275 OA
ATOM     13  N   UNL     1       4.235  -0.420  -1.585  0.00  0.00    -0.312 N 
ATOM     14  H   UNL     1       3.653  -0.833  -2.243  0.00  0.00    +0.149 HD
BRANCH  13  15
ATOM     15  C   UNL     1       3.742   0.691  -0.766  0.00  0.00    +0.135 C 
BRANCH  15  16
ATOM     16  C   UNL     1       2.293   1.000  -1.145  0.00  0.00    +0.135 C 
ATOM     17  C   UNL     1       1.768   2.209  -0.331  0.00  0.00    +0.035 C 
ATOM     18  C   UNL     1       0.238   1.943  -0.359  0.00  0.00    +0.031 C 
ATOM     19  C   UNL     1       0.174   0.401  -0.326  0.00  0.00    +0.160 C 
ATOM     20  O   UNL     1       1.438  -0.096  -0.783  0.00  0.00    -0.375 OA
ENDBRANCH  15  16
ENDBRANCH  13  15
ENDBRANCH   6  11
TORSDOF 3
