REMARK  Name = ZINC15045074
REMARK  11 active torsions:
REMARK  status: ('A' for Active; 'I' for Inactive)
REMARK    1  A    between atoms: CB_1  and  CA_2
REMARK    2  A    between atoms: CA_2  and  C_4
REMARK    3  A    between atoms: CA_2  and  N_7
REMARK    4  A    between atoms: C_8  and  C_10
REMARK    5  A    between atoms: C_10  and  C_11
REMARK    6  A    between atoms: C_11  and  C_12
REMARK    7  A    between atoms: C_12  and  C_13
REMARK    8  A    between atoms: C_13  and  C_14
REMARK    9  A    between atoms: C_14  and  N_15
REMARK   10  A    between atoms: C_19  and  C_20
REMARK   11  A    between atoms: C_25  and  O_26
REMARK                            x       y       z     vdW  Elec       q    Type
REMARK                         _______ _______ _______ _____ _____    ______ ____
ROOT
ATOM      1  N   UNK A   0       8.570  -1.993  -3.921  0.00  0.00    -0.255 N 
ATOM      2  C   UNK A   0       9.321  -0.976  -4.309  0.00  0.00    +0.258 C 
ATOM      3  O   UNK A   0       8.836   0.024  -4.806  0.00  0.00    -0.269 OA
ATOM      4  C   UNK A   0      10.777  -1.115  -4.109  0.00  0.00    +0.077 C 
ATOM      5  C   UNK A   0      11.778  -0.246  -4.406  0.00  0.00    +0.032 C 
ATOM      6  S   UNK A   0      10.860  -2.739  -3.368  0.00  0.00    -0.061 S 
ATOM      7  C   UNK A   0       9.111  -3.097  -3.366  0.00  0.00    +0.121 C 
ATOM      8  S   UNK A   0       8.314  -4.502  -2.799  0.00  0.00    -0.027 S 
ENDROOT
BRANCH   5   9
ATOM      9  C   UNK A   0      13.150  -0.530  -3.969  0.00  0.00    +0.019 A 
ATOM     10  C   UNK A   0      13.386  -1.459  -2.948  0.00  0.00    +0.031 A 
ATOM     11  C   UNK A   0      14.677  -1.720  -2.542  0.00  0.00    +0.042 A 
ATOM     12  C   UNK A   0      15.744  -1.067  -3.141  0.00  0.00    +0.023 A 
ATOM     13  C   UNK A   0      15.525  -0.148  -4.150  0.00  0.00    +0.047 A 
ATOM     14  C   UNK A   0      14.235   0.123  -4.576  0.00  0.00    +0.124 A 
ATOM     15 CL   UNK A   0      14.969  -2.871  -1.276  0.00  0.00    -0.084 Cl
BRANCH  14  16
ATOM     16  O   UNK A   0      14.020   1.021  -5.571  0.00  0.00    -0.506 OA
ATOM     17  H   UNK A   0      13.901   1.929  -5.262  0.00  0.00    +0.292 HD
ENDBRANCH  14  16
ENDBRANCH   5   9
BRANCH   1  18
ATOM     18  C   UNK A   0       7.117  -1.917  -4.093  0.00  0.00    +0.115 C 
BRANCH  18  19
ATOM     19  C   UNK A   0       6.488  -1.294  -2.845  0.00  0.00    +0.019 C 
BRANCH  19  20
ATOM     20  C   UNK A   0       4.971  -1.214  -3.024  0.00  0.00    +0.002 C 
BRANCH  20  21
ATOM     21  C   UNK A   0       4.342  -0.591  -1.776  0.00  0.00    +0.009 C 
BRANCH  21  22
ATOM     22  C   UNK A   0       2.824  -0.511  -1.956  0.00  0.00    +0.096 C 
BRANCH  22  24
ATOM     23  N   ALA A   1       0.870   0.273  -0.659  0.00  0.00    -0.302 N 
ATOM     24  C   UNK A   0       2.205   0.102  -0.727  0.00  0.00    +0.214 C 
ATOM     25  O   UNK A   0       2.908   0.443   0.201  0.00  0.00    -0.276 OA
ATOM     26  H   ALA A   1       0.307   0.001  -1.401  0.00  0.00    +0.150 HD
BRANCH  23  28
ATOM     27  CB  ALA A   1       0.309   2.395   0.421  0.00  0.00    +0.040 C 
ATOM     28  CA  ALA A   1       0.268   0.870   0.536  0.00  0.00    +0.183 C 
BRANCH  28  29
ATOM     29  C   ALA A   1      -1.164   0.414   0.658  0.00  0.00    +0.376 C 
ATOM     30  O   ALA A   1      -1.808   0.152  -0.343  0.00  0.00    -0.244 OA
ATOM     31  OXT ALA A   1      -1.678   0.308   1.759  0.00  0.00    -0.244 OA
ENDBRANCH  28  29
ENDBRANCH  23  28
ENDBRANCH  22  24
ENDBRANCH  21  22
ENDBRANCH  20  21
ENDBRANCH  19  20
ENDBRANCH  18  19
ENDBRANCH   1  18
TORSDOF 10
