REMARK  Name = ZINC44863866
REMARK  6 active torsions:
REMARK  status: ('A' for Active; 'I' for Inactive)
REMARK    1  A    between atoms: C_1  and  C_2
REMARK    2  A    between atoms: C_2  and  C_3
REMARK    3  A    between atoms: C_3  and  C_5
REMARK    4  A    between atoms: C_3  and  C_9
REMARK    5  A    between atoms: N_6  and  O_7
REMARK    6  A    between atoms: N_11  and  C_12
REMARK                            x       y       z     vdW  Elec       q    Type
REMARK                         _______ _______ _______ _____ _____    ______ ____
ROOT
ATOM      1  C   UNL     1      -1.565  -0.259  -1.531  0.00  0.00    +0.227 C 
ATOM      2  O   UNL     1      -1.550  -1.128  -2.377  0.00  0.00    -0.275 OA
ATOM      3  N   UNL     1      -2.166   0.920  -1.786  0.00  0.00    -0.285 N 
ATOM      4  H   UNL     1      -2.245   1.586  -1.086  0.00  0.00    +0.155 HD
ENDROOT
BRANCH   3   5
ATOM      5  C   UNL     1      -2.676   1.183  -3.064  0.00  0.00    +0.036 A 
ATOM      6  C   UNL     1      -3.154   0.143  -3.849  0.00  0.00    +0.026 A 
ATOM      7  C   UNL     1      -3.657   0.404  -5.109  0.00  0.00    +0.043 A 
ATOM      8  C   UNL     1      -3.685   1.702  -5.590  0.00  0.00    +0.159 A 
ATOM      9  C   UNL     1      -3.208   2.743  -4.808  0.00  0.00    +0.160 A 
ATOM     10  C   UNL     1      -2.709   2.486  -3.543  0.00  0.00    +0.064 A 
ATOM     11  F   UNL     1      -3.236   4.009  -5.278  0.00  0.00    -0.202 F 
ATOM     12  F   UNL     1      -4.176   1.954  -6.823  0.00  0.00    -0.202 F 
ENDBRANCH   3   5
BRANCH   1  13
ATOM     13  C   UNL     1      -0.911  -0.497  -0.194  0.00  0.00    +0.141 C 
BRANCH  13  14
ATOM     14  C   UNL     1      -1.955  -0.923   0.806  0.00  0.00    +0.144 C 
ATOM     15  N   UNL     1      -2.161  -2.179   1.030  0.00  0.00    -0.076 NA
ATOM     16  N   UNL     1      -2.688   0.026   1.483  0.00  0.00    -0.343 N 
ATOM     17  H   UNL     1      -2.533   0.969   1.315  0.00  0.00    +0.144 HD
ATOM     18  H   UNL     1      -3.360  -0.248   2.127  0.00  0.00    +0.144 HD
BRANCH  15  19
ATOM     19  O   UNL     1      -3.141  -2.579   1.970  0.00  0.00    -0.408 OA
ATOM     20  H   UNL     1      -3.223  -3.538   2.069  0.00  0.00    +0.328 HD
ENDBRANCH  15  19
ENDBRANCH  13  14
BRANCH  13  22
ATOM     21  C   UNL     1       0.945  -1.700   0.968  0.00  0.00    +0.005 C 
ATOM     22  C   UNL     1       0.143  -1.597  -0.331  0.00  0.00    +0.017 C 
ENDBRANCH  13  22
ENDBRANCH   1  13
TORSDOF 5
