REMARK  Name = ZINC11973371
REMARK  9 active torsions:
REMARK  status: ('A' for Active; 'I' for Inactive)
REMARK    1  A    between atoms: C_1  and  C_2
REMARK    2  A    between atoms: C_5  and  C_34
REMARK    3  A    between atoms: C_6  and  C_8
REMARK    4  A    between atoms: C_8  and  N_68
REMARK    5  A    between atoms: C_11  and  C_14
REMARK    6  A    between atoms: C_11  and  O_33
REMARK    7  A    between atoms: C_21  and  C_23
REMARK    8  A    between atoms: N_25  and  C_26
REMARK    9  A    between atoms: C_26  and  C_27
REMARK                            x       y       z     vdW  Elec       q    Type
REMARK                         _______ _______ _______ _____ _____    ______ ____
ROOT
ATOM      1  C   UNL     1     -11.465   1.835   0.160  0.00  0.00    -0.015 A 
ATOM      2  C   UNL     1     -10.740   2.720   0.947  0.00  0.00    +0.010 A 
ATOM      3  C   UNL     1      -9.365   2.762   0.875  0.00  0.00    +0.047 A 
ATOM      4  C   UNL     1      -8.691   1.912   0.007  0.00  0.00    +0.136 A 
ATOM      5  C   UNL     1      -9.430   1.016  -0.789  0.00  0.00    +0.021 A 
ATOM      6  C   UNL     1     -10.824   0.989  -0.701  0.00  0.00    +0.018 A 
ATOM      7  C   UNL     1      -8.443   0.277  -1.575  0.00  0.00    +0.063 A 
ATOM      8  C   UNL     1      -7.229   0.764  -1.210  0.00  0.00    +0.190 A 
ATOM      9  O   UNL     1      -7.386   1.722  -0.273  0.00  0.00    -0.450 OA
ENDROOT
BRANCH   1  12
ATOM     10  C   UNL     1     -14.927   2.233   1.744  0.00  0.00    -0.075 C 
ATOM     11  C   UNL     1     -13.399   2.204   1.670  0.00  0.00    +0.021 C 
ATOM     12  C   UNL     1     -12.969   1.807   0.255  0.00  0.00    +0.088 C 
ATOM     13  C   UNL     1     -13.564   2.799  -0.748  0.00  0.00    +0.021 C 
ATOM     14  C   UNL     1     -15.087   2.810  -0.604  0.00  0.00    -0.075 C 
ATOM     15  N   UNL     1     -15.436   3.224   0.772  0.00  0.00    +0.383 N 
ATOM     16  H   UNL     1     -15.002   4.134   0.966  0.00  0.00    -0.081 HD
BRANCH  12  17
ATOM     17  O   UNL     1     -13.441   0.490  -0.035  0.00  0.00    -0.384 OA
ATOM     18  H   UNL     1     -13.206   0.174  -0.918  0.00  0.00    +0.211 HD
ENDBRANCH  12  17
BRANCH  15  19
ATOM     19  C   UNL     1     -16.902   3.353   0.904  0.00  0.00    -0.043 C 
BRANCH  19  25
ATOM     20  C   UNL     1     -19.359   4.063  -3.397  0.00  0.00    +0.044 C 
ATOM     21  C   UNL     1     -18.587   4.618  -2.228  0.00  0.00    -0.050 A 
ATOM     22  C   UNL     1     -18.346   5.977  -2.142  0.00  0.00    +0.003 A 
ATOM     23  C   UNL     1     -17.637   6.486  -1.070  0.00  0.00    +0.004 A 
ATOM     24  C   UNL     1     -17.170   5.637  -0.084  0.00  0.00    -0.049 A 
ATOM     25  C   UNL     1     -17.412   4.279  -0.171  0.00  0.00    -0.061 A 
ATOM     26  C   UNL     1     -18.116   3.769  -1.245  0.00  0.00    +0.005 A 
ATOM     27  C   UNL     1     -16.397   6.192   1.084  0.00  0.00    +0.044 C 
ENDBRANCH  19  25
ENDBRANCH  15  19
ENDBRANCH   1  12
BRANCH   8  28
ATOM     28  C   UNL     1      -5.939   0.311  -1.748  0.00  0.00    +0.279 C 
ATOM     29  O   UNL     1      -5.906  -0.567  -2.590  0.00  0.00    -0.267 OA
ATOM     30  N   UNL     1      -4.793   0.867  -1.309  0.00  0.00    -0.306 N 
ATOM     31  H   UNL     1      -4.819   1.567  -0.638  0.00  0.00    +0.149 HD
BRANCH  30  32
ATOM     32  C   UNL     1      -3.507   0.416  -1.846  0.00  0.00    +0.136 C 
BRANCH  32  33
ATOM     33  C   UNL     1      -2.373   1.203  -1.186  0.00  0.00    +0.135 C 
ATOM     34  C   UNL     1      -1.027   0.825  -1.832  0.00  0.00    +0.035 C 
ATOM     35  C   UNL     1      -0.176   0.294  -0.653  0.00  0.00    +0.031 C 
ATOM     36  C   UNL     1      -0.892   0.917   0.572  0.00  0.00    +0.160 C 
ATOM     37  O   UNL     1      -2.289   0.863   0.208  0.00  0.00    -0.375 OA
ENDBRANCH  32  33
ENDBRANCH  30  32
ENDBRANCH   8  28
TORSDOF 7
