REMARK  Name = ZINC64793917
REMARK  9 active torsions:
REMARK  status: ('A' for Active; 'I' for Inactive)
REMARK    1  A    between atoms: C_1  and  C_2
REMARK    2  A    between atoms: C_4  and  C_31
REMARK    3  A    between atoms: C_6  and  N_8
REMARK    4  A    between atoms: C_9  and  C_21
REMARK    5  A    between atoms: C_12  and  S_13
REMARK    6  A    between atoms: S_13  and  C_14
REMARK    7  A    between atoms: C_14  and  C_15
REMARK    8  A    between atoms: N_17  and  C_18
REMARK    9  A    between atoms: C_22  and  N_30
REMARK                            x       y       z     vdW  Elec       q    Type
REMARK                         _______ _______ _______ _____ _____    ______ ____
ROOT
ATOM      1  N   UNL     1       0.050  -2.798   2.395  0.00  0.00    -0.270 N 
ATOM      2  C   UNL     1      -0.944  -2.838   3.352  0.00  0.00    +0.178 A 
ATOM      3  N   UNL     1      -0.515  -3.622   4.318  0.00  0.00    -0.127 NA
ATOM      4  N   UNL     1       0.657  -4.068   4.035  0.00  0.00    -0.122 NA
ATOM      5  C   UNL     1       1.051  -3.603   2.872  0.00  0.00    +0.197 A 
ENDROOT
BRANCH   2   6
ATOM      6  C   UNL     1      -2.233  -2.137   3.302  0.00  0.00    +0.080 A 
ATOM      7  C   UNL     1      -3.234  -2.146   4.226  0.00  0.00    +0.052 A 
ATOM      8  C   UNL     1      -4.435  -1.369   3.963  0.00  0.00    +0.029 A 
ATOM      9  C   UNL     1      -5.594  -1.227   4.766  0.00  0.00    +0.014 A 
ATOM     10  C   UNL     1      -6.623  -0.432   4.316  0.00  0.00    +0.020 A 
ATOM     11  C   UNL     1      -6.525   0.218   3.095  0.00  0.00    +0.112 A 
ATOM     12  N   UNL     1      -5.444   0.083   2.350  0.00  0.00    -0.248 NA
ATOM     13  C   UNL     1      -4.435  -0.664   2.737  0.00  0.00    +0.111 A 
ATOM     14  S   UNL     1      -2.859  -1.065   2.023  0.00  0.00    -0.064 S 
BRANCH   7  15
ATOM     15  N   UNL     1      -3.110  -2.890   5.406  0.00  0.00    -0.356 N 
ATOM     16  H   UNL     1      -2.305  -3.405   5.572  0.00  0.00    +0.142 HD
ATOM     17  H   UNL     1      -3.829  -2.890   6.058  0.00  0.00    +0.142 HD
ENDBRANCH   7  15
ENDBRANCH   2   6
BRANCH   1  23
ATOM     18  C   UNL     1      -0.018   1.503   0.010  0.00  0.00    +0.044 C 
ATOM     19  C   UNL     1       0.002  -0.004   0.002  0.00  0.00    -0.048 A 
ATOM     20  C   UNL     1       0.006  -0.688  -1.200  0.00  0.00    +0.006 A 
ATOM     21  C   UNL     1       0.024  -2.071  -1.211  0.00  0.00    -0.048 A 
ATOM     22  C   UNL     1       0.039  -2.773  -0.022  0.00  0.00    +0.029 A 
ATOM     23  C   UNL     1       0.035  -2.089   1.186  0.00  0.00    +0.051 A 
ATOM     24  C   UNL     1       0.023  -0.700   1.195  0.00  0.00    +0.029 A 
ATOM     25  C   UNL     1       0.028  -2.812  -2.523  0.00  0.00    +0.044 C 
ENDBRANCH   1  23
BRANCH   5  26
ATOM     26  S   UNL     1       2.584  -3.948   2.075  0.00  0.00    -0.076 S 
BRANCH  26  27
ATOM     27  C   UNL     1       3.435  -5.064   3.224  0.00  0.00    +0.173 C 
BRANCH  27  28
ATOM     28  C   UNL     1       4.779  -5.441   2.656  0.00  0.00    +0.224 C 
ATOM     29  O   UNL     1       5.128  -5.001   1.581  0.00  0.00    -0.275 OA
ATOM     30  N   UNL     1       5.592  -6.269   3.341  0.00  0.00    -0.312 N 
ATOM     31  H   UNL     1       5.313  -6.621   4.201  0.00  0.00    +0.149 HD
BRANCH  30  32
ATOM     32  C   UNL     1       6.899  -6.636   2.788  0.00  0.00    +0.073 C 
ATOM     33  C   UNL     1       7.319  -8.104   2.885  0.00  0.00    +0.024 C 
ATOM     34  C   UNL     1       7.990  -7.055   3.775  0.00  0.00    +0.024 C 
ENDBRANCH  30  32
ENDBRANCH  27  28
ENDBRANCH  26  27
ENDBRANCH   5  26
TORSDOF 7
