REMARK  Name = ZINC48610378
REMARK  8 active torsions:
REMARK  status: ('A' for Active; 'I' for Inactive)
REMARK    1  A    between atoms: C_1  and  C_2
REMARK    2  A    between atoms: C_5  and  C_20
REMARK    3  A    between atoms: C_6  and  C_8
REMARK    4  A    between atoms: C_8  and  N_9
REMARK    5  A    between atoms: C_12  and  C_16
REMARK    6  A    between atoms: C_12  and  C_17
REMARK    7  A    between atoms: C_17  and  C_18
REMARK    8  A    between atoms: C_17  and  C_19
REMARK                            x       y       z     vdW  Elec       q    Type
REMARK                         _______ _______ _______ _____ _____    ______ ____
ROOT
ATOM      1  N   UNL     1       1.421  -3.280   2.782  0.00  0.00    -0.220 N 
ATOM      2  C   UNL     1       1.946  -4.454   2.376  0.00  0.00    +0.247 C 
ATOM      3  O   UNL     1       1.395  -5.315   1.724  0.00  0.00    -0.273 OA
ATOM      4  C   UNL     1       3.366  -4.472   2.904  0.00  0.00    +0.112 C 
ATOM      5  N   UNL     1       3.489  -3.187   3.612  0.00  0.00    -0.285 N 
ATOM      6  C   UNL     1       2.306  -2.560   3.481  0.00  0.00    +0.310 C 
ATOM      7  O   UNL     1       2.066  -1.464   3.949  0.00  0.00    -0.252 OA
ATOM      8  C   UNL     1       3.566  -5.641   3.871  0.00  0.00    +0.042 C 
ATOM      9  H   UNL     1       4.272  -2.855   4.080  0.00  0.00    +0.151 HD
ENDROOT
BRANCH   4  10
ATOM     10  C   UNL     1       4.368  -4.549   1.750  0.00  0.00    +0.015 C 
ATOM     11  C   UNL     1       5.784  -4.691   2.312  0.00  0.00    +0.010 C 
ATOM     12  C   UNL     1       4.044  -5.759   0.872  0.00  0.00    +0.010 C 
ENDBRANCH   4  10
BRANCH   1  13
ATOM     13  C   UNL     1       0.054  -2.845   2.489  0.00  0.00    +0.153 C 
BRANCH  13  19
ATOM     14  C   UNL     1      -0.018   1.503   0.010  0.00  0.00    +0.044 C 
ATOM     15  C   UNL     1       0.002  -0.004   0.002  0.00  0.00    -0.050 A 
ATOM     16  C   UNL     1       0.006  -0.689  -1.199  0.00  0.00    +0.003 A 
ATOM     17  C   UNL     1       0.025  -2.071  -1.207  0.00  0.00    +0.004 A 
ATOM     18  C   UNL     1       0.040  -2.768  -0.013  0.00  0.00    -0.046 A 
ATOM     19  C   UNL     1       0.037  -2.084   1.188  0.00  0.00    -0.026 A 
ATOM     20  C   UNL     1       0.023  -0.702   1.195  0.00  0.00    +0.008 A 
ATOM     21  C   UNL     1       0.059  -4.275  -0.021  0.00  0.00    +0.044 C 
ENDBRANCH  13  19
ENDBRANCH   1  13
TORSDOF 3
