REMARK  Name = ZINC39232578
REMARK  2 active torsions:
REMARK  status: ('A' for Active; 'I' for Inactive)
REMARK    1  A    between atoms: C_6  and  C_7
REMARK    2  A    between atoms: C_7  and  N_8
REMARK                            x       y       z     vdW  Elec       q    Type
REMARK                         _______ _______ _______ _____ _____    ______ ____
ROOT
ATOM      1  N   UNL     1      -1.726  -1.017  -1.368  0.00  0.00    -0.259 NA
ATOM      2  C   UNL     1      -1.781  -2.240  -1.832  0.00  0.00    +0.177 C 
ATOM      3  N   UNL     1      -1.454  -3.334  -1.082  0.00  0.00    -0.198 NA
ATOM      4  C   UNL     1      -1.532  -4.555  -1.561  0.00  0.00    +0.181 C 
ATOM      5  N   UNL     1      -1.945  -4.873  -2.831  0.00  0.00    -0.291 N 
ATOM      6  C   UNL     1      -2.843  -3.923  -3.504  0.00  0.00    +0.245 C 
ATOM      7  C   UNL     1      -2.208  -2.560  -3.212  0.00  0.00    +0.129 C 
ATOM      8  N   UNL     1      -2.154  -1.962  -4.339  0.00  0.00    -0.233 NA
ATOM      9  C   UNL     1      -2.413  -2.812  -5.361  0.00  0.00    +0.218 C 
ATOM     10  N   UNL     1      -2.791  -3.997  -4.963  0.00  0.00    -0.243 NA
ATOM     11  N   UNL     1      -1.176  -5.583  -0.734  0.00  0.00    -0.331 N 
ATOM     12  H   UNL     1      -0.879  -5.398   0.171  0.00  0.00    +0.145 HD
ATOM     13  H   UNL     1      -1.221  -6.499  -1.052  0.00  0.00    +0.145 HD
ATOM     14  H   UNL     1      -1.656  -5.690  -3.266  0.00  0.00    +0.151 HD
ENDROOT
BRANCH   1  15
ATOM     15  C   UNL     1      -1.293  -0.775   0.010  0.00  0.00    +0.179 C 
BRANCH  15  21
ATOM     16  C   UNL     1      -0.017   1.378   0.010  0.00  0.00    +0.008 A 
ATOM     17  C   UNL     1       1.170   2.086   0.002  0.00  0.00    +0.038 A 
ATOM     18  C   UNL     1       2.379   1.410  -0.013  0.00  0.00    +0.123 A 
ATOM     19  C   UNL     1       2.396   0.026  -0.021  0.00  0.00    +0.038 A 
ATOM     20  C   UNL     1       1.208  -0.680  -0.013  0.00  0.00    +0.008 A 
ATOM     21  C   UNL     1       0.002  -0.004   0.002  0.00  0.00    -0.026 A 
ATOM     22  F   UNL     1       3.540   2.101  -0.021  0.00  0.00    -0.205 F 
ENDBRANCH  15  21
ENDBRANCH   1  15
TORSDOF 2
