REMARK  Name = ZINC47383932
REMARK  8 active torsions:
REMARK  status: ('A' for Active; 'I' for Inactive)
REMARK    1  A    between atoms: C_1  and  C_2
REMARK    2  A    between atoms: C_2  and  O_3
REMARK    3  A    between atoms: O_3  and  C_4
REMARK    4  A    between atoms: C_7  and  C_10
REMARK    5  A    between atoms: C_11  and  C_12
REMARK    6  A    between atoms: N_14  and  C_15
REMARK    7  A    between atoms: C_19  and  C_21
REMARK    8  A    between atoms: C_21  and  C_28
REMARK                            x       y       z     vdW  Elec       q    Type
REMARK                         _______ _______ _______ _____ _____    ______ ____
ROOT
ATOM      1  C   UNL     1      -4.814  -9.959  -0.120  0.00  0.00    +0.034 A 
ATOM      2  C   UNL     1      -3.896 -10.821   0.467  0.00  0.00    +0.023 A 
ATOM      3  C   UNL     1      -4.064 -12.187   0.355  0.00  0.00    +0.002 A 
ATOM      4  C   UNL     1      -5.144 -12.698  -0.341  0.00  0.00    +0.006 A 
ATOM      5  C   UNL     1      -6.060 -11.843  -0.927  0.00  0.00    -0.014 A 
ATOM      6  C   UNL     1      -5.901 -10.476  -0.814  0.00  0.00    +0.029 A 
ENDROOT
BRANCH   5   7
ATOM      7  C   UNL     1      -7.235 -12.405  -1.685  0.00  0.00    +0.135 C 
ATOM      8  C   UNL     1      -8.534 -12.068  -0.980  0.00  0.00    +0.248 C 
ATOM      9  O   UNL     1      -8.982 -10.963  -0.758  0.00  0.00    -0.273 OA
ATOM     10  N   UNL     1      -9.088 -13.252  -0.652  0.00  0.00    -0.238 N 
ATOM     11  C   UNL     1      -8.328 -14.279  -1.047  0.00  0.00    +0.307 C 
ATOM     12  O   UNL     1      -8.619 -15.445  -0.864  0.00  0.00    -0.252 OA
ATOM     13  N   UNL     1      -7.205 -13.877  -1.671  0.00  0.00    -0.282 N 
ATOM     14  C   UNL     1      -7.247 -11.880  -3.122  0.00  0.00    +0.047 C 
ATOM     15  H   UNL     1      -9.934 -13.347  -0.186  0.00  0.00    +0.159 HD
ATOM     16  H   UNL     1      -6.512 -14.447  -2.039  0.00  0.00    +0.152 HD
ENDBRANCH   5   7
BRANCH   1  19
ATOM     17  C   UNL     1      -3.409  -8.043  -0.014  0.00  0.00    +0.241 C 
ATOM     18  O   UNL     1      -2.434  -8.772  -0.031  0.00  0.00    -0.270 OA
ATOM     19  N   UNL     1      -4.647  -8.576  -0.009  0.00  0.00    -0.282 N 
ATOM     20  H   UNL     1      -5.423  -7.999   0.072  0.00  0.00    +0.155 HD
BRANCH  17  22
ATOM     21  C   UNL     1      -1.997  -6.059  -0.005  0.00  0.00    +0.013 C 
ATOM     22  C   UNL     1      -3.237  -6.592   0.000  0.00  0.00    +0.068 C 
BRANCH  21  26
ATOM     23  C   UNL     1      -1.499  -1.847   0.035  0.00  0.00    +0.121 A 
ATOM     24  C   UNL     1      -0.383  -2.676   0.017  0.00  0.00    +0.046 A 
ATOM     25  C   UNL     1      -0.539  -4.044   0.004  0.00  0.00    +0.011 A 
ATOM     26  C   UNL     1      -1.824  -4.599   0.009  0.00  0.00    -0.025 A 
ATOM     27  C   UNL     1      -2.944  -3.759   0.028  0.00  0.00    +0.011 A 
ATOM     28  C   UNL     1      -2.777  -2.393   0.046  0.00  0.00    +0.046 A 
BRANCH  23  29
ATOM     29  O   UNL     1      -1.339  -0.499   0.049  0.00  0.00    -0.492 OA
BRANCH  29  31
ATOM     30  C   UNL     1      -0.019   1.526   0.054  0.00  0.00    +0.048 C 
ATOM     31  C   UNL     1       0.002  -0.004   0.036  0.00  0.00    +0.225 C 
ENDBRANCH  29  31
ENDBRANCH  23  29
ENDBRANCH  21  26
ENDBRANCH  17  22
ENDBRANCH   1  19
TORSDOF 6
