REMARK  Name = ZINC67119447
REMARK  6 active torsions:
REMARK  status: ('A' for Active; 'I' for Inactive)
REMARK    1  A    between atoms: C_1  and  C_2
REMARK    2  A    between atoms: C_8  and  C_10
REMARK    3  A    between atoms: N_13  and  C_16
REMARK    4  A    between atoms: C_16  and  C_18
REMARK    5  A    between atoms: C_16  and  C_19
REMARK    6  A    between atoms: C_25  and  C_28
REMARK                            x       y       z     vdW  Elec       q    Type
REMARK                         _______ _______ _______ _____ _____    ______ ____
ROOT
ATOM      1  C   UNL     1       2.812  -4.237   1.043  0.00  0.00    +0.072 C 
ATOM      2  C   UNL     1       1.869  -5.056   1.930  0.00  0.00    -0.006 C 
ATOM      3  C   UNL     1       2.564  -5.362   3.258  0.00  0.00    -0.077 C 
ATOM      4  N   UNL     1       3.790  -6.128   3.008  0.00  0.00    +0.387 N 
ATOM      5  C   UNL     1       4.729  -5.321   2.219  0.00  0.00    -0.077 C 
ATOM      6  C   UNL     1       4.118  -5.013   0.850  0.00  0.00    -0.006 C 
ATOM      7  H   UNL     1       3.562  -6.970   2.500  0.00  0.00    -0.081 HD
ENDROOT
BRANCH   1  15
ATOM      8  C   UNL     1      -0.012   0.957  -0.947  0.00  0.00    +0.007 C 
ATOM      9  C   UNL     1      -0.037  -0.559  -0.746  0.00  0.00    -0.011 C 
ATOM     10  C   UNL     1       0.672  -1.241  -1.919  0.00  0.00    +0.022 C 
ATOM     11  C   UNL     1       0.615  -2.760  -1.731  0.00  0.00    +0.108 C 
ATOM     12  N   UNL     1       1.171  -3.095  -0.413  0.00  0.00    -0.301 N 
ATOM     13  C   UNL     1       0.622  -2.428   0.775  0.00  0.00    +0.108 C 
ATOM     14  C   UNL     1       0.679  -0.912   0.560  0.00  0.00    +0.022 C 
ATOM     15  C   UNL     1       2.164  -3.998  -0.296  0.00  0.00    +0.219 C 
ATOM     16  O   UNL     1       2.538  -4.619  -1.269  0.00  0.00    -0.275 OA
ENDBRANCH   1  15
BRANCH   4  17
ATOM     17  C   UNL     1       4.412  -6.486   4.289  0.00  0.00    +0.016 C 
ATOM     18  C   UNL     1       5.728  -7.223   4.030  0.00  0.00    -0.004 C 
BRANCH  17  19
ATOM     19  C   UNL     1       3.481  -7.380   5.067  0.00  0.00    +0.202 C 
ATOM     20  O   UNL     1       2.633  -8.024   4.486  0.00  0.00    -0.277 OA
ATOM     21  N   UNL     1       3.591  -7.465   6.408  0.00  0.00    -0.302 N 
ATOM     22  C   UNL     1       4.526  -6.598   7.138  0.00  0.00    +0.108 C 
ATOM     23  C   UNL     1       3.759  -5.867   8.244  0.00  0.00    +0.020 C 
ATOM     24  C   UNL     1       3.036  -6.892   9.121  0.00  0.00    +0.016 C 
ATOM     25  C   UNL     1       2.031  -7.674   8.272  0.00  0.00    +0.092 C 
ATOM     26  C   UNL     1       2.774  -8.421   7.167  0.00  0.00    +0.120 C 
BRANCH  25  27
ATOM     27  C   UNL     1       1.296  -8.660   9.143  0.00  0.00    +0.215 C 
ATOM     28  O   UNL     1       1.360  -9.847   8.903  0.00  0.00    -0.276 OA
ATOM     29  N   UNL     1       0.567  -8.222  10.189  0.00  0.00    -0.329 N 
ATOM     30  H   UNL     1       0.516  -7.273  10.381  0.00  0.00    +0.145 HD
ATOM     31  H   UNL     1       0.094  -8.857  10.750  0.00  0.00    +0.145 HD
ENDBRANCH  25  27
ENDBRANCH  17  19
ENDBRANCH   4  17
TORSDOF 4
