REMARK  Name = ZINC63375731
REMARK  8 active torsions:
REMARK  status: ('A' for Active; 'I' for Inactive)
REMARK    1  A    between atoms: C_1  and  C_2
REMARK    2  A    between atoms: C_2  and  C_3
REMARK    3  A    between atoms: C_3  and  N_4
REMARK    4  A    between atoms: C_5  and  O_32
REMARK    5  A    between atoms: C_7  and  C_17
REMARK    6  A    between atoms: N_11  and  C_14
REMARK    7  A    between atoms: C_14  and  C_15
REMARK    8  A    between atoms: C_15  and  C_16
REMARK                            x       y       z     vdW  Elec       q    Type
REMARK                         _______ _______ _______ _____ _____    ______ ____
ROOT
ATOM      1  N   UNL     1       0.584  -2.077  -1.381  0.00  0.00    -0.259 N 
ATOM      2  C   UNL     1       1.736  -2.670  -0.699  0.00  0.00    +0.219 C 
ATOM      3  C   UNL     1       2.176  -3.933  -1.443  0.00  0.00    +0.142 C 
ATOM      4  C   UNL     1       0.963  -4.776  -1.749  0.00  0.00    +0.232 C 
ATOM      5  O   UNL     1       1.047  -5.985  -1.742  0.00  0.00    -0.275 OA
ATOM      6  N   UNL     1      -0.212  -4.184  -2.030  0.00  0.00    -0.225 N 
ATOM      7  C   UNL     1      -0.353  -2.850  -1.952  0.00  0.00    +0.313 C 
ATOM      8  O   UNL     1      -1.351  -2.330  -2.413  0.00  0.00    -0.252 OA
ENDROOT
BRANCH   3   9
ATOM      9  C   UNL     1       2.871  -3.542  -2.749  0.00  0.00    +0.096 C 
ATOM     10  C   UNL     1       4.155  -2.770  -2.438  0.00  0.00    +0.124 C 
ATOM     11  C   UNL     1       4.689  -2.274  -3.778  0.00  0.00    -0.036 C 
ATOM     12  C   UNL     1       5.942  -2.696  -3.862  0.00  0.00    -0.001 A 
ATOM     13  C   UNL     1       6.991  -2.465  -4.868  0.00  0.00    +0.010 A 
ATOM     14  C   UNL     1       8.184  -3.076  -4.643  0.00  0.00    +0.001 A 
ATOM     15  C   UNL     1       8.436  -3.885  -3.531  0.00  0.00    +0.002 A 
ATOM     16  C   UNL     1       7.532  -4.147  -2.553  0.00  0.00    +0.026 A 
ATOM     17  C   UNL     1       6.242  -3.556  -2.675  0.00  0.00    +0.043 A 
ATOM     18  N   UNL     1       5.199  -3.620  -1.870  0.00  0.00    -0.376 N 
ATOM     19  C   UNL     1       3.806  -1.542  -4.760  0.00  0.00    +0.048 C 
ATOM     20  C   UNL     1       2.512  -2.369  -4.873  0.00  0.00    +0.085 C 
ATOM     21  N   UNL     1       1.986  -2.671  -3.539  0.00  0.00    -0.310 NA
ATOM     22  H   UNL     1       1.055  -3.056  -3.596  0.00  0.00    +0.122 HD
ATOM     23  H   UNL     1       5.128  -4.138  -1.052  0.00  0.00    +0.160 HD
ENDBRANCH   3   9
BRANCH   2  24
ATOM     24  O   UNL     1       1.374  -3.009   0.641  0.00  0.00    -0.373 OA
ATOM     25  H   UNL     1       1.084  -2.255   1.173  0.00  0.00    +0.212 HD
ENDBRANCH   2  24
BRANCH   1  26
ATOM     26  C   UNL     1       0.450  -0.619  -1.436  0.00  0.00    +0.111 C 
BRANCH  26  28
ATOM     27  C   UNL     1      -0.475   1.390  -0.273  0.00  0.00    +0.005 C 
ATOM     28  C   UNL     1      -0.334  -0.133  -0.215  0.00  0.00    +0.016 C 
ENDBRANCH  26  28
ENDBRANCH   1  26
BRANCH   6  29
ATOM     29  C   UNL     1      -1.359  -5.008  -2.421  0.00  0.00    +0.118 C 
BRANCH  29  30
ATOM     30  C   UNL     1      -2.147  -5.411  -1.173  0.00  0.00    +0.016 C 
ATOM     31  C   UNL     1      -3.345  -6.271  -1.581  0.00  0.00    +0.005 C 
ENDBRANCH  29  30
ENDBRANCH   6  29
TORSDOF 6
