REMARK  Name = ZINC58171180
REMARK  8 active torsions:
REMARK  status: ('A' for Active; 'I' for Inactive)
REMARK    1  A    between atoms: C_1  and  C_2
REMARK    2  A    between atoms: C_2  and  C_4
REMARK    3  A    between atoms: C_2  and  N_10
REMARK    4  A    between atoms: N_10  and  C_11
REMARK    5  A    between atoms: C_11  and  C_12
REMARK    6  A    between atoms: C_17  and  C_18
REMARK    7  A    between atoms: C_21  and  C_24
REMARK    8  A    between atoms: C_24  and  N_25
REMARK                            x       y       z     vdW  Elec       q    Type
REMARK                         _______ _______ _______ _____ _____    ______ ____
ROOT
ATOM      1  C   UNL     1       2.916  -1.048   2.163  0.00  0.00    -0.026 A 
ATOM      2  C   UNL     1       3.595  -0.168   2.980  0.00  0.00    +0.005 A 
ATOM      3  C   UNL     1       4.173  -0.615   4.154  0.00  0.00    +0.000 A 
ATOM      4  C   UNL     1       4.073  -1.946   4.517  0.00  0.00    +0.001 A 
ATOM      5  C   UNL     1       3.395  -2.835   3.708  0.00  0.00    +0.009 A 
ATOM      6  C   UNL     1       2.807  -2.389   2.526  0.00  0.00    -0.013 A 
ENDROOT
BRANCH   6   7
ATOM      7  C   UNL     1       2.072  -3.339   1.654  0.00  0.00    -0.018 A 
ATOM      8  C   UNL     1       2.448  -3.499   0.322  0.00  0.00    +0.009 A 
ATOM      9  C   UNL     1       1.762  -4.385  -0.484  0.00  0.00    +0.006 A 
ATOM     10  C   UNL     1       0.703  -5.113   0.029  0.00  0.00    -0.026 A 
ATOM     11  C   UNL     1       0.326  -4.957   1.350  0.00  0.00    +0.006 A 
ATOM     12  C   UNL     1       1.009  -4.079   2.167  0.00  0.00    +0.009 A 
BRANCH  10  13
ATOM     13  C   UNL     1      -0.043  -6.078  -0.857  0.00  0.00    +0.180 C 
BRANCH  13  14
ATOM     14  N   UNL     1       0.586  -7.399  -0.777  0.00  0.00    -0.248 N 
ATOM     15  C   UNL     1      -0.014  -8.559  -0.460  0.00  0.00    +0.219 A 
ATOM     16  N   UNL     1       0.887  -9.507  -0.500  0.00  0.00    -0.223 NA
ATOM     17  C   UNL     1       2.069  -8.992  -0.837  0.00  0.00    +0.245 A 
ATOM     18  N   UNL     1       1.935  -7.705  -1.022  0.00  0.00    -0.158 NA
ENDBRANCH  13  14
ENDBRANCH  10  13
ENDBRANCH   6   7
BRANCH   1  19
ATOM     19  C   UNL     1       2.287  -0.559   0.883  0.00  0.00    +0.117 C 
BRANCH  19  20
ATOM     20  N   UNL     1       0.829  -0.492   1.049  0.00  0.00    -0.302 NA
ATOM     21  H   UNL     1       0.580   0.089   1.836  0.00  0.00    +0.123 HD
BRANCH  20  23
ATOM     22  C   UNL     1       0.183   1.512  -0.202  0.00  0.00    +0.034 C 
ATOM     23  C   UNL     1       0.180  -0.018  -0.181  0.00  0.00    +0.138 C 
BRANCH  23  24
ATOM     24  C   UNL     1      -1.240  -0.519  -0.225  0.00  0.00    +0.237 C 
ATOM     25  O   UNL     1      -1.670  -1.203   0.678  0.00  0.00    -0.274 OA
ATOM     26  N   UNL     1      -2.033  -0.207  -1.270  0.00  0.00    -0.239 N 
ATOM     27  C   UNL     1      -3.303  -0.655  -1.309  0.00  0.00    +0.303 C 
ATOM     28  O   UNL     1      -3.734  -1.341  -0.403  0.00  0.00    -0.253 OA
ATOM     29  N   UNL     1      -4.096  -0.342  -2.354  0.00  0.00    -0.313 N 
ATOM     30  H   UNL     1      -1.689   0.341  -1.993  0.00  0.00    +0.159 HD
ATOM     31  H   UNL     1      -3.752   0.205  -3.077  0.00  0.00    +0.146 HD
ATOM     32  H   UNL     1      -5.010  -0.664  -2.382  0.00  0.00    +0.146 HD
ENDBRANCH  23  24
ENDBRANCH  20  23
ENDBRANCH  19  20
ENDBRANCH   1  19
TORSDOF 7
