REMARK  Name = ZINC19312446
REMARK  6 active torsions:
REMARK  status: ('A' for Active; 'I' for Inactive)
REMARK    1  A    between atoms: C_9  and  S_11
REMARK    2  A    between atoms: S_11  and  C_12
REMARK    3  A    between atoms: C_12  and  C_13
REMARK    4  A    between atoms: C_13  and  C_14
REMARK    5  A    between atoms: C_14  and  C_15
REMARK    6  A    between atoms: C_17  and  C_20
REMARK                            x       y       z     vdW  Elec       q    Type
REMARK                         _______ _______ _______ _____ _____    ______ ____
ROOT
ATOM      1  C   UNL     1      -5.357   4.305   0.050  0.00  0.00    +0.078 C 
ENDROOT
BRANCH   1   2
ATOM      2  S   UNL     1      -5.075   2.517   0.038  0.00  0.00    -0.088 S 
BRANCH   2  11
ATOM      3  C   UNL     1       1.172   1.783   0.000  0.00  0.00    +0.002 A 
ATOM      4  C   UNL     1       1.162   3.170   0.008  0.00  0.00    +0.002 A 
ATOM      5  C   UNL     1      -0.029   3.860   0.023  0.00  0.00    +0.030 A 
ATOM      6  C   UNL     1      -1.238   3.159   0.031  0.00  0.00    +0.090 A 
ATOM      7  C   UNL     1      -1.222   1.754   0.017  0.00  0.00    +0.067 A 
ATOM      8  C   UNL     1      -0.013   1.076   0.008  0.00  0.00    +0.028 A 
ATOM      9  N   UNL     1      -2.548   1.353   0.021  0.00  0.00    -0.333 N 
ATOM     10  H   UNL     1      -2.799   0.282   0.016  0.00  0.00    +0.168 HD
ATOM     11  C   UNL     1      -3.313   2.485   0.031  0.00  0.00    +0.167 A 
ATOM     12  N   UNL     1      -2.541   3.544   0.045  0.00  0.00    -0.222 NA
ENDBRANCH   2  11
ENDBRANCH   1   2
BRANCH   1  13
ATOM     13  C   UNL     1      -6.861   4.583   0.058  0.00  0.00    +0.020 C 
BRANCH  13  14
ATOM     14  C   UNL     1      -7.100   6.095   0.067  0.00  0.00    +0.099 C 
BRANCH  14  15
ATOM     15  C   UNL     1      -8.582   6.369   0.075  0.00  0.00    +0.228 A 
ATOM     16  N   UNL     1      -9.341   6.505   1.133  0.00  0.00    -0.191 NA
ATOM     17  C   UNL     1     -10.587   6.739   0.658  0.00  0.00    +0.209 A 
ATOM     18  N   UNL     1     -10.509   6.731  -0.650  0.00  0.00    -0.056 NA
ATOM     19  O   UNL     1      -9.366   6.525  -0.997  0.00  0.00    -0.338 OA
BRANCH  17  20
ATOM     20  C   UNL     1     -11.806   6.960   1.464  0.00  0.00    +0.060 A 
ATOM     21  C   UNL     1     -13.086   7.206   1.042  0.00  0.00    +0.019 A 
ATOM     22  C   UNL     1     -14.072   7.379   1.987  0.00  0.00    +0.008 A 
ATOM     23  C   UNL     1     -13.746   7.311   3.304  0.00  0.00    +0.046 A 
ATOM     24  S   UNL     1     -11.992   6.986   3.239  0.00  0.00    -0.093 S 
ENDBRANCH  17  20
ENDBRANCH  14  15
ENDBRANCH  13  14
ENDBRANCH   1  13
TORSDOF 6
