REMARK  Name = ZINC39395783
REMARK  9 active torsions:
REMARK  status: ('A' for Active; 'I' for Inactive)
REMARK    1  A    between atoms: C_1  and  C_2
REMARK    2  A    between atoms: C_4  and  C_33
REMARK    3  A    between atoms: C_5  and  C_18
REMARK    4  A    between atoms: C_7  and  C_8
REMARK    5  A    between atoms: C_8  and  S_9
REMARK    6  A    between atoms: S_9  and  C_10
REMARK    7  A    between atoms: C_20  and  C_31
REMARK    8  A    between atoms: C_21  and  N_30
REMARK    9  A    between atoms: C_26  and  C_29
REMARK                            x       y       z     vdW  Elec       q    Type
REMARK                         _______ _______ _______ _____ _____    ______ ____
ROOT
ATOM      1  C   UNL     1      -0.018   1.503   0.010  0.00  0.00    +0.044 C 
ATOM      2  C   UNL     1       0.002  -0.004   0.002  0.00  0.00    -0.046 A 
ATOM      3  C   UNL     1       0.006  -0.689  -1.199  0.00  0.00    +0.007 A 
ATOM      4  C   UNL     1       0.025  -2.071  -1.207  0.00  0.00    -0.046 A 
ATOM      5  C   UNL     1       0.040  -2.768  -0.013  0.00  0.00    -0.032 A 
ATOM      6  C   UNL     1       0.037  -2.084   1.188  0.00  0.00    +0.009 A 
ATOM      7  C   UNL     1       0.023  -0.702   1.195  0.00  0.00    -0.034 A 
ATOM      8  C   UNL     1       0.027  -2.817  -2.516  0.00  0.00    +0.044 C 
ENDROOT
BRANCH   5   9
ATOM      9  C   UNL     1       0.059  -4.275  -0.021  0.00  0.00    +0.098 C 
ATOM     10  C   UNL     1      -1.138  -4.820   0.735  0.00  0.00    +0.097 C 
ATOM     11  C   UNL     1      -1.000  -5.733   1.720  0.00  0.00    +0.195 C 
ATOM     12  O   UNL     1       0.153  -6.254   2.177  0.00  0.00    -0.448 OA
ATOM     13  C   UNL     1       1.289  -6.195   1.310  0.00  0.00    +0.343 C 
ATOM     14  C   UNL     1       1.268  -4.784   0.715  0.00  0.00    +0.030 C 
ATOM     15  C   UNL     1       2.432  -4.267   1.023  0.00  0.00    +0.066 C 
ATOM     16  N   UNL     1       3.133  -5.121   1.812  0.00  0.00    -0.155 NA
ATOM     17  N   UNL     1       2.557  -6.210   2.044  0.00  0.00    -0.138 NA
ATOM     18  C   UNL     1       2.922  -2.917   0.567  0.00  0.00    +0.067 C 
BRANCH  11  19
ATOM     19  N   UNL     1      -2.155  -6.173   2.317  0.00  0.00    -0.329 N 
ATOM     20  H   UNL     1      -3.013  -5.829   2.026  0.00  0.00    +0.145 HD
ATOM     21  H   UNL     1      -2.112  -6.829   3.030  0.00  0.00    +0.145 HD
ENDBRANCH  11  19
BRANCH  10  22
ATOM     22  C   UNL     1      -2.449  -4.353   0.395  0.00  0.00    +0.101 C 
ATOM     23  N   UNL     1      -3.489  -3.983   0.126  0.00  0.00    -0.191 NA
ENDBRANCH  10  22
ENDBRANCH   5   9
BRANCH   7  24
ATOM     24  C   UNL     1       0.025   0.045   2.504  0.00  0.00    +0.109 C 
BRANCH  24  25
ATOM     25  S   UNL     1      -1.684   0.321   3.046  0.00  0.00    -0.119 S 
BRANCH  25  26
ATOM     26  C   UNL     1      -1.513   1.192   4.568  0.00  0.00    +0.028 A 
ATOM     27  C   UNL     1      -0.249   1.501   5.056  0.00  0.00    +0.036 A 
ATOM     28  C   UNL     1      -0.119   2.185   6.250  0.00  0.00    +0.042 A 
ATOM     29  C   UNL     1      -1.246   2.562   6.959  0.00  0.00    +0.021 A 
ATOM     30  C   UNL     1      -2.506   2.256   6.477  0.00  0.00    +0.022 A 
ATOM     31  C   UNL     1      -2.643   1.577   5.281  0.00  0.00    +0.054 A 
ATOM     32 CL   UNL     1      -4.225   1.200   4.673  0.00  0.00    -0.082 Cl
ATOM     33 CL   UNL     1       1.459   2.570   6.860  0.00  0.00    -0.084 Cl
ENDBRANCH  25  26
ENDBRANCH  24  25
ENDBRANCH   7  24
TORSDOF 6
