REMARK  Name = ZINC43188344
REMARK  14 active torsions:
REMARK  status: ('A' for Active; 'I' for Inactive)
REMARK    1  A    between atoms: C_1  and  C_2
REMARK    2  A    between atoms: C_2  and  C_3
REMARK    3  A    between atoms: C_3  and  C_5
REMARK    4  A    between atoms: C_3  and  N_6
REMARK    5  A    between atoms: C_7  and  C_9
REMARK    6  A    between atoms: C_12  and  C_15
REMARK    7  A    between atoms: C_15  and  N_16
REMARK    8  A    between atoms: N_19  and  C_20
REMARK    9  A    between atoms: C_20  and  C_21
REMARK   10  A    between atoms: C_21  and  C_22
REMARK   11  A    between atoms: C_21  and  C_23
REMARK   12  A    between atoms: C_21  and  N_24
REMARK   13  A    between atoms: N_24  and  C_25
REMARK   14  A    between atoms: N_24  and  C_26
REMARK                            x       y       z     vdW  Elec       q    Type
REMARK                         _______ _______ _______ _____ _____    ______ ____
ROOT
ATOM      1  C   UNL     1      -2.476   1.535  -8.281  0.00  0.00    +0.141 C 
ENDROOT
BRANCH   1   5
ATOM      2  C   UNL     1      -0.219   0.415  -4.825  0.00  0.00    +0.037 A 
ATOM      3  C   UNL     1      -1.593   0.640  -4.723  0.00  0.00    +0.013 A 
ATOM      4  C   UNL     1      -2.315   1.002  -5.841  0.00  0.00    +0.006 A 
ATOM      5  C   UNL     1      -1.681   1.141  -7.063  0.00  0.00    -0.030 A 
ATOM      6  C   UNL     1      -0.319   0.919  -7.172  0.00  0.00    +0.006 A 
ATOM      7  C   UNL     1       0.416   0.563  -6.060  0.00  0.00    +0.013 A 
BRANCH   2   9
ATOM      8  N   UNL     1      -0.055  -0.114  -2.441  0.00  0.00    -0.309 N 
ATOM      9  C   UNL     1       0.561   0.028  -3.631  0.00  0.00    +0.244 C 
ATOM     10  O   UNL     1       1.758  -0.163  -3.722  0.00  0.00    -0.270 OA
ATOM     11  H   UNL     1      -1.010   0.038  -2.368  0.00  0.00    +0.149 HD
BRANCH   8  12
ATOM     12  C   UNL     1       0.718  -0.497  -1.257  0.00  0.00    +0.070 C 
ATOM     13  C   UNL     1       0.849  -2.021  -1.205  0.00  0.00    +0.028 C 
BRANCH  12  15
ATOM     14  C   UNL     1      -0.019   1.526   0.010  0.00  0.00    +0.005 C 
ATOM     15  C   UNL     1       0.002  -0.004   0.002  0.00  0.00    +0.018 C 
ENDBRANCH  12  15
ENDBRANCH   8  12
ENDBRANCH   2   9
ENDBRANCH   1   5
BRANCH   1  16
ATOM     16  N   UNL     1      -2.495   2.995  -8.400  0.00  0.00    -0.295 N 
ATOM     17  C   UNL     1      -3.151   3.580  -9.421  0.00  0.00    +0.300 C 
ATOM     18  O   UNL     1      -3.728   2.896 -10.244  0.00  0.00    -0.253 OA
ATOM     19  N   UNL     1      -3.169   4.923  -9.530  0.00  0.00    -0.301 N 
ATOM     20  H   UNL     1      -2.034   3.541  -7.743  0.00  0.00    +0.151 HD
ATOM     21  H   UNL     1      -2.708   5.469  -8.874  0.00  0.00    +0.150 HD
BRANCH  19  22
ATOM     22  C   UNL     1      -3.883   5.559 -10.641  0.00  0.00    +0.093 C 
BRANCH  22  23
ATOM     23  C   UNL     1      -3.747   7.079 -10.531  0.00  0.00    -0.056 C 
ATOM     24  C   UNL     1      -4.492   7.742 -11.691  0.00  0.00    -0.008 C 
ATOM     25  C   UNL     1      -4.345   7.550  -9.204  0.00  0.00    -0.008 C 
BRANCH  23  26
ATOM     26  N   UNL     1      -2.326   7.448 -10.587  0.00  0.00    +0.380 N 
ATOM     27  C   UNL     1      -1.752   6.996 -11.861  0.00  0.00    -0.096 C 
ATOM     28  C   UNL     1      -2.196   8.908 -10.482  0.00  0.00    -0.096 C 
ATOM     29  H   UNL     1      -1.834   7.011  -9.822  0.00  0.00    -0.082 HD
ENDBRANCH  23  26
ENDBRANCH  22  23
ENDBRANCH  19  22
ENDBRANCH   1  16
TORSDOF 8
