REMARK  Name = ZINC20617224
REMARK  11 active torsions:
REMARK  status: ('A' for Active; 'I' for Inactive)
REMARK    1  A    between atoms: C_1  and  C_2
REMARK    2  A    between atoms: C_2  and  C_3
REMARK    3  A    between atoms: C_6  and  N_9
REMARK    4  A    between atoms: C_11  and  C_23
REMARK    5  A    between atoms: C_14  and  C_21
REMARK    6  A    between atoms: C_17  and  C_20
REMARK    7  A    between atoms: C_21  and  O_22
REMARK    8  A    between atoms: N_25  and  C_26
REMARK    9  A    between atoms: C_29  and  C_32
REMARK   10  A    between atoms: C_32  and  O_34
REMARK   11  A    between atoms: O_34  and  C_35
REMARK                            x       y       z     vdW  Elec       q    Type
REMARK                         _______ _______ _______ _____ _____    ______ ____
ROOT
ATOM      1  N   UNL     1       5.085   6.394   1.276  0.00  0.00    -0.325 N 
ATOM      2  C   UNL     1       4.301   5.636   0.540  0.00  0.00    +0.212 A 
ATOM      3  C   UNL     1       4.654   4.231   0.256  0.00  0.00    +0.098 A 
ATOM      4  C   UNL     1       3.617   3.361  -0.004  0.00  0.00    +0.030 A 
ATOM      5  C   UNL     1       2.259   3.908   0.022  0.00  0.00    +0.027 A 
ATOM      6  C   UNL     1       1.131   3.079   0.034  0.00  0.00    +0.007 A 
ATOM      7  C   UNL     1      -0.117   3.667   0.059  0.00  0.00    +0.117 A 
ATOM      8  N   UNL     1      -0.254   4.980   0.082  0.00  0.00    -0.256 NA
ATOM      9  C   UNL     1       0.776   5.801   0.070  0.00  0.00    +0.081 A 
ATOM     10  C   UNL     1       2.071   5.303   0.039  0.00  0.00    +0.159 A 
ATOM     11  O   UNL     1       3.146   6.126   0.022  0.00  0.00    -0.437 OA
ATOM     12  C   UNL     1       0.547   7.291   0.091  0.00  0.00    +0.069 C 
ATOM     13  H   UNL     1       5.975   5.960   1.757  0.00  0.00    +0.169 HD
ENDROOT
BRANCH   1  17
ATOM     14  C   UNL     1       4.206  10.404   1.783  0.00  0.00    -0.047 A 
ATOM     15  C   UNL     1       3.785   9.482   2.726  0.00  0.00    +0.005 A 
ATOM     16  C   UNL     1       4.075   8.144   2.563  0.00  0.00    +0.026 A 
ATOM     17  C   UNL     1       4.795   7.719   1.444  0.00  0.00    +0.042 A 
ATOM     18  C   UNL     1       5.221   8.656   0.499  0.00  0.00    +0.026 A 
ATOM     19  C   UNL     1       4.919   9.991   0.671  0.00  0.00    +0.005 A 
BRANCH  14  21
ATOM     20  C   UNL     1       5.012  12.538   2.756  0.00  0.00    +0.009 C 
ATOM     21  C   UNL     1       3.886  11.865   1.968  0.00  0.00    +0.032 C 
ENDBRANCH  14  21
ENDBRANCH   1  17
BRANCH   3  22
ATOM     22  C   UNL     1       6.056   3.777   0.251  0.00  0.00    +0.253 C 
ATOM     23  O   UNL     1       6.318   2.613   0.014  0.00  0.00    -0.270 OA
ATOM     24  N   UNL     1       7.048   4.652   0.510  0.00  0.00    -0.281 N 
ATOM     25  H   UNL     1       6.809   5.686   0.797  0.00  0.00    +0.155 HD
BRANCH  24  26
ATOM     26  C   UNL     1       8.377   4.246   0.413  0.00  0.00    +0.034 A 
ATOM     27  C   UNL     1       9.342   5.134  -0.052  0.00  0.00    +0.024 A 
ATOM     28  C   UNL     1      10.657   4.738  -0.144  0.00  0.00    +0.017 A 
ATOM     29  C   UNL     1      11.021   3.438   0.219  0.00  0.00    +0.059 A 
ATOM     30  C   UNL     1      10.048   2.546   0.680  0.00  0.00    +0.017 A 
ATOM     31  C   UNL     1       8.736   2.951   0.775  0.00  0.00    +0.024 A 
BRANCH  29  32
ATOM     32  C   UNL     1      12.428   3.008   0.116  0.00  0.00    +0.339 C 
ATOM     33  O   UNL     1      12.742   1.878   0.432  0.00  0.00    -0.245 OA
BRANCH  32  34
ATOM     34  O   UNL     1      13.364   3.869  -0.328  0.00  0.00    -0.464 OA
ATOM     35  C   UNL     1      14.729   3.377  -0.404  0.00  0.00    +0.280 C 
ENDBRANCH  32  34
ENDBRANCH  29  32
ENDBRANCH  24  26
ENDBRANCH   3  22
BRANCH   6  36
ATOM     36  C   UNL     1       1.276   1.579   0.013  0.00  0.00    +0.193 C 
BRANCH  36  37
ATOM     37  O   UNL     1      -0.019   0.975   0.031  0.00  0.00    -0.390 OA
ATOM     38  H   UNL     1      -0.115  -0.121   0.020  0.00  0.00    +0.210 HD
ENDBRANCH  36  37
ENDBRANCH   6  36
TORSDOF 8
