REMARK  Name = ZINC39687892
REMARK  8 active torsions:
REMARK  status: ('A' for Active; 'I' for Inactive)
REMARK    1  A    between atoms: C_1  and  C_2
REMARK    2  A    between atoms: C_2  and  C_3
REMARK    3  A    between atoms: C_3  and  C_4
REMARK    4  A    between atoms: C_4  and  C_6
REMARK    5  A    between atoms: C_4  and  C_7
REMARK    6  A    between atoms: C_11  and  C_20
REMARK    7  A    between atoms: N_22  and  C_23
REMARK    8  A    between atoms: C_29  and  C_31
REMARK                            x       y       z     vdW  Elec       q    Type
REMARK                         _______ _______ _______ _____ _____    ______ ____
ROOT
ATOM      1  C   UNL     1       1.454  -2.515  -2.526  0.00  0.00    +0.218 C 
ATOM      2  O   UNL     1       2.025  -1.720  -3.242  0.00  0.00    -0.275 OA
ATOM      3  N   UNL     1       1.521  -3.834  -2.796  0.00  0.00    -0.300 N 
ATOM      4  C   UNL     1       0.811  -4.939  -2.110  0.00  0.00    +0.121 C 
ATOM      5  C   UNL     1       0.405  -5.906  -3.244  0.00  0.00    +0.100 C 
ATOM      6  C   UNL     1       1.401  -5.619  -4.380  0.00  0.00    -0.004 C 
ATOM      7  C   UNL     1       2.317  -4.506  -3.851  0.00  0.00    +0.115 C 
ATOM      8  C   UNL     1       0.660  -5.137  -5.624  0.00  0.00    -0.010 C 
ATOM      9  C   UNL     1       1.666  -4.913  -6.756  0.00  0.00    -0.082 C 
ATOM     10  N   UNL     1       2.374  -6.167  -7.040  0.00  0.00    +0.379 N 
ATOM     11  C   UNL     1       3.159  -6.575  -5.868  0.00  0.00    -0.082 C 
ATOM     12  C   UNL     1       2.216  -6.869  -4.697  0.00  0.00    -0.010 C 
ATOM     13  H   UNL     1       1.704  -6.888  -7.261  0.00  0.00    -0.086 HD
ATOM     14  H   UNL     1       2.992  -6.033  -7.826  0.00  0.00    -0.086 HD
ENDROOT
BRANCH   5  15
ATOM     15  C   UNL     1       0.528  -7.336  -2.784  0.00  0.00    +0.218 C 
ATOM     16  O   UNL     1       1.414  -7.653  -2.019  0.00  0.00    -0.275 OA
ATOM     17  N   UNL     1      -0.347  -8.262  -3.223  0.00  0.00    -0.312 N 
ATOM     18  H   UNL     1      -1.056  -8.009  -3.835  0.00  0.00    +0.149 HD
BRANCH  17  19
ATOM     19  C   UNL     1      -0.228  -9.652  -2.776  0.00  0.00    +0.076 C 
ATOM     20  C   UNL     1       0.777 -10.390  -3.665  0.00  0.00    +0.041 C 
ATOM     21  C   UNL     1       0.925 -11.833  -3.173  0.00  0.00    +0.109 C 
ATOM     22  N   UNL     1      -0.406 -12.454  -3.122  0.00  0.00    -0.302 N 
ATOM     23  C   UNL     1      -1.472 -11.780  -2.368  0.00  0.00    +0.109 C 
ATOM     24  C   UNL     1      -1.593 -10.337  -2.869  0.00  0.00    +0.041 C 
ATOM     25  C   UNL     1      -0.644 -13.620  -3.755  0.00  0.00    +0.212 C 
ATOM     26  O   UNL     1      -1.769 -14.070  -3.793  0.00  0.00    -0.276 OA
ATOM     27  C   UNL     1       0.488 -14.364  -4.414  0.00  0.00    +0.109 C 
ENDBRANCH  17  19
ENDBRANCH   5  15
BRANCH   1  28
ATOM     28  C   UNL     1       0.670  -2.029  -1.335  0.00  0.00    +0.072 C 
ATOM     29  C   UNL     1      -0.802  -1.873  -1.722  0.00  0.00    +0.017 C 
BRANCH  28  30
ATOM     30  C   UNL     1       1.223  -0.678  -0.877  0.00  0.00    +0.012 C 
BRANCH  30  32
ATOM     31  C   UNL     1       1.064   1.108   0.863  0.00  0.00    +0.004 C 
ATOM     32  C   UNL     1       0.511  -0.243   0.406  0.00  0.00    -0.003 C 
ENDBRANCH  30  32
ENDBRANCH  28  30
ENDBRANCH   1  28
TORSDOF 5
