REMARK  Name = ZINC66556167
REMARK  10 active torsions:
REMARK  status: ('A' for Active; 'I' for Inactive)
REMARK    1  A    between atoms: C_1  and  C_2
REMARK    2  A    between atoms: C_2  and  C_3
REMARK    3  A    between atoms: C_3  and  C_25
REMARK    4  A    between atoms: N_6  and  C_10
REMARK    5  A    between atoms: C_10  and  C_11
REMARK    6  A    between atoms: N_13  and  N_14
REMARK    7  A    between atoms: C_15  and  C_17
REMARK    8  A    between atoms: C_17  and  C_18
REMARK    9  A    between atoms: C_18  and  C_19
REMARK   10  A    between atoms: C_25  and  C_26
REMARK                            x       y       z     vdW  Elec       q    Type
REMARK                         _______ _______ _______ _____ _____    ______ ____
ROOT
ATOM      1  C   UNL     1       4.250   0.572  -3.732  0.00  0.00    +0.247 C 
ATOM      2  O   UNL     1       3.851  -0.544  -3.988  0.00  0.00    -0.273 OA
ATOM      3  N   UNL     1       5.416   1.006  -4.250  0.00  0.00    -0.233 N 
ATOM      4  H   UNL     1       5.735   1.899  -4.045  0.00  0.00    +0.173 HD
ENDROOT
BRANCH   3   5
ATOM      5  N   UNL     1       6.167   0.168  -5.085  0.00  0.00    -0.234 N 
ATOM      6  C   UNL     1       7.333   0.602  -5.603  0.00  0.00    +0.229 C 
ATOM      7  O   UNL     1       7.732   1.718  -5.346  0.00  0.00    -0.274 OA
ATOM      8  H   UNL     1       5.848  -0.725  -5.289  0.00  0.00    +0.173 HD
BRANCH   6   9
ATOM      9  C   UNL     1       8.141  -0.299  -6.500  0.00  0.00    +0.097 C 
BRANCH   9  10
ATOM     10  C   UNL     1       9.409   0.430  -6.948  0.00  0.00    +0.013 C 
BRANCH  10  11
ATOM     11  C   UNL     1      10.229  -0.485  -7.859  0.00  0.00    -0.011 C 
ATOM     12  C   UNL     1      10.719  -1.694  -7.060  0.00  0.00    +0.003 C 
ATOM     13  C   UNL     1      11.539  -2.610  -7.971  0.00  0.00    +0.000 C 
ATOM     14  C   UNL     1      12.742  -1.839  -8.519  0.00  0.00    +0.000 C 
ATOM     15  C   UNL     1      12.252  -0.630  -9.318  0.00  0.00    +0.000 C 
ATOM     16  C   UNL     1      11.432   0.286  -8.407  0.00  0.00    +0.003 C 
ENDBRANCH  10  11
ENDBRANCH   9  10
ENDBRANCH   6   9
ENDBRANCH   3   5
BRANCH   1  17
ATOM     17  C   UNL     1       3.442   1.474  -2.834  0.00  0.00    +0.215 C 
BRANCH  17  21
ATOM     18  C   UNL     1       0.718  -0.497  -1.257  0.00  0.00    +0.112 C 
ATOM     19  C   UNL     1       2.144   0.016  -1.295  0.00  0.00    +0.247 C 
ATOM     20  O   UNL     1       3.025  -0.210  -0.494  0.00  0.00    -0.273 OA
ATOM     21  N   UNL     1       2.228   0.775  -2.405  0.00  0.00    -0.215 N 
ATOM     22  C   UNL     1       1.066   0.812  -3.067  0.00  0.00    +0.310 C 
ATOM     23  O   UNL     1       0.895   1.432  -4.099  0.00  0.00    -0.252 OA
ATOM     24  N   UNL     1       0.107   0.087  -2.463  0.00  0.00    -0.285 N 
ATOM     25  H   UNL     1      -0.807  -0.029  -2.764  0.00  0.00    +0.151 HD
BRANCH  18  27
ATOM     26  C   UNL     1      -0.019   1.526   0.010  0.00  0.00    +0.006 C 
ATOM     27  C   UNL     1       0.002  -0.004   0.002  0.00  0.00    +0.032 C 
ENDBRANCH  18  27
BRANCH  18  28
ATOM     28  C   UNL     1       0.691  -2.026  -1.326  0.00  0.00    +0.032 C 
ATOM     29  C   UNL     1       1.412  -2.492  -2.592  0.00  0.00    +0.006 C 
ENDBRANCH  18  28
ENDBRANCH  17  21
ENDBRANCH   1  17
TORSDOF 8
