REMARK  Name = ZINC17162104
REMARK  4 active torsions:
REMARK  status: ('A' for Active; 'I' for Inactive)
REMARK    1  A    between atoms: C_4  and  S_7
REMARK    2  A    between atoms: S_7  and  C_8
REMARK    3  A    between atoms: C_11  and  C_13
REMARK    4  A    between atoms: N_20  and  C_23
REMARK                            x       y       z     vdW  Elec       q    Type
REMARK                         _______ _______ _______ _____ _____    ______ ____
ROOT
ATOM      1  C   UNL     1       1.250  -5.364   0.292  0.00  0.00    +0.064 C 
ATOM      2  C   UNL     1       0.054  -4.869  -0.246  0.00  0.00    +0.105 C 
ATOM      3  C   UNL     1      -0.915  -5.739  -0.811  0.00  0.00    +0.277 C 
ATOM      4  O   UNL     1      -0.702  -7.073  -0.840  0.00  0.00    -0.268 OA
ATOM      5  N   UNL     1      -2.030  -5.228  -1.308  0.00  0.00    -0.123 NA
ATOM      6  C   UNL     1      -2.274  -3.921  -1.296  0.00  0.00    +0.340 C 
ATOM      7  O   UNL     1      -3.322  -3.518  -1.771  0.00  0.00    -0.250 OA
ATOM      8  N   UNL     1      -1.415  -3.025  -0.783  0.00  0.00    -0.188 N 
ATOM      9  C   UNL     1      -0.245  -3.430  -0.242  0.00  0.00    +0.264 C 
ATOM     10  O   UNL     1       0.539  -2.628   0.232  0.00  0.00    -0.269 OA
ENDROOT
BRANCH   8  11
ATOM     11  C   UNL     1      -1.736  -1.661  -0.804  0.00  0.00    +0.046 A 
ATOM     12  C   UNL     1      -2.564  -1.127   0.174  0.00  0.00    +0.025 A 
ATOM     13  C   UNL     1      -2.879   0.218   0.151  0.00  0.00    +0.022 A 
ATOM     14  C   UNL     1      -2.370   1.032  -0.845  0.00  0.00    +0.041 A 
ATOM     15  C   UNL     1      -1.544   0.502  -1.821  0.00  0.00    +0.022 A 
ATOM     16  C   UNL     1      -1.222  -0.841  -1.799  0.00  0.00    +0.025 A 
ATOM     17 CL   UNL     1      -2.768   2.722  -0.871  0.00  0.00    -0.084 Cl
ENDBRANCH   8  11
BRANCH   1  21
ATOM     18  C   UNL     1       2.811  -2.972   2.391  0.00  0.00    +0.167 A 
ATOM     19  C   UNL     1       3.928  -3.482   1.754  0.00  0.00    +0.057 A 
ATOM     20  C   UNL     1       3.488  -4.458   0.873  0.00  0.00    +0.050 A 
ATOM     21  C   UNL     1       2.099  -4.517   0.997  0.00  0.00    +0.130 A 
ATOM     22  O   UNL     1       1.723  -3.609   1.928  0.00  0.00    -0.449 OA
BRANCH  18  23
ATOM     23  S   UNL     1       2.814  -1.702   3.612  0.00  0.00    -0.052 S 
BRANCH  23  27
ATOM     24  C   UNL     1       3.446  -3.928   7.505  0.00  0.00    +0.000 A 
ATOM     25  C   UNL     1       3.490  -2.546   7.486  0.00  0.00    +0.001 A 
ATOM     26  C   UNL     1       3.298  -1.864   6.301  0.00  0.00    +0.015 A 
ATOM     27  C   UNL     1       3.060  -2.568   5.127  0.00  0.00    +0.016 A 
ATOM     28  C   UNL     1       3.017  -3.957   5.150  0.00  0.00    +0.015 A 
ATOM     29  C   UNL     1       3.210  -4.632   6.339  0.00  0.00    +0.001 A 
ENDBRANCH  23  27
ENDBRANCH  18  23
ENDBRANCH   1  21
TORSDOF 4
