REMARK  Name = ZINC40533674
REMARK  4 active torsions:
REMARK  status: ('A' for Active; 'I' for Inactive)
REMARK    1  A    between atoms: C_1  and  C_2
REMARK    2  A    between atoms: C_5  and  N_9
REMARK    3  A    between atoms: N_12  and  C_13
REMARK    4  A    between atoms: C_13  and  C_19
REMARK                            x       y       z     vdW  Elec       q    Type
REMARK                         _______ _______ _______ _____ _____    ______ ____
ROOT
ATOM      1  N   UNL     1       0.059  -4.171  -0.023  0.00  0.00    -0.268 N 
ATOM      2  C   UNL     1      -0.039  -4.839  -1.189  0.00  0.00    +0.305 C 
ATOM      3  O   UNL     1      -0.053  -4.229  -2.240  0.00  0.00    -0.252 OA
ATOM      4  N   UNL     1      -0.122  -6.184  -1.190  0.00  0.00    -0.283 N 
ATOM      5  H   UNL     1       0.153  -4.660   0.810  0.00  0.00    +0.156 HD
ATOM      6  H   UNL     1      -0.111  -6.671  -0.351  0.00  0.00    +0.151 HD
ENDROOT
BRANCH   1  11
ATOM      7  C   UNL     1      -0.072   1.502   0.016  0.00  0.00    +0.044 C 
ATOM      8  C   UNL     1      -0.037  -0.005   0.006  0.00  0.00    -0.049 A 
ATOM      9  C   UNL     1      -0.627  -0.702  -1.032  0.00  0.00    +0.005 A 
ATOM     10  C   UNL     1      -0.597  -2.083  -1.045  0.00  0.00    +0.025 A 
ATOM     11  C   UNL     1       0.027  -2.771  -0.013  0.00  0.00    +0.049 A 
ATOM     12  C   UNL     1       0.619  -2.069   1.029  0.00  0.00    +0.039 A 
ATOM     13  C   UNL     1       0.590  -0.687   1.032  0.00  0.00    +0.020 A 
ATOM     14 BR   UNL     1       1.471  -3.001   2.436  0.00  0.00    -0.048 Br
ENDBRANCH   1  11
BRANCH   4  15
ATOM     15  C   UNL     1      -0.229  -6.911  -2.457  0.00  0.00    +0.137 C 
ATOM     16  C   UNL     1      -1.491  -6.462  -3.197  0.00  0.00    +0.037 C 
ATOM     17  C   UNL     1      -2.720  -6.757  -2.335  0.00  0.00    +0.003 C 
ATOM     18  C   UNL     1      -2.799  -8.259  -2.057  0.00  0.00    +0.000 C 
ATOM     19  C   UNL     1      -1.538  -8.708  -1.317  0.00  0.00    +0.003 C 
ATOM     20  C   UNL     1      -0.309  -8.413  -2.179  0.00  0.00    +0.037 C 
BRANCH  15  21
ATOM     21  C   UNL     1       0.981  -6.620  -3.307  0.00  0.00    +0.379 C 
ATOM     22  O   UNL     1       1.853  -5.876  -2.892  0.00  0.00    -0.244 OA
ATOM     23  O   UNL     1       1.089  -7.130  -4.409  0.00  0.00    -0.244 OA
ENDBRANCH  15  21
ENDBRANCH   4  15
TORSDOF 3
