REMARK  Name = ZINC39928827
REMARK  10 active torsions:
REMARK  status: ('A' for Active; 'I' for Inactive)
REMARK    1  A    between atoms: C_1  and  C_2
REMARK    2  A    between atoms: C_2  and  C_3
REMARK    3  A    between atoms: C_3  and  O_4
REMARK    4  A    between atoms: O_4  and  C_5
REMARK    5  A    between atoms: C_10  and  C_11
REMARK    6  A    between atoms: C_11  and  C_15
REMARK    7  A    between atoms: N_17  and  CA_18
REMARK    8  A    between atoms: CA_25  and  C_31
REMARK    9  A    between atoms: C_27  and  C_29
REMARK   10  A    between atoms: C_27  and  C_30
REMARK                            x       y       z     vdW  Elec       q    Type
REMARK                         _______ _______ _______ _____ _____    ______ ____
ROOT
ATOM      1  C   UNL     1      -0.691  -4.279  -0.858  0.00  0.00    +0.224 C 
ATOM      2  O   UNL     1      -1.533  -5.143  -0.735  0.00  0.00    -0.275 OA
ATOM      3  N   UNL     1      -1.000  -2.994  -0.591  0.00  0.00    -0.301 N 
ATOM      4  H   UNL     1      -0.350  -2.294  -0.758  0.00  0.00    +0.150 HD
ENDROOT
BRANCH   3   5
ATOM      5  CA  UNL     1      -2.318  -2.656  -0.047  0.00  0.00    +0.190 C 
ATOM      6  C   UNL     1      -2.369  -1.276   0.600  0.00  0.00    +0.165 C 
ATOM      7  N   UNL     1      -3.477  -1.034  -0.349  0.00  0.00    -0.271 N 
ATOM      8  C   UNL     1      -3.288  -2.162  -1.092  0.00  0.00    +0.240 C 
ATOM      9  O   UNL     1      -3.716  -2.587  -2.144  0.00  0.00    -0.273 OA
ATOM     10  CA  UNL     1      -4.806  -0.871   0.249  0.00  0.00    +0.206 C 
ATOM     11  C   UNL     1      -4.720  -0.335   1.705  0.00  0.00    +0.042 C 
ATOM     12  S   UNL     1      -3.178  -1.240   2.250  0.00  0.00    -0.127 S 
ATOM     13  C   UNL     1      -5.939  -0.751   2.531  0.00  0.00    +0.025 C 
ATOM     14  C   UNL     1      -4.516   1.181   1.736  0.00  0.00    +0.025 C 
BRANCH  10  15
ATOM     15  C   UNL     1      -5.603   0.101  -0.583  0.00  0.00    +0.377 C 
ATOM     16  O   UNL     1      -5.116   0.583  -1.591  0.00  0.00    -0.244 OA
ATOM     17  OXT UNL     1      -6.736   0.404  -0.248  0.00  0.00    -0.244 OA
ENDBRANCH  10  15
ENDBRANCH   3   5
BRANCH   1  18
ATOM     18  C   UNL     1       0.700  -4.640  -1.310  0.00  0.00    +0.075 C 
ATOM     19  C   UNL     1       1.780  -4.397  -0.243  0.00  0.00    +0.021 C 
ATOM     20  C   UNL     1       1.508  -5.830   0.245  0.00  0.00    +0.003 C 
ATOM     21  C   UNL     1       1.020  -6.139  -1.180  0.00  0.00    +0.021 C 
BRANCH  18  27
ATOM     22  C   UNL     1       0.531  -4.641  -3.812  0.00  0.00    +0.125 A 
ATOM     23  C   UNL     1       0.847  -4.105  -5.053  0.00  0.00    +0.046 A 
ATOM     24  C   UNL     1       1.675  -3.003  -5.138  0.00  0.00    +0.004 A 
ATOM     25  C   UNL     1       2.189  -2.433  -3.987  0.00  0.00    +0.001 A 
ATOM     26  C   UNL     1       1.877  -2.965  -2.750  0.00  0.00    +0.008 A 
ATOM     27  C   UNL     1       1.045  -4.064  -2.660  0.00  0.00    +0.009 A 
BRANCH  22  28
ATOM     28  O   UNL     1      -0.284  -5.725  -3.726  0.00  0.00    -0.492 OA
BRANCH  28  29
ATOM     29  C   UNL     1      -0.706  -6.318  -4.956  0.00  0.00    +0.229 C 
BRANCH  29  31
ATOM     30  C   UNL     1      -2.224  -8.019  -5.979  0.00  0.00    +0.007 C 
ATOM     31  C   UNL     1      -1.677  -7.463  -4.662  0.00  0.00    +0.038 C 
ENDBRANCH  29  31
ENDBRANCH  28  29
ENDBRANCH  22  28
ENDBRANCH  18  27
ENDBRANCH   1  18
TORSDOF 7
