REMARK  Name = ZINC00997024
REMARK  4 active torsions:
REMARK  status: ('A' for Active; 'I' for Inactive)
REMARK    1  A    between atoms: C_3  and  C_11
REMARK    2  A    between atoms: C_4  and  N_8
REMARK    3  A    between atoms: N_13  and  C_14
REMARK    4  A    between atoms: C_15  and  C_25
REMARK                            x       y       z     vdW  Elec       q    Type
REMARK                         _______ _______ _______ _____ _____    ______ ____
ROOT
ATOM      1  C   UNL     1      -1.985   0.855   3.462  0.00  0.00    +0.085 A 
ATOM      2  C   UNL     1      -0.909   1.659   3.145  0.00  0.00    +0.068 A 
ATOM      3  C   UNL     1      -0.047   1.259   2.026  0.00  0.00    -0.023 A 
ATOM      4  C   UNL     1      -0.469   0.162   1.378  0.00  0.00    -0.004 A 
ATOM      5  S   UNL     1      -1.892  -0.402   2.276  0.00  0.00    -0.077 S 
ATOM      6  C   UNL     1       0.101  -0.480   0.144  0.00  0.00    +0.043 C 
ATOM      7  C   UNL     1      -0.418   0.331  -1.058  0.00  0.00    +0.005 C 
ATOM      8  C   UNL     1      -0.073   1.808  -0.826  0.00  0.00    +0.000 C 
ATOM      9  C   UNL     1       1.438   1.864  -0.772  0.00  0.00    +0.000 C 
ATOM     10  C   UNL     1       2.024   1.513   0.586  0.00  0.00    +0.005 C 
ATOM     11  C   UNL     1       1.209   2.083   1.740  0.00  0.00    +0.037 C 
ENDROOT
BRANCH   2  12
ATOM     12  C   UNL     1      -0.631   2.879   3.910  0.00  0.00    +0.244 C 
ATOM     13  O   UNL     1      -1.119   3.939   3.564  0.00  0.00    -0.270 OA
ATOM     14  N   UNL     1       0.165   2.825   4.996  0.00  0.00    -0.325 N 
ATOM     15  H   UNL     1       0.554   1.981   5.272  0.00  0.00    +0.145 HD
ATOM     16  H   UNL     1       0.349   3.632   5.503  0.00  0.00    +0.145 HD
ENDBRANCH   2  12
BRANCH   1  19
ATOM     17  C   UNL     1      -3.908   0.121   4.630  0.00  0.00    +0.251 C 
ATOM     18  O   UNL     1      -3.991  -0.830   3.876  0.00  0.00    -0.270 OA
ATOM     19  N   UNL     1      -2.913   1.017   4.478  0.00  0.00    -0.275 N 
ATOM     20  H   UNL     1      -2.847   1.775   5.079  0.00  0.00    +0.156 HD
BRANCH  17  23
ATOM     21  C   UNL     1      -5.403   0.592   8.042  0.00  0.00    +0.021 A 
ATOM     22  C   UNL     1      -4.474   0.431   7.035  0.00  0.00    +0.017 A 
ATOM     23  C   UNL     1      -4.899   0.293   5.713  0.00  0.00    +0.067 A 
ATOM     24  C   UNL     1      -6.263   0.324   5.416  0.00  0.00    +0.140 A 
ATOM     25  C   UNL     1      -7.183   0.480   6.432  0.00  0.00    +0.053 A 
ATOM     26  C   UNL     1      -6.755   0.617   7.742  0.00  0.00    +0.043 A 
ATOM     27 CL   UNL     1      -7.918   0.820   9.015  0.00  0.00    -0.083 Cl
BRANCH  24  28
ATOM     28  N   UNL     1      -6.721   0.185   4.016  0.00  0.00    +0.057 N 
ATOM     29  O   UNL     1      -7.910   0.087   3.771  0.00  0.00    -0.126 OA
ATOM     30  O   UNL     1      -5.909   0.168   3.108  0.00  0.00    -0.126 OA
ENDBRANCH  24  28
ENDBRANCH  17  23
ENDBRANCH   1  19
TORSDOF 4
