REMARK  Name = ZINC48575939
REMARK  6 active torsions:
REMARK  status: ('A' for Active; 'I' for Inactive)
REMARK    1  A    between atoms: C_1  and  C_2
REMARK    2  A    between atoms: C_2  and  C_3
REMARK    3  A    between atoms: C_3  and  C_5
REMARK    4  A    between atoms: C_3  and  N_6
REMARK    5  A    between atoms: C_7  and  C_9
REMARK    6  A    between atoms: N_11  and  C_12
REMARK                            x       y       z     vdW  Elec       q    Type
REMARK                         _______ _______ _______ _____ _____    ______ ____
ROOT
ATOM      1  C   UNL     1       6.332   1.049   3.248  0.00  0.00    +0.038 A 
ATOM      2  C   UNL     1       6.842   1.384   2.000  0.00  0.00    +0.027 A 
ATOM      3  C   UNL     1       8.135   1.855   1.884  0.00  0.00    +0.051 A 
ATOM      4  C   UNL     1       8.927   1.996   3.013  0.00  0.00    +0.167 A 
ATOM      5  C   UNL     1       8.419   1.660   4.266  0.00  0.00    +0.169 A 
ATOM      6  C   UNL     1       7.121   1.192   4.381  0.00  0.00    +0.073 A 
ATOM      7  O   UNL     1       9.386   1.885   5.204  0.00  0.00    -0.447 OA
ATOM      8  C   UNL     1      10.614   1.989   4.469  0.00  0.00    +0.254 C 
ATOM      9  O   UNL     1      10.213   2.433   3.166  0.00  0.00    -0.448 OA
ATOM     10  C   UNL     1      11.296   0.628   4.382  0.00  0.00    +0.093 C 
ATOM     11  C   UNL     1      11.679   0.158   5.788  0.00  0.00    +0.008 C 
ATOM     12  C   UNL     1      12.622   1.180   6.427  0.00  0.00    +0.000 C 
ATOM     13  C   UNL     1      11.920   2.535   6.524  0.00  0.00    +0.008 C 
ATOM     14  C   UNL     1      11.537   3.013   5.121  0.00  0.00    +0.093 C 
ENDROOT
BRANCH   1  17
ATOM     15  C   UNL     1       4.279   0.897   4.439  0.00  0.00    +0.303 C 
ATOM     16  O   UNL     1       4.772   1.533   5.348  0.00  0.00    -0.265 OA
ATOM     17  N   UNL     1       5.022   0.572   3.363  0.00  0.00    -0.278 N 
ATOM     18  H   UNL     1       4.649   0.007   2.668  0.00  0.00    +0.155 HD
BRANCH  15  20
ATOM     19  N   UNL     1       2.106   0.800   5.590  0.00  0.00    -0.305 N 
ATOM     20  C   UNL     1       2.849   0.475   4.514  0.00  0.00    +0.300 C 
ATOM     21  O   UNL     1       2.355  -0.162   3.606  0.00  0.00    -0.265 OA
ATOM     22  H   UNL     1       2.500   1.308   6.316  0.00  0.00    +0.149 HD
BRANCH  19  23
ATOM     23  C   UNL     1       0.702   0.385   5.664  0.00  0.00    +0.070 C 
ATOM     24  C   UNL     1      -0.171   1.409   4.935  0.00  0.00    +0.028 C 
BRANCH  23  26
ATOM     25  C   UNL     1       1.059  -0.811   7.829  0.00  0.00    +0.005 C 
ATOM     26  C   UNL     1       0.272   0.300   7.130  0.00  0.00    +0.018 C 
ENDBRANCH  23  26
ENDBRANCH  19  23
ENDBRANCH  15  20
ENDBRANCH   1  17
TORSDOF 4
