REMARK  Name = ZINC33551040
REMARK  7 active torsions:
REMARK  status: ('A' for Active; 'I' for Inactive)
REMARK    1  A    between atoms: C_1  and  C_2
REMARK    2  A    between atoms: C_5  and  C_7
REMARK    3  A    between atoms: C_7  and  C_9
REMARK    4  A    between atoms: C_14  and  C_16
REMARK    5  A    between atoms: C_20  and  O_22
REMARK    6  A    between atoms: O_22  and  C_23
REMARK    7  A    between atoms: C_23  and  C_24
REMARK                            x       y       z     vdW  Elec       q    Type
REMARK                         _______ _______ _______ _____ _____    ______ ____
ROOT
ATOM      1  C   UNL     1      -2.734  -0.441  -0.007  0.00  0.00    +0.080 C 
ATOM      2  C   UNL     1      -3.930  -1.062   0.114  0.00  0.00    +0.250 C 
ATOM      3  C   UNL     1      -4.990  -0.049   0.279  0.00  0.00    +0.293 C 
ATOM      4  O   UNL     1      -6.172  -0.293   0.416  0.00  0.00    -0.266 OA
ATOM      5  N   UNL     1      -4.455   1.185   0.251  0.00  0.00    -0.232 N 
ATOM      6  C   UNL     1      -3.005   1.044   0.070  0.00  0.00    +0.152 C 
ATOM      7  C   UNL     1      -5.148   2.377   0.370  0.00  0.00    +0.169 A 
ATOM      8  N   UNL     1      -6.437   2.567   0.532  0.00  0.00    -0.224 NA
ATOM      9  C   UNL     1      -6.982   3.798   0.635  0.00  0.00    +0.080 A 
ATOM     10  C   UNL     1      -8.343   4.138   0.811  0.00  0.00    +0.030 A 
ATOM     11  C   UNL     1      -8.732   5.449   0.897  0.00  0.00    +0.022 A 
ATOM     12  C   UNL     1      -7.811   6.486   0.816  0.00  0.00    +0.042 A 
ATOM     13  C   UNL     1      -6.471   6.189   0.643  0.00  0.00    +0.037 A 
ATOM     14  C   UNL     1      -6.073   4.878   0.556  0.00  0.00    +0.042 A 
ATOM     15  S   UNL     1      -4.516   4.048   0.350  0.00  0.00    -0.052 S 
ATOM     16 CL   UNL     1      -8.337   8.137   0.929  0.00  0.00    -0.084 Cl
ATOM     17  O   UNL     1      -4.123  -2.402   0.091  0.00  0.00    -0.282 OA
ENDROOT
BRANCH   6  18
ATOM     18  C   UNL     1      -2.572   1.716  -1.207  0.00  0.00    -0.019 A 
ATOM     19  C   UNL     1      -3.337   1.583  -2.352  0.00  0.00    +0.006 A 
ATOM     20  C   UNL     1      -2.945   2.204  -3.523  0.00  0.00    +0.004 A 
ATOM     21  C   UNL     1      -1.783   2.949  -3.556  0.00  0.00    +0.045 A 
ATOM     22  C   UNL     1      -1.011   3.080  -2.411  0.00  0.00    +0.121 A 
ATOM     23  C   UNL     1      -1.409   2.461  -1.235  0.00  0.00    +0.051 A 
BRANCH  22  24
ATOM     24  O   UNL     1       0.133   3.813  -2.441  0.00  0.00    -0.488 OA
BRANCH  24  25
ATOM     25  C   UNL     1       0.481   4.422  -3.686  0.00  0.00    +0.256 C 
BRANCH  25  26
ATOM     26  C   UNL     1       1.770   5.187  -3.528  0.00  0.00    +0.006 C 
ATOM     27  C   UNL     1       2.709   5.082  -4.436  0.00  0.00    +0.007 C 
ENDBRANCH  25  26
ENDBRANCH  24  25
ENDBRANCH  22  24
ENDBRANCH   6  18
BRANCH   1  28
ATOM     28  C   UNL     1      -1.427  -1.084  -0.185  0.00  0.00    +0.230 C 
ATOM     29  O   UNL     1      -1.183  -1.693  -1.212  0.00  0.00    -0.283 OA
BRANCH  28  34
ATOM     30  C   UNL     1       0.865   0.206   4.075  0.00  0.00    +0.086 C 
ATOM     31  C   UNL     1       0.596  -0.434   2.738  0.00  0.00    +0.103 A 
ATOM     32  C   UNL     1       1.440  -1.260   2.078  0.00  0.00    +0.045 A 
ATOM     33  C   UNL     1       0.808  -1.628   0.881  0.00  0.00    +0.053 A 
ATOM     34  C   UNL     1      -0.416  -0.995   0.873  0.00  0.00    +0.175 A 
ATOM     35  O   UNL     1      -0.518  -0.278   2.011  0.00  0.00    -0.457 OA
ENDBRANCH  28  34
ENDBRANCH   1  28
TORSDOF 6
