REMARK  Name = ZINC55334662
REMARK  3 active torsions:
REMARK  status: ('A' for Active; 'I' for Inactive)
REMARK    1  A    between atoms: C_5  and  C_7
REMARK    2  A    between atoms: C_7  and  C_8
REMARK    3  A    between atoms: C_10  and  C_13
REMARK                            x       y       z     vdW  Elec       q    Type
REMARK                         _______ _______ _______ _____ _____    ______ ____
ROOT
ATOM      1  C   UNL     1       1.373  -2.695   1.389  0.00  0.00    +0.176 A 
ATOM      2  N   UNL     1       2.529  -2.936   2.010  0.00  0.00    -0.190 NA
ATOM      3  C   UNL     1       2.301  -3.370   3.232  0.00  0.00    +0.277 A 
ATOM      4  O   UNL     1       0.969  -3.415   3.414  0.00  0.00    -0.331 OA
ATOM      5  N   UNL     1       0.389  -2.964   2.200  0.00  0.00    -0.060 NA
ENDROOT
BRANCH   3   6
ATOM      6  C   UNL     1       3.325  -3.743   4.224  0.00  0.00    +0.137 A 
ATOM      7  C   UNL     1       2.958  -4.189   5.467  0.00  0.00    +0.081 A 
ATOM      8  S   UNL     1       4.561  -4.476   6.206  0.00  0.00    -0.060 S 
ATOM      9  C   UNL     1       5.550  -3.980   4.802  0.00  0.00    +0.156 A 
ATOM     10  N   UNL     1       4.622  -3.655   3.924  0.00  0.00    -0.220 NA
ATOM     11  N   UNL     1       6.928  -3.950   4.671  0.00  0.00    -0.338 N 
ATOM     12  H   UNL     1       7.492  -4.226   5.410  0.00  0.00    +0.144 HD
ATOM     13  H   UNL     1       7.329  -3.653   3.839  0.00  0.00    +0.144 HD
ENDBRANCH   3   6
BRANCH   1  14
ATOM     14  C   UNL     1       1.229  -2.186  -0.022  0.00  0.00    +0.116 C 
BRANCH  14  19
ATOM     15  C   UNL     1      -0.017   1.378   0.010  0.00  0.00    +0.000 A 
ATOM     16  C   UNL     1       1.171   2.086   0.002  0.00  0.00    +0.001 A 
ATOM     17  C   UNL     1       2.377   1.412  -0.013  0.00  0.00    +0.015 A 
ATOM     18  C   UNL     1       2.397   0.029  -0.021  0.00  0.00    +0.021 A 
ATOM     19  C   UNL     1       1.208  -0.679  -0.013  0.00  0.00    -0.026 A 
ATOM     20  C   UNL     1       0.002  -0.004   0.002  0.00  0.00    +0.005 A 
ATOM     21 BR   UNL     1       4.047  -0.894  -0.042  0.00  0.00    -0.050 Br
ENDBRANCH  14  19
ENDBRANCH   1  14
TORSDOF 3
