REMARK  Name = ZINC66233673
REMARK  6 active torsions:
REMARK  status: ('A' for Active; 'I' for Inactive)
REMARK    1  A    between atoms: C_1  and  N_2
REMARK    2  A    between atoms: C_6  and  C_7
REMARK    3  A    between atoms: C_7  and  C_8
REMARK    4  A    between atoms: C_8  and  N_9
REMARK    5  A    between atoms: N_12  and  C_13
REMARK    6  A    between atoms: N_22  and  C_24
REMARK                            x       y       z     vdW  Elec       q    Type
REMARK                         _______ _______ _______ _____ _____    ______ ____
ROOT
ATOM      1  N   UNL     1       1.477   0.145   4.428  0.00  0.00    -0.299 N 
ATOM      2  C   UNL     1       2.645   0.268   5.090  0.00  0.00    +0.300 C 
ATOM      3  O   UNL     1       3.692   0.012   4.529  0.00  0.00    -0.253 OA
ATOM      4  N   UNL     1       2.651   0.677   6.375  0.00  0.00    -0.296 N 
ATOM      5  H   UNL     1       0.642   0.350   4.875  0.00  0.00    +0.150 HD
ATOM      6  H   UNL     1       1.815   0.882   6.822  0.00  0.00    +0.151 HD
ENDROOT
BRANCH   4   7
ATOM      7  C   UNL     1       3.916   0.811   7.093  0.00  0.00    +0.077 C 
ATOM      8  C   UNL     1       4.323  -0.526   7.715  0.00  0.00    -0.007 C 
ATOM      9  C   UNL     1       3.228  -1.025   8.648  0.00  0.00    +0.003 C 
ATOM     10  C   UNL     1       2.856  -0.015   9.721  0.00  0.00    +0.001 C 
ATOM     11  C   UNL     1       2.669   1.395   9.183  0.00  0.00    +0.003 C 
ATOM     12  C   UNL     1       3.780   1.822   8.234  0.00  0.00    -0.007 C 
ATOM     13  C   UNL     1       5.114   1.959   8.956  0.00  0.00    -0.073 C 
ATOM     14  N   UNL     1       5.627   0.686   9.454  0.00  0.00    +0.382 N 
ATOM     15  C   UNL     1       5.651  -0.367   8.443  0.00  0.00    -0.073 C 
ATOM     16  H   UNL     1       5.100   0.387  10.259  0.00  0.00    -0.081 HD
BRANCH  14  17
ATOM     17  C   UNL     1       7.004   0.902   9.918  0.00  0.00    -0.069 C 
ATOM     18  C   UNL     1       7.359   0.422  11.326  0.00  0.00    -0.017 C 
ATOM     19  C   UNL     1       7.220   1.919  11.041  0.00  0.00    -0.017 C 
ENDBRANCH  14  17
ENDBRANCH   4   7
BRANCH   1  20
ATOM     20  C   UNL     1       1.471  -0.299   3.032  0.00  0.00    +0.113 C 
BRANCH  20  21
ATOM     21  C   UNL     1       0.030  -0.354   2.521  0.00  0.00    +0.091 C 
BRANCH  21  27
ATOM     22  C   UNL     1      -0.018   1.461   0.010  0.00  0.00    +0.150 C 
ATOM     23  N   UNL     1       0.002  -0.004   0.002  0.00  0.00    -0.339 N 
ATOM     24  C   UNL     1       0.009  -0.810  -1.104  0.00  0.00    +0.104 A 
ATOM     25  C   UNL     1       0.029  -2.081  -0.660  0.00  0.00    +0.101 A 
ATOM     26  N   UNL     1       0.034  -2.052   0.681  0.00  0.00    -0.350 N 
ATOM     27  C   UNL     1       0.023  -0.811   1.085  0.00  0.00    +0.088 A 
ATOM     28  H   UNL     1       0.048  -2.831   1.260  0.00  0.00    +0.166 HD
ENDBRANCH  21  27
ENDBRANCH  20  21
ENDBRANCH   1  20
TORSDOF 5
