REMARK  Name = ZINC14222476
REMARK  5 active torsions:
REMARK  status: ('A' for Active; 'I' for Inactive)
REMARK    1  A    between atoms: C_1  and  C_2
REMARK    2  A    between atoms: C_5  and  C_8
REMARK    3  A    between atoms: C_8  and  N_9
REMARK    4  A    between atoms: N_14  and  S_15
REMARK    5  A    between atoms: S_15  and  C_18
REMARK                            x       y       z     vdW  Elec       q    Type
REMARK                         _______ _______ _______ _____ _____    ______ ____
ROOT
ATOM      1  N   UNL     1      -0.679   3.491   0.026  0.00  0.00    -0.265 N 
ATOM      2  C   UNL     1       0.670   3.516   0.014  0.00  0.00    +0.110 A 
ATOM      3  C   UNL     1       1.108   2.236   0.004  0.00  0.00    +0.066 A 
ATOM      4  C   UNL     1      -0.017   1.396   0.010  0.00  0.00    +0.160 A 
ATOM      5  N   UNL     1      -1.089   2.152   0.018  0.00  0.00    -0.155 NA
ATOM      6  N   UNL     1       0.002  -0.004   0.002  0.00  0.00    -0.198 N 
ATOM      7  H   UNL     1       0.849  -0.478  -0.009  0.00  0.00    +0.175 HD
ENDROOT
BRANCH   6   8
ATOM      8  S   UNL     1      -1.421  -0.852   0.011  0.00  0.00    +0.074 S 
ATOM      9  O   UNL     1      -1.073  -2.229  -0.027  0.00  0.00    -0.150 OA
ATOM     10  O   UNL     1      -2.218  -0.295   1.047  0.00  0.00    -0.150 OA
BRANCH   8  11
ATOM     11  C   UNL     1      -2.247  -0.499  -1.505  0.00  0.00    +0.109 A 
ATOM     12  C   UNL     1      -3.126   0.566  -1.582  0.00  0.00    +0.029 A 
ATOM     13  C   UNL     1      -3.770   0.846  -2.772  0.00  0.00    +0.002 A 
ATOM     14  C   UNL     1      -3.543   0.054  -3.883  0.00  0.00    +0.000 A 
ATOM     15  C   UNL     1      -2.669  -1.013  -3.805  0.00  0.00    +0.002 A 
ATOM     16  C   UNL     1      -2.021  -1.290  -2.616  0.00  0.00    +0.029 A 
ENDBRANCH   8  11
ENDBRANCH   6   8
BRANCH   1  17
ATOM     17  C   UNL     1      -1.561   4.661   0.041  0.00  0.00    +0.178 C 
BRANCH  17  22
ATOM     18  C   UNL     1      -5.257   4.341  -4.390  0.00  0.00    +0.044 C 
ATOM     19  C   UNL     1      -4.293   4.425  -3.234  0.00  0.00    -0.050 A 
ATOM     20  C   UNL     1      -4.628   3.869  -2.014  0.00  0.00    +0.004 A 
ATOM     21  C   UNL     1      -3.743   3.946  -0.954  0.00  0.00    +0.006 A 
ATOM     22  C   UNL     1      -2.525   4.578  -1.115  0.00  0.00    -0.026 A 
ATOM     23  C   UNL     1      -2.192   5.138  -2.334  0.00  0.00    +0.006 A 
ATOM     24  C   UNL     1      -3.075   5.058  -3.395  0.00  0.00    +0.004 A 
ENDBRANCH  17  22
ENDBRANCH   1  17
TORSDOF 4
