REMARK  Name = ZINC36069074
REMARK  9 active torsions:
REMARK  status: ('A' for Active; 'I' for Inactive)
REMARK    1  A    between atoms: C_1  and  C_2
REMARK    2  A    between atoms: N_13  and  C_20
REMARK    3  A    between atoms: C_14  and  C_16
REMARK    4  A    between atoms: C_16  and  N_17
REMARK    5  A    between atoms: N_17  and  C_18
REMARK    6  A    between atoms: N_17  and  C_19
REMARK    7  A    between atoms: C_20  and  C_21
REMARK    8  A    between atoms: N_23  and  N_24
REMARK    9  A    between atoms: C_25  and  C_27
REMARK                            x       y       z     vdW  Elec       q    Type
REMARK                         _______ _______ _______ _____ _____    ______ ____
ROOT
ATOM      1  C   UNL     1      -0.019   1.526   0.010  0.00  0.00    +0.008 C 
ATOM      2  C   UNL     1       0.002  -0.004   0.002  0.00  0.00    -0.009 C 
ATOM      3  C   UNL     1       0.726  -0.501  -1.253  0.00  0.00    +0.008 C 
ATOM      4  C   UNL     1       0.536  -2.011  -1.397  0.00  0.00    +0.037 C 
ATOM      5  C   UNL     1       0.949  -2.688  -0.093  0.00  0.00    -0.023 A 
ATOM      6  C   UNL     1       1.031  -1.976   1.055  0.00  0.00    -0.004 A 
ATOM      7  S   UNL     1       1.537  -3.145   2.292  0.00  0.00    -0.073 S 
ATOM      8  C   UNL     1       1.637  -4.581   1.270  0.00  0.00    +0.116 A 
ATOM      9  C   UNL     1       1.271  -4.101  -0.007  0.00  0.00    +0.076 A 
ATOM     10  C   UNL     1       1.257  -5.054  -1.081  0.00  0.00    +0.263 A 
ATOM     11  O   UNL     1       0.955  -4.742  -2.220  0.00  0.00    -0.267 OA
ATOM     12  N   UNL     1       1.599  -6.321  -0.747  0.00  0.00    -0.289 N 
ATOM     13  C   UNL     1       1.937  -6.688   0.512  0.00  0.00    +0.097 A 
ATOM     14  N   UNL     1       1.962  -5.845   1.522  0.00  0.00    -0.228 NA
ATOM     15  C   UNL     1       0.751  -0.516   1.241  0.00  0.00    +0.046 C 
ENDROOT
BRANCH  13  16
ATOM     16  C   UNL     1       2.300  -8.128   0.769  0.00  0.00    -0.004 C 
BRANCH  16  17
ATOM     17  N   UNL     1       2.629  -8.304   2.189  0.00  0.00    +0.381 N 
ATOM     18  C   UNL     1       1.432  -8.054   3.004  0.00  0.00    -0.096 C 
ATOM     19  C   UNL     1       3.097  -9.678   2.416  0.00  0.00    -0.096 C 
ATOM     20  H   UNL     1       3.355  -7.654   2.450  0.00  0.00    -0.082 HD
ENDBRANCH  16  17
ENDBRANCH  13  16
BRANCH  12  21
ATOM     21  C   UNL     1       1.605  -7.342  -1.798  0.00  0.00    +0.223 C 
BRANCH  21  22
ATOM     22  C   UNL     1       2.969  -7.398  -2.437  0.00  0.00    +0.249 C 
ATOM     23  O   UNL     1       3.849  -6.657  -2.053  0.00  0.00    -0.272 OA
ATOM     24  N   UNL     1       3.210  -8.271  -3.435  0.00  0.00    -0.233 N 
ATOM     25  H   UNL     1       2.506  -8.863  -3.742  0.00  0.00    +0.173 HD
BRANCH  24  26
ATOM     26  N   UNL     1       4.477  -8.323  -4.029  0.00  0.00    -0.235 N 
ATOM     27  C   UNL     1       4.718  -9.195  -5.028  0.00  0.00    +0.226 C 
ATOM     28  O   UNL     1       3.838  -9.936  -5.411  0.00  0.00    -0.275 OA
ATOM     29  C   UNL     1       6.082  -9.251  -5.667  0.00  0.00    +0.110 C 
ATOM     30  H   UNL     1       5.181  -7.730  -3.723  0.00  0.00    +0.173 HD
ENDBRANCH  24  26
ENDBRANCH  21  22
ENDBRANCH  12  21
TORSDOF 5
