REMARK  Name = ZINC45632097
REMARK  7 active torsions:
REMARK  status: ('A' for Active; 'I' for Inactive)
REMARK    1  A    between atoms: C_1  and  C_2
REMARK    2  A    between atoms: C_2  and  O_3
REMARK    3  A    between atoms: O_3  and  C_4
REMARK    4  A    between atoms: C_4  and  C_6
REMARK    5  A    between atoms: C_7  and  C_20
REMARK    6  A    between atoms: C_12  and  C_14
REMARK    7  A    between atoms: C_20  and  N_21
REMARK                            x       y       z     vdW  Elec       q    Type
REMARK                         _______ _______ _______ _____ _____    ______ ____
ROOT
ATOM      1  C   UNL     1      -2.795  -2.411   0.131  0.00  0.00    +0.080 C 
ATOM      2  C   UNL     1      -2.985  -3.731  -0.085  0.00  0.00    +0.044 C 
ATOM      3  N   UNL     1      -4.241  -4.255  -0.191  0.00  0.00    -0.271 N 
ATOM      4  C   UNL     1      -5.360  -3.526  -0.094  0.00  0.00    +0.304 C 
ATOM      5  O   UNL     1      -6.435  -4.082  -0.203  0.00  0.00    -0.252 OA
ATOM      6  N   UNL     1      -5.333  -2.195   0.120  0.00  0.00    -0.288 N 
ATOM      7  C   UNL     1      -4.024  -1.534   0.256  0.00  0.00    +0.144 C 
ATOM      8  H   UNL     1      -4.328  -5.208  -0.346  0.00  0.00    +0.156 HD
ATOM      9  H   UNL     1      -6.156  -1.686   0.186  0.00  0.00    +0.151 HD
ENDROOT
BRANCH   7  10
ATOM     10  C   UNL     1      -3.939  -0.462  -0.800  0.00  0.00    -0.022 A 
ATOM     11  C   UNL     1      -4.300  -0.745  -2.104  0.00  0.00    +0.006 A 
ATOM     12  C   UNL     1      -4.222   0.238  -3.072  0.00  0.00    +0.000 A 
ATOM     13  C   UNL     1      -3.783   1.505  -2.737  0.00  0.00    +0.000 A 
ATOM     14  C   UNL     1      -3.424   1.789  -1.433  0.00  0.00    +0.000 A 
ATOM     15  C   UNL     1      -3.506   0.807  -0.463  0.00  0.00    +0.006 A 
ENDBRANCH   7  10
BRANCH   1  16
ATOM     16  C   UNL     1      -1.494  -1.867   0.242  0.00  0.00    +0.339 C 
ATOM     17  O   UNL     1      -1.035  -1.608   1.338  0.00  0.00    -0.245 OA
BRANCH  16  18
ATOM     18  O   UNL     1      -0.763  -1.636  -0.868  0.00  0.00    -0.462 OA
BRANCH  18  20
ATOM     19  C   UNL     1       1.215  -0.894  -2.043  0.00  0.00    +0.048 C 
ATOM     20  C   UNL     1       0.543  -1.085  -0.682  0.00  0.00    +0.229 C 
ENDBRANCH  18  20
ENDBRANCH  16  18
ENDBRANCH   1  16
BRANCH   2  21
ATOM     21  C   UNL     1      -1.789  -4.640  -0.210  0.00  0.00    +0.177 C 
BRANCH  21  22
ATOM     22  N   UNL     1      -1.771  -5.580   0.914  0.00  0.00    -0.293 N 
ATOM     23  C   UNL     1      -1.119  -5.239   2.055  0.00  0.00    +0.203 A 
ATOM     24  N   UNL     1      -1.078  -6.048   3.080  0.00  0.00    -0.230 NA
ATOM     25  C   UNL     1      -1.678  -7.235   3.036  0.00  0.00    +0.116 A 
ATOM     26  C   UNL     1      -2.375  -7.673   1.902  0.00  0.00    +0.076 A 
ATOM     27  C   UNL     1      -2.405  -6.762   0.797  0.00  0.00    +0.263 A 
ATOM     28  O   UNL     1      -2.990  -7.053  -0.232  0.00  0.00    -0.267 OA
ATOM     29  C   UNL     1      -2.988  -9.006   1.995  0.00  0.00    -0.023 A 
ATOM     30  C   UNL     1      -2.824  -9.671   3.151  0.00  0.00    -0.004 A 
ATOM     31  S   UNL     1      -1.855  -8.584   4.173  0.00  0.00    -0.073 S 
ATOM     32  C   UNL     1      -3.497 -11.017   3.133  0.00  0.00    +0.043 C 
ATOM     33  C   UNL     1      -4.483 -10.941   1.947  0.00  0.00    +0.010 C 
ATOM     34  C   UNL     1      -3.813  -9.883   1.049  0.00  0.00    +0.037 C 
ENDBRANCH  21  22
ENDBRANCH   2  21
TORSDOF 6
