REMARK  Name = ZINC36170547
REMARK  6 active torsions:
REMARK  status: ('A' for Active; 'I' for Inactive)
REMARK    1  A    between atoms: C_1  and  C_2
REMARK    2  A    between atoms: C_2  and  C_3
REMARK    3  A    between atoms: C_2  and  N_4
REMARK    4  A    between atoms: N_7  and  S_10
REMARK    5  A    between atoms: S_10  and  C_13
REMARK    6  A    between atoms: C_14  and  N_21
REMARK                            x       y       z     vdW  Elec       q    Type
REMARK                         _______ _______ _______ _____ _____    ______ ____
ROOT
ATOM      1  S   UNL     1       4.508  -3.004  -3.554  0.00  0.00    +0.064 S 
ATOM      2  O   UNL     1       4.235  -4.288  -4.096  0.00  0.00    -0.153 OA
ATOM      3  O   UNL     1       5.473  -2.127  -4.120  0.00  0.00    -0.153 OA
ENDROOT
BRANCH   1   4
ATOM      4  C   UNL     1       4.980  -3.256  -1.875  0.00  0.00    +0.140 A 
ATOM      5  C   UNL     1       5.756  -2.307  -1.221  0.00  0.00    +0.053 A 
ATOM      6  C   UNL     1       6.126  -2.509   0.102  0.00  0.00    +0.040 A 
ATOM      7  C   UNL     1       5.721  -3.652   0.765  0.00  0.00    +0.021 A 
ATOM      8  C   UNL     1       4.948  -4.595   0.111  0.00  0.00    +0.032 A 
ATOM      9  C   UNL     1       4.573  -4.394  -1.206  0.00  0.00    +0.047 A 
ATOM     10 BR   UNL     1       3.510  -5.682  -2.093  0.00  0.00    -0.048 Br
ATOM     11 BR   UNL     1       6.223  -3.928   2.567  0.00  0.00    -0.050 Br
BRANCH   5  12
ATOM     12  N   UNL     1       6.164  -1.153  -1.894  0.00  0.00    -0.356 N 
ATOM     13  H   UNL     1       5.681  -0.852  -2.679  0.00  0.00    +0.142 HD
ATOM     14  H   UNL     1       6.932  -0.652  -1.575  0.00  0.00    +0.142 HD
ENDBRANCH   5  12
ENDBRANCH   1   4
BRANCH   1  18
ATOM     15  N   UNL     1       0.823  -0.882  -2.527  0.00  0.00    -0.297 NA
ATOM     16  C   UNL     1       2.136  -0.236  -2.405  0.00  0.00    +0.102 C 
ATOM     17  C   UNL     1       3.043  -0.710  -3.546  0.00  0.00    +0.125 C 
ATOM     18  N   UNL     1       3.071  -2.181  -3.540  0.00  0.00    -0.174 NA
ATOM     19  C   UNL     1       1.789  -2.901  -3.523  0.00  0.00    +0.125 C 
ATOM     20  C   UNL     1       0.931  -2.340  -2.383  0.00  0.00    +0.102 C 
BRANCH  15  22
ATOM     21  C   UNL     1      -0.215   1.190  -1.737  0.00  0.00    +0.024 C 
ATOM     22  C   UNL     1      -0.129  -0.327  -1.556  0.00  0.00    +0.051 C 
ATOM     23  C   UNL     1      -1.510  -0.946  -1.784  0.00  0.00    +0.024 C 
ENDBRANCH  15  22
ENDBRANCH   1  18
TORSDOF 4
