REMARK  Name = ZINC08687568
REMARK  13 active torsions:
REMARK  status: ('A' for Active; 'I' for Inactive)
REMARK    1  A    between atoms: C_1  and  C_2
REMARK    2  A    between atoms: C_2  and  C_3
REMARK    3  A    between atoms: C_2  and  C_4
REMARK    4  A    between atoms: C_4  and  N_5
REMARK    5  A    between atoms: C_6  and  N_35
REMARK    6  A    between atoms: C_7  and  N_14
REMARK    7  A    between atoms: N_14  and  C_15
REMARK    8  A    between atoms: C_15  and  C_16
REMARK    9  A    between atoms: C_16  and  C_17
REMARK   10  A    between atoms: C_16  and  C_18
REMARK   11  A    between atoms: C_19  and  C_21
REMARK   12  A    between atoms: C_21  and  N_22
REMARK   13  A    between atoms: N_25  and  C_28
REMARK                            x       y       z     vdW  Elec       q    Type
REMARK                         _______ _______ _______ _____ _____    ______ ____
ROOT
ATOM      1  N   UNL     1      -1.369  -4.671  -2.792  0.00  0.00    -0.266 N 
ATOM      2  C   UNL     1      -1.253  -3.989  -3.951  0.00  0.00    +0.203 C 
ATOM      3  O   UNL     1      -1.308  -2.777  -3.950  0.00  0.00    -0.277 OA
ENDROOT
BRANCH   1   6
ATOM      4  N   UNL     1      -0.598  -3.457   0.589  0.00  0.00    -0.280 N 
ATOM      5  C   UNL     1      -0.491  -4.151  -0.594  0.00  0.00    +0.127 A 
ATOM      6  C   UNL     1      -1.451  -3.974  -1.568  0.00  0.00    +0.140 A 
ATOM      7  C   UNL     1      -2.514  -3.085  -1.321  0.00  0.00    +0.277 A 
ATOM      8  O   UNL     1      -3.377  -2.910  -2.164  0.00  0.00    -0.266 OA
ATOM      9  N   UNL     1      -2.572  -2.429  -0.145  0.00  0.00    -0.273 N 
ATOM     10  H   UNL     1      -3.304  -1.817   0.027  0.00  0.00    +0.173 HD
ATOM     11  C   UNL     1      -1.630  -2.619   0.795  0.00  0.00    +0.331 A 
ATOM     12  O   UNL     1      -1.709  -2.018   1.849  0.00  0.00    -0.246 OA
BRANCH   5  13
ATOM     13  N   UNL     1       0.561  -5.011  -0.803  0.00  0.00    -0.343 N 
ATOM     14  H   UNL     1       1.269  -5.080  -0.143  0.00  0.00    +0.144 HD
ATOM     15  H   UNL     1       0.596  -5.548  -1.610  0.00  0.00    +0.144 HD
ENDBRANCH   5  13
BRANCH   4  16
ATOM     16  C   UNL     1       0.415  -3.635   1.632  0.00  0.00    +0.131 C 
BRANCH  16  18
ATOM     17  C   UNL     1       1.114  -5.051   3.569  0.00  0.00    +0.009 C 
ATOM     18  C   UNL     1      -0.001  -4.782   2.556  0.00  0.00    +0.003 C 
ATOM     19  C   UNL     1      -1.283  -4.400   3.297  0.00  0.00    +0.009 C 
ENDBRANCH  16  18
ENDBRANCH   4  16
ENDBRANCH   1   6
BRANCH   1  20
ATOM     20  C   UNL     1      -1.411  -6.135  -2.805  0.00  0.00    +0.117 C 
BRANCH  20  21
ATOM     21  C   UNL     1      -2.844  -6.603  -3.067  0.00  0.00    +0.001 C 
ATOM     22  C   UNL     1      -2.862  -8.123  -3.234  0.00  0.00    +0.009 C 
ATOM     23  C   UNL     1      -3.733  -6.208  -1.887  0.00  0.00    +0.009 C 
ENDBRANCH  20  21
ENDBRANCH   1  20
BRANCH   2  24
ATOM     24  C   UNL     1      -1.053  -4.733  -5.246  0.00  0.00    +0.019 C 
BRANCH  24  25
ATOM     25  N   UNL     1      -0.956  -3.772  -6.353  0.00  0.00    +0.387 N 
ATOM     26  C   UNL     1       0.246  -2.947  -6.178  0.00  0.00    -0.059 C 
ATOM     27  C   UNL     1       0.288  -1.870  -7.267  0.00  0.00    +0.086 C 
ATOM     28  N   UNL     1       0.189  -2.529  -8.579  0.00  0.00    -0.333 N 
ATOM     29  C   UNL     1      -0.896  -3.500  -8.787  0.00  0.00    +0.086 C 
ATOM     30  C   UNL     1      -0.882  -4.500  -7.626  0.00  0.00    -0.059 C 
ATOM     31  H   UNL     1      -1.772  -3.178  -6.353  0.00  0.00    -0.081 HD
BRANCH  28  32
ATOM     32  C   UNL     1       1.101  -2.241  -9.598  0.00  0.00    +0.030 A 
ATOM     33  C   UNL     1       0.921  -2.779 -10.866  0.00  0.00    +0.026 A 
ATOM     34  C   UNL     1       1.823  -2.493 -11.872  0.00  0.00    +0.040 A 
ATOM     35  C   UNL     1       2.906  -1.669 -11.617  0.00  0.00    +0.124 A 
ATOM     36  C   UNL     1       3.089  -1.131 -10.355  0.00  0.00    +0.040 A 
ATOM     37  C   UNL     1       2.186  -1.411  -9.347  0.00  0.00    +0.026 A 
ATOM     38  F   UNL     1       3.788  -1.391 -12.603  0.00  0.00    -0.205 F 
ENDBRANCH  28  32
ENDBRANCH  24  25
ENDBRANCH   2  24
TORSDOF 9
