REMARK  Name = ZINC20757769
REMARK  5 active torsions:
REMARK  status: ('A' for Active; 'I' for Inactive)
REMARK    1  A    between atoms: C_1  and  C_2
REMARK    2  A    between atoms: C_2  and  N_3
REMARK    3  A    between atoms: C_6  and  C_13
REMARK    4  A    between atoms: C_19  and  O_25
REMARK    5  A    between atoms: O_25  and  C_26
REMARK                            x       y       z     vdW  Elec       q    Type
REMARK                         _______ _______ _______ _____ _____    ______ ____
ROOT
ATOM      1  C   UNL     1       4.207  -1.385   2.246  0.00  0.00    +0.018 C 
ATOM      2  C   UNL     1       4.526  -2.496   1.274  0.00  0.00    +0.011 A 
ATOM      3  C   UNL     1       5.562  -2.439   0.406  0.00  0.00    -0.022 A 
ATOM      4  C   UNL     1       5.551  -3.667  -0.356  0.00  0.00    +0.006 A 
ATOM      5  C   UNL     1       6.368  -4.158  -1.380  0.00  0.00    +0.056 A 
ATOM      6  C   UNL     1       6.050  -5.408  -1.889  0.00  0.00    +0.121 A 
ATOM      7  C   UNL     1       4.972  -6.142  -1.408  0.00  0.00    +0.047 A 
ATOM      8  C   UNL     1       4.154  -5.673  -0.396  0.00  0.00    +0.030 A 
ATOM      9  C   UNL     1       4.452  -4.419   0.133  0.00  0.00    +0.047 A 
ATOM     10  N   UNL     1       3.857  -3.679   1.118  0.00  0.00    -0.359 N 
ATOM     11  H   UNL     1       3.079  -3.952   1.629  0.00  0.00    +0.166 HD
ATOM     12  C   UNL     1       6.507  -1.266   0.324  0.00  0.00    +0.018 C 
ATOM     13  C   UNL     1       6.317  -0.420   1.591  0.00  0.00    -0.076 C 
ATOM     14  N   UNL     1       4.887  -0.158   1.801  0.00  0.00    +0.388 N 
ATOM     15  H   UNL     1       4.476   0.157   0.935  0.00  0.00    -0.084 HD
ATOM     16  H   UNL     1       4.775   0.559   2.502  0.00  0.00    -0.084 HD
ENDROOT
BRANCH   1  20
ATOM     17  N   UNL     1       0.711  -0.489   1.189  0.00  0.00    -0.261 N 
ATOM     18  C   UNL     1       2.043  -0.689   1.138  0.00  0.00    +0.262 A 
ATOM     19  O   UNL     1       2.657  -0.467   0.109  0.00  0.00    -0.267 OA
ATOM     20  C   UNL     1       2.718  -1.154   2.280  0.00  0.00    +0.073 A 
ATOM     21  C   UNL     1       2.008  -1.395   3.418  0.00  0.00    +0.260 A 
ATOM     22  N   UNL     1       0.653  -1.178   3.427  0.00  0.00    -0.275 N 
ATOM     23  H   UNL     1       0.143  -1.347   4.234  0.00  0.00    +0.173 HD
ATOM     24  C   UNL     1       0.028  -0.728   2.324  0.00  0.00    +0.332 A 
ATOM     25  O   UNL     1      -1.173  -0.537   2.351  0.00  0.00    -0.246 OA
ATOM     26  O   UNL     1       2.632  -1.842   4.528  0.00  0.00    -0.267 OA
BRANCH  17  28
ATOM     27  C   UNL     1      -0.019   1.526   0.010  0.00  0.00    +0.027 C 
ATOM     28  C   UNL     1       0.002  -0.004   0.002  0.00  0.00    +0.126 C 
ENDBRANCH  17  28
ENDBRANCH   1  20
BRANCH   6  29
ATOM     29  O   UNL     1       6.813  -5.930  -2.886  0.00  0.00    -0.495 OA
ATOM     30  C   UNL     1       6.445  -7.221  -3.377  0.00  0.00    +0.277 C 
ENDBRANCH   6  29
TORSDOF 3
