REMARK  Name = ZINC48550971
REMARK  6 active torsions:
REMARK  status: ('A' for Active; 'I' for Inactive)
REMARK    1  A    between atoms: C_1  and  C_2
REMARK    2  A    between atoms: C_2  and  C_4
REMARK    3  A    between atoms: C_2  and  N_10
REMARK    4  A    between atoms: C_4  and  C_5
REMARK    5  A    between atoms: C_11  and  C_13
REMARK    6  A    between atoms: C_15  and  N_20
REMARK                            x       y       z     vdW  Elec       q    Type
REMARK                         _______ _______ _______ _____ _____    ______ ____
ROOT
ATOM      1  N   UNL     1       0.688  -0.476  -1.203  0.00  0.00    -0.308 N 
ATOM      2  C   UNL     1       2.031  -0.587  -1.215  0.00  0.00    +0.246 C 
ATOM      3  O   UNL     1       2.674  -0.295  -0.225  0.00  0.00    -0.270 OA
ATOM      4  H   UNL     1       0.175  -0.710  -1.993  0.00  0.00    +0.149 HD
ENDROOT
BRANCH   2   5
ATOM      5  C   UNL     1       2.723  -1.063  -2.431  0.00  0.00    +0.057 A 
ATOM      6  C   UNL     1       1.988  -1.395  -3.571  0.00  0.00    +0.047 A 
ATOM      7  C   UNL     1       2.640  -1.838  -4.703  0.00  0.00    +0.127 A 
ATOM      8  C   UNL     1       4.019  -1.956  -4.710  0.00  0.00    +0.034 A 
ATOM      9  C   UNL     1       4.754  -1.631  -3.585  0.00  0.00    +0.023 A 
ATOM     10  C   UNL     1       4.115  -1.179  -2.446  0.00  0.00    +0.053 A 
ATOM     11 CL   UNL     1       5.038  -0.764  -1.036  0.00  0.00    -0.083 Cl
BRANCH   7  12
ATOM     12  N   UNL     1       1.862  -2.190  -5.912  0.00  0.00    +0.056 N 
ATOM     13  O   UNL     1       0.658  -2.088  -5.907  0.00  0.00    -0.126 OA
ATOM     14  O   UNL     1       2.432  -2.579  -6.905  0.00  0.00    -0.126 OA
ENDBRANCH   7  12
ENDBRANCH   2   5
BRANCH   1  16
ATOM     15  C   UNL     1      -0.019   1.526   0.010  0.00  0.00    +0.028 C 
ATOM     16  C   UNL     1       0.002  -0.004   0.002  0.00  0.00    +0.074 C 
BRANCH  16  17
ATOM     17  C   UNL     1      -1.433  -0.534   0.013  0.00  0.00    +0.057 C 
BRANCH  17  18
ATOM     18  C   UNL     1      -1.414  -2.036   0.129  0.00  0.00    -0.039 A 
ATOM     19  C   UNL     1      -1.375  -2.826  -1.005  0.00  0.00    +0.011 A 
ATOM     20  C   UNL     1      -1.358  -4.175  -0.866  0.00  0.00    +0.045 A 
ATOM     21  S   UNL     1      -1.397  -4.363   0.909  0.00  0.00    -0.105 S 
ATOM     22  C   UNL     1      -1.428  -2.633   1.345  0.00  0.00    +0.049 A 
ENDBRANCH  17  18
ENDBRANCH  16  17
ENDBRANCH   1  16
TORSDOF 5
