REMARK  Name = ZINC39449819
REMARK  8 active torsions:
REMARK  status: ('A' for Active; 'I' for Inactive)
REMARK    1  A    between atoms: C_1  and  C_2
REMARK    2  A    between atoms: C_2  and  C_3
REMARK    3  A    between atoms: C_2  and  S_4
REMARK    4  A    between atoms: S_4  and  N_7
REMARK    5  A    between atoms: C_15  and  C_18
REMARK    6  A    between atoms: C_23  and  O_24
REMARK    7  A    between atoms: C_26  and  O_31
REMARK    8  A    between atoms: O_31  and  C_32
REMARK                            x       y       z     vdW  Elec       q    Type
REMARK                         _______ _______ _______ _____ _____    ______ ____
ROOT
ATOM      1  N   UNL     1      -0.005  -0.143   2.793  0.00  0.00    -0.174 N 
ATOM      2  C   UNL     1       0.220   1.110   3.348  0.00  0.00    +0.134 A 
ATOM      3  C   UNL     1      -0.491   1.536   4.455  0.00  0.00    +0.085 A 
ATOM      4  C   UNL     1      -1.507   0.659   5.051  0.00  0.00    +0.099 A 
ATOM      5  C   UNL     1      -1.718  -0.610   4.467  0.00  0.00    +0.069 A 
ATOM      6  C   UNL     1      -0.922  -0.993   3.292  0.00  0.00    +0.281 A 
ATOM      7  O   UNL     1      -1.090  -2.080   2.771  0.00  0.00    -0.265 OA
ATOM      8  C   UNL     1      -2.675  -1.463   5.013  0.00  0.00    +0.025 A 
ATOM      9  C   UNL     1      -3.389  -1.015   6.126  0.00  0.00    +0.004 A 
ATOM     10  C   UNL     1      -3.123   0.256   6.646  0.00  0.00    +0.120 A 
ATOM     11  N   UNL     1      -2.213   1.037   6.110  0.00  0.00    -0.252 NA
ATOM     12  N   UNL     1      -0.239   2.782   4.998  0.00  0.00    -0.315 N 
ATOM     13  C   UNL     1       1.096   3.368   4.808  0.00  0.00    +0.210 C 
ATOM     14  C   UNL     1       1.421   3.345   3.309  0.00  0.00    +0.132 C 
ATOM     15  C   UNL     1       1.194   1.957   2.771  0.00  0.00    +0.187 C 
ATOM     16  O   UNL     1       1.853   1.562   1.830  0.00  0.00    -0.290 OA
ATOM     17  H   UNL     1      -0.925   3.257   5.492  0.00  0.00    +0.149 HD
ENDROOT
BRANCH   9  18
ATOM     18  C   UNL     1      -4.420  -1.878   6.749  0.00  0.00    +0.025 A 
ATOM     19  C   UNL     1      -5.401  -2.479   5.961  0.00  0.00    +0.012 A 
ATOM     20  C   UNL     1      -6.358  -3.282   6.546  0.00  0.00    +0.001 A 
ATOM     21  C   UNL     1      -6.349  -3.493   7.914  0.00  0.00    +0.004 A 
ATOM     22  C   UNL     1      -5.383  -2.903   8.705  0.00  0.00    +0.046 A 
ATOM     23  C   UNL     1      -4.411  -2.098   8.130  0.00  0.00    +0.125 A 
BRANCH  23  24
ATOM     24  O   UNL     1      -3.457  -1.521   8.906  0.00  0.00    -0.506 OA
ATOM     25  H   UNL     1      -3.701  -0.650   9.246  0.00  0.00    +0.292 HD
ENDBRANCH  23  24
ENDBRANCH   9  18
BRANCH   1  26
ATOM     26  S   UNL     1       0.879  -0.605   1.472  0.00  0.00    +0.060 S 
ATOM     27  O   UNL     1       0.768   0.482   0.563  0.00  0.00    -0.153 OA
ATOM     28  O   UNL     1       0.377  -1.889   1.129  0.00  0.00    -0.153 OA
BRANCH  26  30
ATOM     29  C   UNL     1       2.626  -1.697   3.271  0.00  0.00    +0.033 C 
ATOM     30  C   UNL     1       2.584  -0.742   2.076  0.00  0.00    +0.148 C 
ATOM     31  C   UNL     1       3.479  -1.283   0.959  0.00  0.00    +0.033 C 
ENDBRANCH  26  30
ENDBRANCH   1  26
BRANCH  13  32
ATOM     32  O   UNL     1       1.103   4.716   5.282  0.00  0.00    -0.362 OA
ATOM     33  C   UNL     1       1.122   4.830   6.707  0.00  0.00    +0.196 C 
ENDBRANCH  13  32
TORSDOF 5
