REMARK  Name = ZINC22507989
REMARK  9 active torsions:
REMARK  status: ('A' for Active; 'I' for Inactive)
REMARK    1  A    between atoms: C_1  and  C_2
REMARK    2  A    between atoms: C_10  and  C_11
REMARK    3  A    between atoms: N_13  and  N_14
REMARK    4  A    between atoms: C_15  and  C_17
REMARK    5  A    between atoms: C_19  and  C_28
REMARK    6  A    between atoms: C_23  and  C_27
REMARK    7  A    between atoms: N_25  and  C_26
REMARK    8  A    between atoms: C_28  and  C_29
REMARK    9  A    between atoms: C_28  and  C_30
REMARK                            x       y       z     vdW  Elec       q    Type
REMARK                         _______ _______ _______ _____ _____    ______ ____
ROOT
ATOM      1  N   UNL     1       0.012   0.055  -0.951  0.00  0.00    -0.230 N 
ATOM      2  C   UNL     1      -0.004   1.361  -0.620  0.00  0.00    +0.261 C 
ATOM      3  O   UNL     1      -1.062   1.921  -0.408  0.00  0.00    -0.269 OA
ATOM      4  H   UNL     1       0.969  -0.451  -1.147  0.00  0.00    +0.173 HD
ENDROOT
BRANCH   2   5
ATOM      5  C   UNL     1       1.264   2.115  -0.520  0.00  0.00    +0.052 A 
ATOM      6  C   UNL     1       2.494   1.467  -0.609  0.00  0.00    +0.037 A 
ATOM      7  C   UNL     1       3.662   2.209  -0.511  0.00  0.00    +0.047 A 
ATOM      8  N   UNL     1       3.639   3.512  -0.336  0.00  0.00    -0.232 NA
ATOM      9  C   UNL     1       2.503   4.188  -0.244  0.00  0.00    +0.159 A 
ATOM     10  C   UNL     1       1.268   3.515  -0.338  0.00  0.00    +0.054 A 
ATOM     11  C   UNL     1       0.254   4.489  -0.213  0.00  0.00    +0.070 A 
ATOM     12  N   UNL     1       0.815   5.655  -0.061  0.00  0.00    -0.174 NA
ATOM     13  N   UNL     1       2.208   5.514  -0.066  0.00  0.00    -0.249 N 
ATOM     14  C   UNL     1       3.181   6.600   0.079  0.00  0.00    +0.174 C 
ATOM     15  C   UNL     1      -1.229   4.224  -0.248  0.00  0.00    +0.068 C 
BRANCH   7  16
ATOM     16  C   UNL     1       4.990   1.504  -0.607  0.00  0.00    +0.032 C 
ATOM     17  C   UNL     1       5.383   0.965   0.770  0.00  0.00    +0.014 C 
ATOM     18  C   UNL     1       4.881   0.342  -1.597  0.00  0.00    +0.014 C 
ENDBRANCH   7  16
ENDBRANCH   2   5
BRANCH   1  21
ATOM     19  C   UNL     1      -1.173  -1.966  -1.376  0.00  0.00    +0.296 C 
ATOM     20  O   UNL     1      -0.115  -2.525  -1.593  0.00  0.00    -0.265 OA
ATOM     21  N   UNL     1      -1.190  -0.659  -1.045  0.00  0.00    -0.228 N 
ATOM     22  H   UNL     1      -2.147  -0.154  -0.849  0.00  0.00    +0.173 HD
BRANCH  19  32
ATOM     23  C   UNL     1      -1.412  -4.973  -2.132  0.00  0.00    +0.048 C 
ATOM     24  C   UNL     1      -2.539  -4.028  -1.805  0.00  0.00    +0.008 A 
ATOM     25  C   UNL     1      -3.967  -4.340  -1.776  0.00  0.00    +0.024 A 
ATOM     26  C   UNL     1      -4.717  -5.494  -2.014  0.00  0.00    +0.012 A 
ATOM     27  C   UNL     1      -6.078  -5.452  -1.905  0.00  0.00    +0.001 A 
ATOM     28  C   UNL     1      -6.720  -4.270  -1.561  0.00  0.00    +0.004 A 
ATOM     29  C   UNL     1      -5.999  -3.121  -1.323  0.00  0.00    +0.047 A 
ATOM     30  C   UNL     1      -4.613  -3.139  -1.427  0.00  0.00    +0.136 A 
ATOM     31  O   UNL     1      -3.662  -2.200  -1.258  0.00  0.00    -0.450 OA
ATOM     32  C   UNL     1      -2.434  -2.715  -1.475  0.00  0.00    +0.195 A 
ENDBRANCH  19  32
ENDBRANCH   1  21
TORSDOF 4
