REMARK  Name = ZINC07363629
REMARK  7 active torsions:
REMARK  status: ('A' for Active; 'I' for Inactive)
REMARK    1  A    between atoms: C_1  and  C_2
REMARK    2  A    between atoms: C_2  and  O_3
REMARK    3  A    between atoms: O_3  and  C_4
REMARK    4  A    between atoms: C_7  and  N_10
REMARK    5  A    between atoms: C_11  and  C_22
REMARK    6  A    between atoms: C_24  and  O_30
REMARK    7  A    between atoms: C_25  and  O_29
REMARK                            x       y       z     vdW  Elec       q    Type
REMARK                         _______ _______ _______ _____ _____    ______ ____
ROOT
ATOM      1  N   UNL     1       1.146   2.849  -0.939  0.00  0.00    -0.244 N 
ATOM      2  C   UNL     1       1.255   1.776   0.049  0.00  0.00    +0.198 C 
ATOM      3  N   UNL     1       0.023   0.979   0.072  0.00  0.00    -0.321 N 
ATOM      4  C   UNL     1      -1.201   1.638   0.032  0.00  0.00    +0.041 A 
ATOM      5  C   UNL     1      -2.337   1.096   0.613  0.00  0.00    +0.024 A 
ATOM      6  C   UNL     1      -3.535   1.781   0.539  0.00  0.00    +0.002 A 
ATOM      7  C   UNL     1      -3.608   3.004  -0.109  0.00  0.00    +0.001 A 
ATOM      8  C   UNL     1      -2.484   3.560  -0.684  0.00  0.00    +0.015 A 
ATOM      9  C   UNL     1      -1.267   2.887  -0.606  0.00  0.00    +0.058 A 
ATOM     10  C   UNL     1      -0.037   3.440  -1.199  0.00  0.00    +0.254 C 
ATOM     11  O   UNL     1      -0.089   4.420  -1.916  0.00  0.00    -0.270 OA
ATOM     12  H   UNL     1       0.061   0.010   0.109  0.00  0.00    +0.148 HD
ENDROOT
BRANCH   2  13
ATOM     13  C   UNL     1       1.487   2.374   1.413  0.00  0.00    -0.004 A 
ATOM     14  C   UNL     1       1.036   1.714   2.542  0.00  0.00    +0.056 A 
ATOM     15  C   UNL     1       1.253   2.260   3.796  0.00  0.00    +0.160 A 
ATOM     16  C   UNL     1       1.915   3.478   3.917  0.00  0.00    +0.177 A 
ATOM     17  C   UNL     1       2.360   4.138   2.782  0.00  0.00    +0.086 A 
ATOM     18  C   UNL     1       2.144   3.584   1.532  0.00  0.00    +0.031 A 
ATOM     19 CL   UNL     1       3.186   5.657   2.928  0.00  0.00    -0.080 Cl
BRANCH  16  20
ATOM     20  O   UNL     1       2.126   4.020   5.147  0.00  0.00    -0.502 OA
ATOM     21  H   UNL     1       1.415   4.603   5.447  0.00  0.00    +0.292 HD
ENDBRANCH  16  20
BRANCH  15  22
ATOM     22  O   UNL     1       0.815   1.610   4.907  0.00  0.00    -0.503 OA
ATOM     23  H   UNL     1      -0.084   1.847   5.173  0.00  0.00    +0.292 HD
ENDBRANCH  15  22
ENDBRANCH   2  13
BRANCH   1  27
ATOM     24  C   UNL     1       4.555   4.101  -2.988  0.00  0.00    +0.121 A 
ATOM     25  C   UNL     1       4.151   2.776  -3.059  0.00  0.00    +0.047 A 
ATOM     26  C   UNL     1       3.022   2.360  -2.381  0.00  0.00    +0.027 A 
ATOM     27  C   UNL     1       2.291   3.269  -1.627  0.00  0.00    +0.039 A 
ATOM     28  C   UNL     1       2.693   4.597  -1.561  0.00  0.00    +0.027 A 
ATOM     29  C   UNL     1       3.825   5.010  -2.235  0.00  0.00    +0.047 A 
BRANCH  24  30
ATOM     30  O   UNL     1       5.666   4.509  -3.656  0.00  0.00    -0.492 OA
BRANCH  30  32
ATOM     31  C   UNL     1       7.292   6.157  -4.352  0.00  0.00    +0.048 C 
ATOM     32  C   UNL     1       6.024   5.888  -3.538  0.00  0.00    +0.225 C 
ENDBRANCH  30  32
ENDBRANCH  24  30
ENDBRANCH   1  27
TORSDOF 6
