REMARK  Name = ZINC13082986
REMARK  7 active torsions:
REMARK  status: ('A' for Active; 'I' for Inactive)
REMARK    1  A    between atoms: C_1  and  C_2
REMARK    2  A    between atoms: C_2  and  C_13
REMARK    3  A    between atoms: N_15  and  C_16
REMARK    4  A    between atoms: N_15  and  C_26
REMARK    5  A    between atoms: C_16  and  C_17
REMARK    6  A    between atoms: N_19  and  C_20
REMARK    7  A    between atoms: C_20  and  C_21
REMARK                            x       y       z     vdW  Elec       q    Type
REMARK                         _______ _______ _______ _____ _____    ______ ____
ROOT
ATOM      1  C   UNL     1       1.216   5.013   0.095  0.00  0.00    +0.244 C 
ATOM      2  O   UNL     1       1.237   3.838   0.395  0.00  0.00    -0.273 OA
ATOM      3  N   UNL     1       0.583   5.412  -1.027  0.00  0.00    -0.261 N 
ENDROOT
BRANCH   1   5
ATOM      4  C   UNL     1       2.520   5.325   2.183  0.00  0.00    +0.042 C 
ATOM      5  C   UNL     1       1.897   6.028   0.976  0.00  0.00    +0.122 C 
ATOM      6  C   UNL     1       0.872   7.064   1.456  0.00  0.00    +0.133 C 
ATOM      7  C   UNL     1       1.616   8.195   2.124  0.00  0.00    +0.240 C 
ATOM      8  O   UNL     1       1.122   8.770   3.075  0.00  0.00    -0.274 OA
ATOM      9  N   UNL     1       2.804   8.561   1.676  0.00  0.00    -0.165 NA
ATOM     10  C   UNL     1       3.385   7.944   0.639  0.00  0.00    +0.119 C 
ATOM     11  N   UNL     1       2.943   6.724   0.216  0.00  0.00    -0.279 N 
ATOM     12  C   UNL     1       3.476   6.141  -0.885  0.00  0.00    +0.077 C 
ATOM     13  C   UNL     1       4.513   6.718  -1.541  0.00  0.00    +0.015 C 
ATOM     14  C   UNL     1       5.027   7.941  -1.098  0.00  0.00    +0.004 C 
ATOM     15  C   UNL     1       4.468   8.551  -0.011  0.00  0.00    +0.041 C 
ENDBRANCH   1   5
BRANCH   3  16
ATOM     16  C   UNL     1      -0.180   4.497  -1.762  0.00  0.00    +0.037 A 
ATOM     17  C   UNL     1      -0.419   3.226  -1.257  0.00  0.00    +0.023 A 
ATOM     18  C   UNL     1      -1.177   2.328  -1.982  0.00  0.00    +0.002 A 
ATOM     19  C   UNL     1      -1.688   2.689  -3.215  0.00  0.00    +0.000 A 
ATOM     20  C   UNL     1      -1.447   3.953  -3.723  0.00  0.00    +0.002 A 
ATOM     21  C   UNL     1      -0.695   4.857  -3.000  0.00  0.00    +0.023 A 
ENDBRANCH   3  16
BRANCH   3  22
ATOM     22  C   UNL     1       0.694   6.801  -1.476  0.00  0.00    +0.209 C 
BRANCH  22  23
ATOM     23  C   UNL     1       1.490   6.854  -2.754  0.00  0.00    +0.231 C 
ATOM     24  O   UNL     1       1.819   5.826  -3.307  0.00  0.00    -0.274 OA
ATOM     25  N   UNL     1       1.838   8.044  -3.283  0.00  0.00    -0.309 N 
ATOM     26  H   UNL     1       1.643   8.864  -2.803  0.00  0.00    +0.149 HD
BRANCH  25  27
ATOM     27  C   UNL     1       2.511   8.099  -4.584  0.00  0.00    +0.146 C 
BRANCH  27  28
ATOM     28  C   UNL     1       2.654   9.536  -5.014  0.00  0.00    +0.007 A 
ATOM     29  C   UNL     1       3.706  10.375  -4.853  0.00  0.00    +0.013 A 
ATOM     30  C   UNL     1       3.615  11.666  -5.338  0.00  0.00    +0.008 A 
ATOM     31  C   UNL     1       2.472  12.058  -5.952  0.00  0.00    +0.045 A 
ATOM     32  S   UNL     1       1.479  10.578  -5.863  0.00  0.00    -0.100 S 
ENDBRANCH  27  28
ENDBRANCH  25  27
ENDBRANCH  22  23
ENDBRANCH   3  22
TORSDOF 6
