REMARK  Name = ZINC42525843
REMARK  7 active torsions:
REMARK  status: ('A' for Active; 'I' for Inactive)
REMARK    1  A    between atoms: C_1  and  C_2
REMARK    2  A    between atoms: C_4  and  N_11
REMARK    3  A    between atoms: C_7  and  N_8
REMARK    4  A    between atoms: N_11  and  C_12
REMARK    5  A    between atoms: N_11  and  C_15
REMARK    6  A    between atoms: C_12  and  C_13
REMARK    7  A    between atoms: C_13  and  O_14
REMARK                            x       y       z     vdW  Elec       q    Type
REMARK                         _______ _______ _______ _____ _____    ______ ____
ROOT
ATOM      1  N   UNL     1      -0.072  -2.928  -2.319  0.00  0.00    -0.325 N 
ENDROOT
BRANCH   1   5
ATOM      2  C   UNL     1      -2.170  -0.636   1.489  0.00  0.00    +0.046 C 
ATOM      3  C   UNL     1      -0.958  -0.954   0.652  0.00  0.00    -0.019 A 
ATOM      4  C   UNL     1      -1.075  -1.790  -0.442  0.00  0.00    +0.028 A 
ATOM      5  C   UNL     1       0.043  -2.082  -1.213  0.00  0.00    +0.030 A 
ATOM      6  C   UNL     1       1.274  -1.532  -0.882  0.00  0.00    +0.025 A 
ATOM      7  C   UNL     1       1.384  -0.697   0.212  0.00  0.00    +0.035 A 
ATOM      8  C   UNL     1       0.268  -0.404   0.975  0.00  0.00    +0.129 A 
BRANCH   8   9
ATOM      9  N   UNL     1       0.389   0.496   2.144  0.00  0.00    +0.057 N 
ATOM     10  O   UNL     1      -0.492   1.286   2.392  0.00  0.00    -0.126 OA
ATOM     11  O   UNL     1       1.368   0.441   2.851  0.00  0.00    -0.126 OA
ENDBRANCH   8   9
ENDBRANCH   1   5
BRANCH   1  12
ATOM     12  C   UNL     1       0.165  -4.366  -2.169  0.00  0.00    +0.074 C 
ATOM     13  C   UNL     1       1.602  -4.600  -1.701  0.00  0.00    +0.022 C 
ATOM     14  C   UNL     1       1.849  -6.102  -1.544  0.00  0.00    +0.002 C 
ATOM     15  C   UNL     1       0.876  -6.674  -0.511  0.00  0.00    +0.000 C 
ATOM     16  C   UNL     1      -0.561  -6.439  -0.979  0.00  0.00    +0.002 C 
ATOM     17  C   UNL     1      -0.808  -4.938  -1.136  0.00  0.00    +0.022 C 
ENDBRANCH   1  12
BRANCH   1  18
ATOM     18  C   UNL     1      -0.428  -2.377  -3.628  0.00  0.00    +0.133 C 
BRANCH  18  19
ATOM     19  C   UNL     1       0.845  -1.986  -4.381  0.00  0.00    +0.174 C 
BRANCH  19  20
ATOM     20  O   UNL     1       1.612  -3.159  -4.661  0.00  0.00    -0.393 OA
ATOM     21  H   UNL     1       2.435  -2.986  -5.137  0.00  0.00    +0.209 HD
ENDBRANCH  19  20
ENDBRANCH  18  19
ENDBRANCH   1  18
TORSDOF 6
