REMARK  Name = ZINC36370002
REMARK  10 active torsions:
REMARK  status: ('A' for Active; 'I' for Inactive)
REMARK    1  A    between atoms: C_1  and  O_2
REMARK    2  A    between atoms: O_2  and  C_3
REMARK    3  A    between atoms: C_3  and  C_4
REMARK    4  A    between atoms: C_4  and  N_5
REMARK    5  A    between atoms: C_12  and  N_18
REMARK    6  A    between atoms: N_18  and  C_19
REMARK    7  A    between atoms: C_24  and  O_32
REMARK    8  A    between atoms: C_25  and  O_30
REMARK    9  A    between atoms: O_30  and  C_31
REMARK   10  A    between atoms: O_32  and  C_33
REMARK                            x       y       z     vdW  Elec       q    Type
REMARK                         _______ _______ _______ _____ _____    ______ ____
ROOT
ATOM      1  N   UNL     1       1.345  -2.562  -0.224  0.00  0.00    -0.291 NA
ATOM      2  C   UNL     1       1.309  -4.029  -0.296  0.00  0.00    +0.106 C 
ATOM      3  C   UNL     1       1.806  -4.489  -1.672  0.00  0.00    +0.139 C 
ATOM      4  N   UNL     1       3.080  -3.819  -1.950  0.00  0.00    -0.327 N 
ATOM      5  C   UNL     1       4.030  -4.130  -2.879  0.00  0.00    +0.067 A 
ATOM      6  C   UNL     1       4.123  -5.133  -3.838  0.00  0.00    +0.030 A 
ATOM      7  C   UNL     1       5.258  -5.148  -4.628  0.00  0.00    +0.025 A 
ATOM      8  C   UNL     1       6.271  -4.206  -4.481  0.00  0.00    +0.032 A 
ATOM      9  C   UNL     1       6.199  -3.196  -3.531  0.00  0.00    +0.050 A 
ATOM     10  C   UNL     1       5.057  -3.166  -2.722  0.00  0.00    +0.066 A 
ATOM     11  N   UNL     1       4.679  -2.341  -1.727  0.00  0.00    -0.342 N 
ATOM     12  C   UNL     1       3.520  -2.715  -1.268  0.00  0.00    +0.102 A 
ATOM     13  C   UNL     1       2.730  -2.067  -0.154  0.00  0.00    +0.157 C 
ATOM     14  H   UNL     1       5.192  -1.585  -1.402  0.00  0.00    +0.167 HD
ENDROOT
BRANCH   8  15
ATOM     15  N   UNL     1       7.393  -4.278  -5.313  0.00  0.00    -0.306 N 
ATOM     16  H   UNL     1       7.414  -4.915  -6.044  0.00  0.00    +0.150 HD
BRANCH  15  17
ATOM     17  C   UNL     1       8.536  -3.392  -5.080  0.00  0.00    +0.296 C 
ATOM     18  C   UNL     1       9.813  -4.076  -5.498  0.00  0.00    +0.029 A 
ATOM     19  C   UNL     1      10.448  -5.224  -5.091  0.00  0.00    +0.013 A 
ATOM     20  C   UNL     1      11.644  -5.604  -5.679  0.00  0.00    +0.050 A 
ATOM     21  C   UNL     1      12.207  -4.831  -6.681  0.00  0.00    +0.162 A 
ATOM     22  C   UNL     1      11.574  -3.665  -7.103  0.00  0.00    +0.176 A 
ATOM     23  C   UNL     1      10.367  -3.281  -6.509  0.00  0.00    +0.112 A 
ATOM     24  C   UNL     1       9.468  -2.136  -6.719  0.00  0.00    +0.345 C 
ATOM     25  O   UNL     1       9.649  -1.248  -7.528  0.00  0.00    -0.245 OA
ATOM     26  O   UNL     1       8.416  -2.216  -5.885  0.00  0.00    -0.435 OA
BRANCH  22  27
ATOM     27  O   UNL     1      12.125  -2.906  -8.084  0.00  0.00    -0.491 OA
ATOM     28  C   UNL     1      11.746  -3.209  -9.428  0.00  0.00    +0.277 C 
ENDBRANCH  22  27
BRANCH  21  29
ATOM     29  O   UNL     1      13.381  -5.211  -7.253  0.00  0.00    -0.491 OA
ATOM     30  C   UNL     1      13.977  -6.417  -6.771  0.00  0.00    +0.277 C 
ENDBRANCH  21  29
ENDBRANCH  15  17
ENDBRANCH   8  15
BRANCH   1  31
ATOM     31  C   UNL     1       0.553  -2.071   0.911  0.00  0.00    +0.113 C 
BRANCH  31  32
ATOM     32  C   UNL     1       0.403  -0.551   0.809  0.00  0.00    +0.174 C 
BRANCH  32  34
ATOM     33  C   UNL     1      -0.561   1.177  -0.544  0.00  0.00    +0.194 C 
ATOM     34  O   UNL     1      -0.361  -0.226  -0.354  0.00  0.00    -0.382 OA
ENDBRANCH  32  34
ENDBRANCH  31  32
ENDBRANCH   1  31
TORSDOF 7
