REMARK  Name = ZINC58016788
REMARK  13 active torsions:
REMARK  status: ('A' for Active; 'I' for Inactive)
REMARK    1  A    between atoms: C_1  and  C_2
REMARK    2  A    between atoms: C_2  and  C_4
REMARK    3  A    between atoms: C_2  and  N_12
REMARK    4  A    between atoms: C_13  and  C_15
REMARK    5  A    between atoms: C_15  and  C_17
REMARK    6  A    between atoms: C_15  and  N_18
REMARK    7  A    between atoms: N_18  and  C_19
REMARK    8  A    between atoms: N_18  and  C_20
REMARK    9  A    between atoms: C_20  and  C_21
REMARK   10  A    between atoms: N_23  and  C_24
REMARK   11  A    between atoms: C_24  and  C_25
REMARK   12  A    between atoms: C_24  and  C_26
REMARK   13  A    between atoms: C_24  and  C_27
REMARK                            x       y       z     vdW  Elec       q    Type
REMARK                         _______ _______ _______ _____ _____    ______ ____
ROOT
ATOM      1  N   UNL     1       0.214  -0.329  -1.192  0.00  0.00    -0.310 N 
ATOM      2  C   UNL     1      -0.165  -0.239  -2.482  0.00  0.00    +0.200 C 
ATOM      3  O   UNL     1      -1.137   0.421  -2.783  0.00  0.00    -0.278 OA
ATOM      4  H   UNL     1       0.992  -0.857  -0.951  0.00  0.00    +0.149 HD
ENDROOT
BRANCH   1   6
ATOM      5  C   UNL     1      -0.055   1.814  -0.044  0.00  0.00    +0.033 C 
ATOM      6  C   UNL     1      -0.548   0.369  -0.153  0.00  0.00    +0.101 C 
BRANCH   6   7
ATOM      7  C   UNL     1      -0.353  -0.329   1.168  0.00  0.00    -0.009 A 
ATOM      8  C   UNL     1       0.787  -1.078   1.393  0.00  0.00    +0.008 A 
ATOM      9  C   UNL     1       0.966  -1.718   2.604  0.00  0.00    +0.020 A 
ATOM     10  C   UNL     1       0.004  -1.611   3.593  0.00  0.00    +0.042 A 
ATOM     11  C   UNL     1      -1.137  -0.862   3.369  0.00  0.00    +0.040 A 
ATOM     12  C   UNL     1      -1.313  -0.217   2.157  0.00  0.00    +0.047 A 
ATOM     13 CL   UNL     1      -2.742   0.729   1.877  0.00  0.00    -0.083 Cl
ATOM     14 CL   UNL     1       0.229  -2.416   5.114  0.00  0.00    -0.083 Cl
ENDBRANCH   6   7
ENDBRANCH   1   6
BRANCH   2  15
ATOM     15  C   UNL     1       0.619  -0.957  -3.550  0.00  0.00    +0.016 C 
ATOM     16  C   UNL     1       1.767  -0.066  -4.027  0.00  0.00    -0.004 C 
BRANCH  15  17
ATOM     17  N   UNL     1      -0.265  -1.265  -4.682  0.00  0.00    +0.391 N 
ATOM     18  C   UNL     1       0.509  -1.926  -5.742  0.00  0.00    -0.094 C 
ATOM     19  H   UNL     1      -0.663  -0.409  -5.040  0.00  0.00    -0.080 HD
BRANCH  17  20
ATOM     20  C   UNL     1      -1.343  -2.156  -4.234  0.00  0.00    +0.019 C 
BRANCH  20  21
ATOM     21  C   UNL     1      -2.345  -2.331  -5.346  0.00  0.00    +0.197 C 
ATOM     22  O   UNL     1      -2.178  -1.768  -6.408  0.00  0.00    -0.278 OA
ATOM     23  N   UNL     1      -3.427  -3.113  -5.162  0.00  0.00    -0.312 N 
ATOM     24  H   UNL     1      -3.561  -3.563  -4.313  0.00  0.00    +0.149 HD
BRANCH  23  25
ATOM     25  C   UNL     1      -4.402  -3.283  -6.242  0.00  0.00    +0.026 C 
ATOM     26  C   UNL     1      -3.708  -3.894  -7.462  0.00  0.00    +0.031 C 
ATOM     27  C   UNL     1      -5.524  -4.212  -5.776  0.00  0.00    +0.031 C 
ATOM     28  C   UNL     1      -4.989  -1.921  -6.619  0.00  0.00    +0.031 C 
ENDBRANCH  23  25
ENDBRANCH  20  21
ENDBRANCH  17  20
ENDBRANCH  15  17
ENDBRANCH   2  15
TORSDOF 7
