REMARK  Name = ZINC67550282
REMARK  9 active torsions:
REMARK  status: ('A' for Active; 'I' for Inactive)
REMARK    1  A    between atoms: C_1  and  C_2
REMARK    2  A    between atoms: C_2  and  C_4
REMARK    3  A    between atoms: C_2  and  N_11
REMARK    4  A    between atoms: C_8  and  O_10
REMARK    5  A    between atoms: N_11  and  C_12
REMARK    6  A    between atoms: N_15  and  C_16
REMARK    7  A    between atoms: C_19  and  N_22
REMARK    8  A    between atoms: C_23  and  N_29
REMARK    9  A    between atoms: C_24  and  C_27
REMARK                            x       y       z     vdW  Elec       q    Type
REMARK                         _______ _______ _______ _____ _____    ______ ____
ROOT
ATOM      1  N   UNL     1       0.674  -0.495   1.298  0.00  0.00    -0.282 N 
ATOM      2  C   UNL     1       2.022  -0.101   1.716  0.00  0.00    +0.134 C 
ATOM      3  C   UNL     1      -0.053  -1.329   2.067  0.00  0.00    +0.307 C 
ATOM      4  O   UNL     1      -1.171  -1.656   1.721  0.00  0.00    -0.252 OA
ATOM      5  N   UNL     1       0.460  -1.800   3.221  0.00  0.00    -0.269 N 
ATOM      6  H   UNL     1       1.375  -1.592   3.466  0.00  0.00    +0.156 HD
ENDROOT
BRANCH   5   7
ATOM      7  C   UNL     1      -0.330  -2.589   4.068  0.00  0.00    +0.035 A 
ATOM      8  C   UNL     1      -0.190  -2.484   5.446  0.00  0.00    +0.025 A 
ATOM      9  C   UNL     1      -0.968  -3.261   6.279  0.00  0.00    +0.029 A 
ATOM     10  C   UNL     1      -1.891  -4.148   5.741  0.00  0.00    +0.068 A 
ATOM     11  C   UNL     1      -2.030  -4.254   4.363  0.00  0.00    +0.029 A 
ATOM     12  C   UNL     1      -1.256  -3.472   3.529  0.00  0.00    +0.025 A 
BRANCH  10  13
ATOM     13  N   UNL     1      -2.681  -4.938   6.588  0.00  0.00    -0.218 N 
ATOM     14  C   UNL     1      -3.961  -5.308   6.358  0.00  0.00    +0.137 A 
ATOM     15  C   UNL     1      -4.365  -6.082   7.443  0.00  0.00    +0.111 A 
ATOM     16  C   UNL     1      -3.266  -6.156   8.330  0.00  0.00    +0.155 A 
ATOM     17  N   UNL     1      -2.277  -5.482   7.812  0.00  0.00    -0.172 NA
BRANCH  14  18
ATOM     18  N   UNL     1      -4.724  -4.979   5.254  0.00  0.00    -0.342 N 
ATOM     19  H   UNL     1      -4.347  -4.431   4.549  0.00  0.00    +0.144 HD
ATOM     20  H   UNL     1      -5.638  -5.297   5.184  0.00  0.00    +0.144 HD
ENDBRANCH  14  18
BRANCH  15  21
ATOM     21  C   UNL     1      -5.649  -6.687   7.626  0.00  0.00    +0.104 C 
ATOM     22  N   UNL     1      -6.669  -7.168   7.771  0.00  0.00    -0.191 NA
ENDBRANCH  15  21
ENDBRANCH  10  13
ENDBRANCH   5   7
BRANCH   1  24
ATOM     23  C   UNL     1       0.171   1.546   0.048  0.00  0.00    +0.033 C 
ATOM     24  C   UNL     1       0.117   0.017   0.043  0.00  0.00    +0.104 C 
BRANCH  24  25
ATOM     25  C   UNL     1       0.922  -0.511  -1.116  0.00  0.00    -0.024 A 
ATOM     26  C   UNL     1       1.538  -1.746  -1.025  0.00  0.00    +0.006 A 
ATOM     27  C   UNL     1       2.278  -2.232  -2.087  0.00  0.00    +0.004 A 
ATOM     28  C   UNL     1       2.404  -1.485  -3.242  0.00  0.00    +0.045 A 
ATOM     29  C   UNL     1       1.787  -0.247  -3.337  0.00  0.00    +0.117 A 
ATOM     30  C   UNL     1       1.040   0.237  -2.272  0.00  0.00    +0.050 A 
BRANCH  29  31
ATOM     31  O   UNL     1       1.909   0.490  -4.472  0.00  0.00    -0.507 OA
ATOM     32  H   UNL     1       1.220   0.318  -5.129  0.00  0.00    +0.292 HD
ENDBRANCH  29  31
ENDBRANCH  24  25
ENDBRANCH   1  24
TORSDOF 7
