REMARK  Name = ZINC09703780
REMARK  7 active torsions:
REMARK  status: ('A' for Active; 'I' for Inactive)
REMARK    1  A    between atoms: C_4  and  C_7
REMARK    2  A    between atoms: C_7  and  C_8
REMARK    3  A    between atoms: C_8  and  C_10
REMARK    4  A    between atoms: C_8  and  N_28
REMARK    5  A    between atoms: N_12  and  N_13
REMARK    6  A    between atoms: C_14  and  C_16
REMARK    7  A    between atoms: C_29  and  C_31
REMARK                            x       y       z     vdW  Elec       q    Type
REMARK                         _______ _______ _______ _____ _____    ______ ____
ROOT
ATOM      1  C   UNL     1      -0.081  -2.025   1.436  0.00  0.00    +0.250 C 
ATOM      2  O   UNL     1       0.805  -2.696   1.924  0.00  0.00    -0.272 OA
ATOM      3  N   UNL     1      -1.157  -2.625   0.890  0.00  0.00    -0.233 N 
ATOM      4  H   UNL     1      -1.865  -2.088   0.500  0.00  0.00    +0.173 HD
ENDROOT
BRANCH   3   5
ATOM      5  N   UNL     1      -1.253  -4.022   0.885  0.00  0.00    -0.229 N 
ATOM      6  C   UNL     1      -2.330  -4.622   0.339  0.00  0.00    +0.281 C 
ATOM      7  O   UNL     1      -3.217  -3.950  -0.149  0.00  0.00    -0.267 OA
ATOM      8  H   UNL     1      -0.545  -4.559   1.275  0.00  0.00    +0.173 HD
BRANCH   6   9
ATOM      9  C   UNL     1      -2.431  -6.095   0.334  0.00  0.00    +0.155 A 
ATOM     10  C   UNL     1      -3.606  -6.758  -0.255  0.00  0.00    +0.020 A 
ATOM     11  C   UNL     1      -4.656  -6.055  -0.835  0.00  0.00    +0.011 A 
ATOM     12  C   UNL     1      -5.720  -6.749  -1.371  0.00  0.00    +0.001 A 
ATOM     13  C   UNL     1      -5.751  -8.137  -1.342  0.00  0.00    +0.001 A 
ATOM     14  C   UNL     1      -4.718  -8.854  -0.776  0.00  0.00    +0.014 A 
ATOM     15  C   UNL     1      -3.635  -8.172  -0.230  0.00  0.00    +0.050 A 
ATOM     16  C   UNL     1      -2.493  -8.856   0.392  0.00  0.00    +0.272 A 
ATOM     17  O   UNL     1      -2.452 -10.071   0.454  0.00  0.00    -0.266 OA
ATOM     18  N   UNL     1      -1.490  -8.106   0.894  0.00  0.00    -0.242 N 
ATOM     19  H   UNL     1      -0.738  -8.560   1.305  0.00  0.00    +0.192 HD
ATOM     20  N   UNL     1      -1.479  -6.827   0.858  0.00  0.00    -0.166 NA
ENDBRANCH   6   9
ENDBRANCH   3   5
BRANCH   1  21
ATOM     21  C   UNL     1       0.023  -0.522   1.442  0.00  0.00    +0.165 C 
BRANCH  21  22
ATOM     22  N   UNL     1       1.275  -0.121   2.087  0.00  0.00    -0.297 N 
ATOM     23  C   UNL     1       1.379   1.095   2.659  0.00  0.00    +0.280 C 
ATOM     24  O   UNL     1       0.433   1.859   2.640  0.00  0.00    -0.267 OA
ATOM     25  H   UNL     1       2.030  -0.730   2.102  0.00  0.00    +0.150 HD
BRANCH  23  26
ATOM     26  C   UNL     1       2.633   1.496   3.305  0.00  0.00    +0.189 A 
ATOM     27  C   UNL     1       2.873   2.692   3.920  0.00  0.00    +0.054 A 
ATOM     28  C   UNL     1       4.193   2.645   4.394  0.00  0.00    +0.042 A 
ATOM     29  C   UNL     1       4.695   1.438   4.053  0.00  0.00    +0.196 A 
ATOM     30  O   UNL     1       3.751   0.747   3.402  0.00  0.00    -0.458 OA
ENDBRANCH  23  26
ENDBRANCH  21  22
BRANCH  21  31
ATOM     31  C   UNL     1       0.002  -0.004   0.002  0.00  0.00    +0.067 C 
BRANCH  31  35
ATOM     32  C   UNL     1      -0.056   4.267   0.025  0.00  0.00    +0.000 A 
ATOM     33  C   UNL     1       1.151   3.592   0.010  0.00  0.00    +0.000 A 
ATOM     34  C   UNL     1       1.169   2.210   0.003  0.00  0.00    +0.004 A 
ATOM     35  C   UNL     1      -0.018   1.503   0.010  0.00  0.00    -0.045 A 
ATOM     36  C   UNL     1      -1.225   2.178   0.020  0.00  0.00    +0.004 A 
ATOM     37  C   UNL     1      -1.244   3.560   0.032  0.00  0.00    +0.000 A 
ENDBRANCH  31  35
ENDBRANCH  21  31
ENDBRANCH   1  21
TORSDOF 7
