REMARK  Name = ZINC04971760
REMARK  4 active torsions:
REMARK  status: ('A' for Active; 'I' for Inactive)
REMARK    1  A    between atoms: C_1  and  C_2
REMARK    2  A    between atoms: C_5  and  C_8
REMARK    3  A    between atoms: C_8  and  N_9
REMARK    4  A    between atoms: C_10  and  C_12
REMARK                            x       y       z     vdW  Elec       q    Type
REMARK                         _______ _______ _______ _____ _____    ______ ____
ROOT
ATOM      1  C   UNL     1       1.036   5.880   3.033  0.00  0.00    +0.080 A 
ATOM      2  C   UNL     1       0.915   7.238   3.308  0.00  0.00    +0.018 A 
ATOM      3  C   UNL     1       0.818   7.658   4.636  0.00  0.00    +0.019 A 
ATOM      4  C   UNL     1       0.840   6.769   5.653  0.00  0.00    +0.096 A 
ATOM      5  N   UNL     1       0.958   5.427   5.438  0.00  0.00    -0.267 N 
ATOM      6  C   UNL     1       1.052   4.942   4.159  0.00  0.00    +0.154 A 
ATOM      7  N   UNL     1       1.160   3.642   3.929  0.00  0.00    -0.221 NA
ATOM      8  C   UNL     1       1.175   2.776   4.928  0.00  0.00    +0.116 A 
ATOM      9  C   UNL     1       1.079   3.183   6.273  0.00  0.00    +0.076 A 
ATOM     10  C   UNL     1       0.974   4.589   6.494  0.00  0.00    +0.267 A 
ATOM     11  O   UNL     1       0.886   5.028   7.628  0.00  0.00    -0.267 OA
ATOM     12  C   UNL     1       1.108   2.109   7.268  0.00  0.00    -0.023 A 
ATOM     13  C   UNL     1       1.224   0.848   6.804  0.00  0.00    -0.004 A 
ATOM     14  S   UNL     1       1.300   1.009   5.041  0.00  0.00    -0.073 S 
ATOM     15  C   UNL     1       1.278  -0.414   7.611  0.00  0.00    +0.043 C 
ATOM     16  C   UNL     1       1.554  -0.043   9.075  0.00  0.00    +0.005 C 
ATOM     17  C   UNL     1       0.610   1.093   9.480  0.00  0.00    +0.005 C 
ATOM     18  C   UNL     1       1.014   2.384   8.766  0.00  0.00    +0.037 C 
ENDROOT
BRANCH   1  20
ATOM     19  N   UNL     1       1.140   4.074   1.392  0.00  0.00    -0.307 N 
ATOM     20  C   UNL     1       1.141   5.397   1.647  0.00  0.00    +0.248 C 
ATOM     21  O   UNL     1       1.229   6.193   0.731  0.00  0.00    -0.270 OA
ATOM     22  H   UNL     1       1.145   3.439   2.126  0.00  0.00    +0.149 HD
BRANCH  19  23
ATOM     23  C   UNL     1       1.131   3.594   0.008  0.00  0.00    +0.139 C 
BRANCH  23  28
ATOM     24  C   UNL     1       1.134  -2.185  -0.029  0.00  0.00    +0.044 C 
ATOM     25  C   UNL     1       1.133  -0.678  -0.020  0.00  0.00    -0.050 A 
ATOM     26  C   UNL     1      -0.064   0.013  -0.007  0.00  0.00    +0.003 A 
ATOM     27  C   UNL     1      -0.065   1.395   0.002  0.00  0.00    +0.005 A 
ATOM     28  C   UNL     1       1.132   2.087  -0.001  0.00  0.00    -0.030 A 
ATOM     29  C   UNL     1       2.329   1.397  -0.014  0.00  0.00    +0.005 A 
ATOM     30  C   UNL     1       2.330   0.014  -0.023  0.00  0.00    +0.003 A 
ENDBRANCH  23  28
ENDBRANCH  19  23
ENDBRANCH   1  20
TORSDOF 3
