REMARK  Name = ZINC09311946
REMARK  8 active torsions:
REMARK  status: ('A' for Active; 'I' for Inactive)
REMARK    1  A    between atoms: C_1  and  N_2
REMARK    2  A    between atoms: N_7  and  N_8
REMARK    3  A    between atoms: N_8  and  C_9
REMARK    4  A    between atoms: N_16  and  C_19
REMARK    5  A    between atoms: C_19  and  C_20
REMARK    6  A    between atoms: C_20  and  C_21
REMARK    7  A    between atoms: N_27  and  C_34
REMARK    8  A    between atoms: N_30  and  C_33
REMARK                            x       y       z     vdW  Elec       q    Type
REMARK                         _______ _______ _______ _____ _____    ______ ____
ROOT
ATOM      1  N   UNL     1      -0.101  -2.243  -3.519  0.00  0.00    -0.271 N 
ATOM      2  H   UNL     1      -0.117  -1.144  -3.564  0.00  0.00    +0.169 HD
ENDROOT
BRANCH   1   9
ATOM      3  C   UNL     1      -0.447  -4.423  -7.357  0.00  0.00    +0.152 C 
ATOM      4  N   UNL     1      -0.440  -2.978  -7.115  0.00  0.00    -0.308 N 
ATOM      5  C   UNL     1      -0.543  -1.977  -8.072  0.00  0.00    +0.153 A 
ATOM      6  C   UNL     1      -0.489  -0.770  -7.383  0.00  0.00    +0.170 A 
ATOM      7  N   UNL     1      -0.366  -1.052  -6.085  0.00  0.00    -0.195 NA
ATOM      8  C   UNL     1      -0.330  -2.358  -5.910  0.00  0.00    +0.214 A 
ATOM      9  N   UNL     1      -0.206  -2.994  -4.697  0.00  0.00    -0.236 N 
ATOM     10  N   UNL     1      -0.571   0.412  -8.101  0.00  0.00    -0.280 N 
ATOM     11  C   UNL     1      -0.700   0.380  -9.441  0.00  0.00    +0.333 A 
ATOM     12  O   UNL     1      -0.771   1.427 -10.055  0.00  0.00    -0.246 OA
ATOM     13  N   UNL     1      -0.752  -0.781 -10.116  0.00  0.00    -0.262 N 
ATOM     14  C   UNL     1      -0.677  -1.964  -9.471  0.00  0.00    +0.282 A 
ATOM     15  O   UNL     1      -0.726  -3.009 -10.095  0.00  0.00    -0.265 OA
ATOM     16  C   UNL     1      -0.892  -0.762 -11.574  0.00  0.00    +0.157 C 
ATOM     17  C   UNL     1      -0.518   1.698  -7.401  0.00  0.00    +0.155 C 
ATOM     18  H   UNL     1      -0.191  -4.093  -4.651  0.00  0.00    +0.173 HD
ENDBRANCH   1   9
BRANCH   1  19
ATOM     19  C   UNL     1       0.020  -2.867  -2.330  0.00  0.00    +0.106 C 
ATOM     20  C   UNL     1       0.018  -2.131  -1.160  0.00  0.00    +0.116 C 
ATOM     21  C   UNL     1       0.012  -2.785   0.161  0.00  0.00    +0.276 C 
ATOM     22  O   UNL     1       0.009  -3.998   0.257  0.00  0.00    -0.268 OA
ATOM     23  N   UNL     1       0.010  -2.003   1.260  0.00  0.00    -0.153 NA
ATOM     24  C   UNL     1       0.013  -0.666   1.168  0.00  0.00    +0.167 C 
ATOM     25  S   UNL     1       0.011   0.246   2.618  0.00  0.00    -0.016 S 
ATOM     26  N   UNL     1       0.018  -0.004   0.003  0.00  0.00    -0.247 N 
ATOM     27  C   UNL     1       0.015  -0.657  -1.178  0.00  0.00    +0.259 C 
ATOM     28  O   UNL     1       0.014  -0.045  -2.230  0.00  0.00    -0.269 OA
BRANCH  26  29
ATOM     29  C   UNL     1       0.021   1.460   0.011  0.00  0.00    +0.120 C 
BRANCH  29  30
ATOM     30  C   UNL     1       1.464   1.968   0.018  0.00  0.00    +0.050 C 
BRANCH  30  31
ATOM     31  C   UNL     1       1.467   3.474   0.026  0.00  0.00    -0.072 C 
ATOM     32  C   UNL     1       1.560   4.075   1.170  0.00  0.00    -0.028 C 
ATOM     33  C   UNL     1       1.570   5.566   1.338  0.00  0.00    +0.027 C 
ATOM     34  C   UNL     1       1.873   6.246   0.001  0.00  0.00    +0.004 C 
ATOM     35  C   UNL     1       0.953   5.645  -1.069  0.00  0.00    +0.005 C 
ATOM     36  C   UNL     1       1.357   4.186  -1.290  0.00  0.00    +0.030 C 
ENDBRANCH  30  31
ENDBRANCH  29  30
ENDBRANCH  26  29
ENDBRANCH   1  19
TORSDOF 5
