REMARK  Name = ZINC42063690
REMARK  5 active torsions:
REMARK  status: ('A' for Active; 'I' for Inactive)
REMARK    1  A    between atoms: C_1  and  C_2
REMARK    2  A    between atoms: C_2  and  C_4
REMARK    3  A    between atoms: C_2  and  N_10
REMARK    4  A    between atoms: N_10  and  C_11
REMARK    5  A    between atoms: N_19  and  C_22
REMARK                            x       y       z     vdW  Elec       q    Type
REMARK                         _______ _______ _______ _____ _____    ______ ____
ROOT
ATOM      1  C   UNL     1      -1.924  -0.575  -1.349  0.00  0.00    +0.174 C 
ATOM      2  C   UNL     1      -3.435  -0.540  -1.314  0.00  0.00    -0.000 A 
ATOM      3  C   UNL     1      -4.340   0.392  -0.857  0.00  0.00    +0.007 A 
ATOM      4  C   UNL     1      -5.697   0.143  -0.959  0.00  0.00    +0.000 A 
ATOM      5  C   UNL     1      -6.140  -1.042  -1.519  0.00  0.00    +0.002 A 
ATOM      6  C   UNL     1      -5.235  -1.977  -1.977  0.00  0.00    +0.024 A 
ATOM      7  C   UNL     1      -3.867  -1.734  -1.878  0.00  0.00    +0.041 A 
ATOM      8  N   UNL     1      -2.772  -2.510  -2.262  0.00  0.00    -0.273 N 
ATOM      9  C   UNL     1      -1.599  -1.907  -1.991  0.00  0.00    +0.241 C 
ATOM     10  O   UNL     1      -0.491  -2.346  -2.217  0.00  0.00    -0.273 OA
ATOM     11  C   UNL     1      -2.886  -3.828  -2.891  0.00  0.00    +0.138 C 
ENDROOT
BRANCH   1  12
ATOM     12  N   UNL     1      -1.376  -0.512   0.012  0.00  0.00    -0.295 NA
ATOM     13  H   UNL     1      -1.426  -1.413   0.464  0.00  0.00    +0.124 HD
BRANCH  12  15
ATOM     14  C   UNL     1      -0.019   1.526   0.010  0.00  0.00    +0.029 C 
ATOM     15  C   UNL     1       0.002  -0.004   0.002  0.00  0.00    +0.083 C 
BRANCH  15  16
ATOM     16  C   UNL     1       0.731  -0.503   1.223  0.00  0.00    -0.013 A 
ATOM     17  C   UNL     1       2.054  -0.909   1.134  0.00  0.00    +0.008 A 
ATOM     18  C   UNL     1       2.684  -1.361   2.283  0.00  0.00    +0.020 A 
ATOM     19  C   UNL     1       1.978  -1.392   3.471  0.00  0.00    +0.111 A 
ATOM     20  N   UNL     1       0.721  -0.998   3.518  0.00  0.00    -0.263 NA
ATOM     21  C   UNL     1       0.091  -0.557   2.446  0.00  0.00    +0.115 A 
ENDBRANCH  15  16
ENDBRANCH  12  15
ENDBRANCH   1  12
TORSDOF 3
