REMARK  Name = ZINC00119102
REMARK  7 active torsions:
REMARK  status: ('A' for Active; 'I' for Inactive)
REMARK    1  A    between atoms: C_1  and  C_2
REMARK    2  A    between atoms: C_3  and  C_17
REMARK    3  A    between atoms: C_4  and  C_10
REMARK    4  A    between atoms: C_13  and  O_16
REMARK    5  A    between atoms: C_17  and  O_19
REMARK    6  A    between atoms: O_19  and  C_20
REMARK    7  A    between atoms: C_20  and  C_21
REMARK                            x       y       z     vdW  Elec       q    Type
REMARK                         _______ _______ _______ _____ _____    ______ ____
ROOT
ATOM      1  C   UNL     1      -0.018   1.503   0.010  0.00  0.00    +0.061 C 
ATOM      2  C   UNL     1       0.002  -0.004   0.002  0.00  0.00    +0.021 C 
ATOM      3  C   UNL     1      -1.165  -0.684   0.004  0.00  0.00    +0.078 C 
ATOM      4  C   UNL     1      -1.098  -2.198  -0.005  0.00  0.00    +0.143 C 
ATOM      5  N   UNL     1       0.242  -2.807  -0.014  0.00  0.00    -0.288 N 
ATOM      6  C   UNL     1       1.317  -1.993  -0.015  0.00  0.00    +0.304 C 
ATOM      7  O   UNL     1       2.428  -2.486  -0.023  0.00  0.00    -0.252 OA
ATOM      8  N   UNL     1       1.200  -0.659  -0.013  0.00  0.00    -0.273 N 
ATOM      9  H   UNL     1       0.350  -3.771  -0.020  0.00  0.00    +0.151 HD
ATOM     10  H   UNL     1       2.012  -0.129  -0.018  0.00  0.00    +0.156 HD
ENDROOT
BRANCH   4  11
ATOM     11  C   UNL     1      -1.828  -2.702   1.214  0.00  0.00    -0.022 A 
ATOM     12  C   UNL     1      -1.202  -2.691   2.447  0.00  0.00    +0.009 A 
ATOM     13  C   UNL     1      -1.868  -3.153   3.565  0.00  0.00    +0.046 A 
ATOM     14  C   UNL     1      -3.167  -3.627   3.451  0.00  0.00    +0.117 A 
ATOM     15  C   UNL     1      -3.793  -3.636   2.213  0.00  0.00    +0.046 A 
ATOM     16  C   UNL     1      -3.124  -3.169   1.099  0.00  0.00    +0.009 A 
BRANCH  14  17
ATOM     17  O   UNL     1      -3.824  -4.082   4.550  0.00  0.00    -0.507 OA
ATOM     18  H   UNL     1      -4.325  -3.401   5.019  0.00  0.00    +0.292 HD
ENDBRANCH  14  17
ENDBRANCH   4  11
BRANCH   3  19
ATOM     19  C   UNL     1      -2.406  -0.006   0.014  0.00  0.00    +0.339 C 
ATOM     20  O   UNL     1      -2.435   1.210   0.021  0.00  0.00    -0.245 OA
BRANCH  19  21
ATOM     21  O   UNL     1      -3.558  -0.709   0.016  0.00  0.00    -0.461 OA
BRANCH  21  22
ATOM     22  C   UNL     1      -4.775   0.040   0.026  0.00  0.00    +0.236 C 
BRANCH  22  23
ATOM     23  C   UNL     1      -5.966  -0.921   0.027  0.00  0.00    +0.027 C 
ATOM     24  C   UNL     1      -5.986  -1.708  -1.285  0.00  0.00    +0.007 C 
ATOM     25  C   UNL     1      -7.177  -2.668  -1.285  0.00  0.00    +0.000 C 
ATOM     26  C   UNL     1      -8.476  -1.871  -1.148  0.00  0.00    +0.000 C 
ATOM     27  C   UNL     1      -8.455  -1.084   0.164  0.00  0.00    +0.000 C 
ATOM     28  C   UNL     1      -7.264  -0.123   0.164  0.00  0.00    +0.007 C 
ENDBRANCH  22  23
ENDBRANCH  21  22
ENDBRANCH  19  21
ENDBRANCH   3  19
TORSDOF 6
