REMARK  Name = ZINC60439481
REMARK  5 active torsions:
REMARK  status: ('A' for Active; 'I' for Inactive)
REMARK    1  A    between atoms: C_1  and  C_2
REMARK    2  A    between atoms: C_2  and  N_3
REMARK    3  A    between atoms: N_6  and  C_9
REMARK    4  A    between atoms: C_14  and  N_15
REMARK    5  A    between atoms: C_16  and  C_18
REMARK                            x       y       z     vdW  Elec       q    Type
REMARK                         _______ _______ _______ _____ _____    ______ ____
ROOT
ATOM      1  C   UNL     1       0.803  -2.834   4.615  0.00  0.00    +0.051 A 
ATOM      2  C   UNL     1      -0.418  -3.486   4.695  0.00  0.00    +0.026 A 
ATOM      3  C   UNL     1      -0.677  -4.342   5.749  0.00  0.00    +0.022 A 
ATOM      4  C   UNL     1       0.279  -4.550   6.727  0.00  0.00    +0.043 A 
ATOM      5  C   UNL     1       1.500  -3.904   6.655  0.00  0.00    +0.045 A 
ATOM      6  C   UNL     1       1.770  -3.049   5.598  0.00  0.00    +0.056 A 
ATOM      7 CL   UNL     1      -0.055  -5.625   8.049  0.00  0.00    -0.083 Cl
ENDROOT
BRANCH   1  11
ATOM      8  N   UNL     1       0.697  -0.514   1.190  0.00  0.00    +0.382 N 
ATOM      9  C   UNL     1      -0.054  -0.137   2.394  0.00  0.00    -0.060 C 
ATOM     10  C   UNL     1       0.746  -0.535   3.639  0.00  0.00    +0.086 C 
ATOM     11  N   UNL     1       1.068  -1.968   3.548  0.00  0.00    -0.332 N 
ATOM     12  C   UNL     1       1.677  -2.464   2.304  0.00  0.00    +0.086 C 
ATOM     13  C   UNL     1       0.833  -1.975   1.122  0.00  0.00    -0.060 C 
ATOM     14  H   UNL     1       1.614  -0.094   1.223  0.00  0.00    -0.082 HD
BRANCH   8  16
ATOM     15  C   UNL     1      -0.051   1.495   0.006  0.00  0.00    -0.017 C 
ATOM     16  C   UNL     1      -0.017  -0.035  -0.001  0.00  0.00    -0.082 C 
ENDBRANCH   8  16
ENDBRANCH   1  11
BRANCH   6  17
ATOM     17  N   UNL     1       3.008  -2.397   5.520  0.00  0.00    -0.284 N 
ATOM     18  C   UNL     1       3.633  -2.000   6.646  0.00  0.00    +0.221 C 
ATOM     19  O   UNL     1       3.164  -2.279   7.730  0.00  0.00    -0.275 OA
ATOM     20  H   UNL     1       3.415  -2.230   4.655  0.00  0.00    +0.155 HD
BRANCH  18  21
ATOM     21  C   UNL     1       4.914  -1.211   6.559  0.00  0.00    +0.083 C 
ATOM     22  C   UNL     1       6.043  -2.073   5.944  0.00  0.00    +0.021 C 
ATOM     23  C   UNL     1       7.115  -2.143   7.078  0.00  0.00    +0.013 C 
ATOM     24  C   UNL     1       6.184  -2.212   8.344  0.00  0.00    +0.016 C 
ATOM     25  C   UNL     1       5.446  -0.870   7.987  0.00  0.00    +0.024 C 
ATOM     26  C   UNL     1       6.658   0.033   7.727  0.00  0.00    -0.027 C 
ATOM     27  C   UNL     1       7.620  -0.700   7.203  0.00  0.00    -0.027 C 
ENDBRANCH  18  21
ENDBRANCH   6  17
TORSDOF 4
