REMARK  Name = ZINC02231271
REMARK  5 active torsions:
REMARK  status: ('A' for Active; 'I' for Inactive)
REMARK    1  A    between atoms: C_6  and  C_7
REMARK    2  A    between atoms: C_13  and  C_28
REMARK    3  A    between atoms: C_14  and  C_21
REMARK    4  A    between atoms: C_16  and  C_19
REMARK    5  A    between atoms: C_17  and  N_18
REMARK                            x       y       z     vdW  Elec       q    Type
REMARK                         _______ _______ _______ _____ _____    ______ ____
ROOT
ATOM      1  C   UNL     1       7.518   3.981   1.488  0.00  0.00    +0.028 C 
ATOM      2  C   UNL     1       6.379   3.310   1.180  0.00  0.00    +0.079 A 
ATOM      3  C   UNL     1       5.704   3.167  -0.116  0.00  0.00    +0.271 A 
ATOM      4  O   UNL     1       6.157   3.691  -1.116  0.00  0.00    -0.266 OA
ATOM      5  N   UNL     1       4.569   2.440  -0.171  0.00  0.00    -0.257 N 
ATOM      6  C   UNL     1       4.113   1.874   1.002  0.00  0.00    +0.099 A 
ATOM      7  C   UNL     1       2.989   1.118   1.102  0.00  0.00    +0.057 C 
ATOM      8  C   UNL     1       2.173   0.874  -0.152  0.00  0.00    +0.100 C 
ATOM      9  C   UNL     1       2.707   1.512  -1.418  0.00  0.00    +0.079 C 
ATOM     10  C   UNL     1       3.845   2.238  -1.351  0.00  0.00    +0.118 C 
ATOM     11  S   UNL     1       5.298   2.363   2.240  0.00  0.00    -0.065 S 
ENDROOT
BRANCH   1  17
ATOM     12  C   UNL     1       6.965   4.066   3.912  0.00  0.00    +0.009 A 
ATOM     13  C   UNL     1       7.353   4.205   5.227  0.00  0.00    +0.020 A 
ATOM     14  C   UNL     1       8.685   4.424   5.541  0.00  0.00    +0.041 A 
ATOM     15  C   UNL     1       9.637   4.499   4.537  0.00  0.00    +0.020 A 
ATOM     16  C   UNL     1       9.265   4.356   3.218  0.00  0.00    +0.009 A 
ATOM     17  C   UNL     1       7.922   4.135   2.893  0.00  0.00    -0.024 A 
ATOM     18 CL   UNL     1       9.163   4.606   7.200  0.00  0.00    -0.084 Cl
ENDBRANCH   1  17
BRANCH   8  19
ATOM     19  C   UNL     1       0.778   1.392   0.084  0.00  0.00    -0.035 A 
ATOM     20  C   UNL     1      -0.287   0.511   0.131  0.00  0.00    +0.006 A 
ATOM     21  C   UNL     1      -1.568   0.986   0.342  0.00  0.00    +0.020 A 
ATOM     22  C   UNL     1      -1.783   2.341   0.518  0.00  0.00    +0.041 A 
ATOM     23  C   UNL     1      -0.717   3.222   0.471  0.00  0.00    +0.020 A 
ATOM     24  C   UNL     1       0.563   2.747   0.255  0.00  0.00    +0.006 A 
ATOM     25 CL   UNL     1      -3.390   2.938   0.789  0.00  0.00    -0.084 Cl
ENDBRANCH   8  19
BRANCH   7  26
ATOM     26  C   UNL     1       2.591   0.578   2.336  0.00  0.00    +0.241 C 
ATOM     27  O   UNL     1       3.259   0.784   3.335  0.00  0.00    -0.271 OA
ATOM     28  N   UNL     1       1.473  -0.170   2.415  0.00  0.00    -0.326 N 
ATOM     29  H   UNL     1       0.942  -0.334   1.620  0.00  0.00    +0.145 HD
ATOM     30  H   UNL     1       1.198  -0.543   3.267  0.00  0.00    +0.145 HD
ENDBRANCH   7  26
BRANCH  10  31
ATOM     31  N   UNL     1       4.317   2.811  -2.507  0.00  0.00    -0.343 N 
ATOM     32  H   UNL     1       4.839   3.627  -2.466  0.00  0.00    +0.144 HD
ATOM     33  H   UNL     1       4.128   2.399  -3.365  0.00  0.00    +0.144 HD
ENDBRANCH  10  31
BRANCH   9  34
ATOM     34  C   UNL     1       2.019   1.349  -2.663  0.00  0.00    +0.099 C 
ATOM     35  N   UNL     1       1.473   1.220  -3.651  0.00  0.00    -0.191 NA
ENDBRANCH   9  34
TORSDOF 5
