REMARK  Name = ZINC12031340
REMARK  11 active torsions:
REMARK  status: ('A' for Active; 'I' for Inactive)
REMARK    1  A    between atoms: C_1  and  C_2
REMARK    2  A    between atoms: C_2  and  C_3
REMARK    3  A    between atoms: C_2  and  C_4
REMARK    4  A    between atoms: C_4  and  C_6
REMARK    5  A    between atoms: C_4  and  N_24
REMARK    6  A    between atoms: C_15  and  C_16
REMARK    7  A    between atoms: C_15  and  N_57
REMARK    8  A    between atoms: C_19  and  S_22
REMARK    9  A    between atoms: S_22  and  C_23
REMARK   10  A    between atoms: N_24  and  S_25
REMARK   11  A    between atoms: S_25  and  C_28
REMARK                            x       y       z     vdW  Elec       q    Type
REMARK                         _______ _______ _______ _____ _____    ______ ____
ROOT
ATOM      1  C   UNL     1      -0.272   3.620   2.845  0.00  0.00    +0.152 A 
ATOM      2  N   UNL     1       0.206   4.835   2.780  0.00  0.00    -0.133 NA
ATOM      3  N   UNL     1       0.366   5.175   1.548  0.00  0.00    -0.134 NA
ATOM      4  C   UNL     1       0.004   4.193   0.776  0.00  0.00    +0.132 A 
ATOM      5  N   UNL     1      -0.427   3.187   1.576  0.00  0.00    -0.315 N 
ATOM      6  C   UNL     1      -0.971   1.904   1.127  0.00  0.00    +0.106 C 
ATOM      7  C   UNL     1      -0.376   1.557  -0.241  0.00  0.00    -0.056 C 
ATOM      8  C   UNL     1      -1.288   3.580  -1.240  0.00  0.00    -0.071 C 
ATOM      9  C   UNL     1       0.043   4.140  -0.730  0.00  0.00    +0.058 C 
ATOM     10  N   UNL     1      -1.250   2.102  -1.305  0.00  0.00    +0.384 N 
ATOM     11  H   UNL     1      -2.201   1.740  -1.169  0.00  0.00    -0.081 HD
ENDROOT
BRANCH   1  12
ATOM     12  C   UNL     1      -0.590   2.849   4.099  0.00  0.00    +0.146 C 
BRANCH  12  14
ATOM     13  C   UNL     1       0.393   1.668   6.069  0.00  0.00    +0.009 C 
ATOM     14  C   UNL     1       0.710   2.368   4.746  0.00  0.00    +0.009 C 
ATOM     15  C   UNL     1       1.415   1.387   3.807  0.00  0.00    +0.009 C 
ENDBRANCH  12  14
BRANCH  12  16
ATOM     16  N   UNL     1      -1.310   3.716   5.036  0.00  0.00    -0.184 NA
ATOM     17  H   UNL     1      -0.817   4.307   5.626  0.00  0.00    +0.148 HD
BRANCH  16  18
ATOM     18  S   UNL     1      -2.965   3.686   5.087  0.00  0.00    +0.027 S 
ATOM     19  O   UNL     1      -3.315   4.654   6.066  0.00  0.00    -0.158 OA
ATOM     20  O   UNL     1      -3.372   3.843   3.734  0.00  0.00    -0.158 OA
ATOM     21  C   UNL     1      -3.384   2.022   5.675  0.00  0.00    +0.214 C 
ENDBRANCH  16  18
ENDBRANCH  12  16
ENDBRANCH   1  12
BRANCH  10  22
ATOM     22  C   UNL     1      -0.760   1.672  -2.627  0.00  0.00    -0.043 C 
BRANCH  22  23
ATOM     23  C   UNL     1      -1.779   2.061  -3.667  0.00  0.00    -0.064 A 
ATOM     24  C   UNL     1      -2.804   1.191  -3.988  0.00  0.00    +0.003 A 
ATOM     25  C   UNL     1      -3.742   1.546  -4.937  0.00  0.00    +0.015 A 
ATOM     26  C   UNL     1      -3.648   2.776  -5.578  0.00  0.00    +0.008 A 
ATOM     27  C   UNL     1      -2.613   3.646  -5.257  0.00  0.00    +0.015 A 
ATOM     28  C   UNL     1      -1.682   3.286  -4.303  0.00  0.00    +0.003 A 
BRANCH  26  29
ATOM     29  S   UNL     1      -4.839   3.231  -6.795  0.00  0.00    -0.129 S 
ATOM     30  C   UNL     1      -5.962   1.808  -6.864  0.00  0.00    +0.090 C 
ENDBRANCH  26  29
ENDBRANCH  22  23
ENDBRANCH  10  22
TORSDOF 7
