REMARK  Name = ZINC20530011
REMARK  8 active torsions:
REMARK  status: ('A' for Active; 'I' for Inactive)
REMARK    1  A    between atoms: C_4  and  O_7
REMARK    2  A    between atoms: O_7  and  C_8
REMARK    3  A    between atoms: C_8  and  C_9
REMARK    4  A    between atoms: C_9  and  S_10
REMARK    5  A    between atoms: S_10  and  C_11
REMARK    6  A    between atoms: C_14  and  C_17
REMARK    7  A    between atoms: N_15  and  N_16
REMARK    8  A    between atoms: C_22  and  O_23
REMARK                            x       y       z     vdW  Elec       q    Type
REMARK                         _______ _______ _______ _____ _____    ______ ____
ROOT
ATOM      1  C   UNL     1      -3.434   2.604   0.033  0.00  0.00    +0.209 A 
ATOM      2  N   UNL     1      -2.719   3.706   0.036  0.00  0.00    -0.121 NA
ATOM      3  N   UNL     1      -1.466   3.419   0.033  0.00  0.00    -0.127 NA
ATOM      4  C   UNL     1      -1.304   2.116   0.020  0.00  0.00    +0.185 A 
ATOM      5  N   UNL     1      -2.560   1.554   0.023  0.00  0.00    -0.224 N 
ENDROOT
BRANCH   4   6
ATOM      6  C   UNL     1      -0.017   1.391   0.010  0.00  0.00    +0.062 A 
ATOM      7  C   UNL     1       0.002  -0.004   0.002  0.00  0.00    +0.015 A 
ATOM      8  C   UNL     1       1.207  -0.675  -0.013  0.00  0.00    +0.001 A 
ATOM      9  C   UNL     1       2.398   0.029  -0.021  0.00  0.00    +0.004 A 
ATOM     10  C   UNL     1       2.392   1.411  -0.013  0.00  0.00    +0.046 A 
ATOM     11  C   UNL     1       1.190   2.100   0.002  0.00  0.00    +0.128 A 
BRANCH  11  12
ATOM     12  O   UNL     1       1.183   3.459   0.009  0.00  0.00    -0.506 OA
ATOM     13  H   UNL     1       2.133   4.014   0.003  0.00  0.00    +0.292 HD
ENDBRANCH  11  12
ENDBRANCH   4   6
BRANCH   5  14
ATOM     14  N   UNL     1      -2.868   0.223   0.017  0.00  0.00    -0.295 N 
ATOM     15  H   UNL     1      -2.064  -0.528   0.008  0.00  0.00    +0.163 HD
ATOM     16  H   UNL     1      -3.920  -0.098   0.021  0.00  0.00    +0.163 HD
ENDBRANCH   5  14
BRANCH   1  17
ATOM     17  S   UNL     1      -5.193   2.500   0.041  0.00  0.00    -0.081 S 
BRANCH  17  18
ATOM     18  C   UNL     1      -5.612   4.260   0.054  0.00  0.00    +0.118 C 
BRANCH  18  19
ATOM     19  C   UNL     1      -7.134   4.422   0.063  0.00  0.00    +0.240 C 
BRANCH  19  20
ATOM     20  O   UNL     1      -7.465   5.812   0.073  0.00  0.00    -0.491 OA
BRANCH  20  24
ATOM     21  C   UNL     1     -11.474   6.783   0.099  0.00  0.00    +0.000 A 
ATOM     22  C   UNL     1     -10.522   7.785   0.100  0.00  0.00    +0.004 A 
ATOM     23  C   UNL     1      -9.178   7.463   0.091  0.00  0.00    +0.045 A 
ATOM     24  C   UNL     1      -8.786   6.132   0.081  0.00  0.00    +0.121 A 
ATOM     25  C   UNL     1      -9.743   5.128   0.074  0.00  0.00    +0.045 A 
ATOM     26  C   UNL     1     -11.085   5.456   0.089  0.00  0.00    +0.004 A 
ENDBRANCH  20  24
ENDBRANCH  19  20
ENDBRANCH  18  19
ENDBRANCH  17  18
ENDBRANCH   1  17
TORSDOF 8
