REMARK  Name = ZINC09516175
REMARK  5 active torsions:
REMARK  status: ('A' for Active; 'I' for Inactive)
REMARK    1  A    between atoms: C_1  and  C_2
REMARK    2  A    between atoms: C_2  and  C_4
REMARK    3  A    between atoms: C_2  and  N_49
REMARK    4  A    between atoms: C_7  and  C_9
REMARK    5  A    between atoms: C_16  and  N_19
REMARK                            x       y       z     vdW  Elec       q    Type
REMARK                         _______ _______ _______ _____ _____    ______ ____
ROOT
ATOM      1  C   UNL     1       2.908   8.310  -2.293  0.00  0.00    -0.076 C 
ATOM      2  C   UNL     1       2.559   9.459  -3.243  0.00  0.00    +0.006 C 
ATOM      3  C   UNL     1       3.739  10.432  -3.312  0.00  0.00    +0.089 C 
ATOM      4  C   UNL     1       4.054  10.941  -1.903  0.00  0.00    +0.006 C 
ATOM      5  C   UNL     1       4.359   9.750  -0.992  0.00  0.00    -0.076 C 
ATOM      6  N   UNL     1       3.176   8.864  -0.949  0.00  0.00    +0.387 N 
ATOM      7  H   UNL     1       2.361   9.410  -0.645  0.00  0.00    -0.081 HD
ENDROOT
BRANCH   3   8
ATOM      8  N   UNL     1       3.391  11.564  -4.175  0.00  0.00    -0.289 N 
ATOM      9  C   UNL     1       4.063  11.941  -5.335  0.00  0.00    +0.070 A 
ATOM     10  C   UNL     1       5.168  11.435  -6.002  0.00  0.00    +0.028 A 
ATOM     11  C   UNL     1       5.610  12.043  -7.160  0.00  0.00    +0.002 A 
ATOM     12  C   UNL     1       4.953  13.155  -7.660  0.00  0.00    +0.002 A 
ATOM     13  C   UNL     1       3.851  13.666  -7.003  0.00  0.00    +0.028 A 
ATOM     14  C   UNL     1       3.400  13.063  -5.839  0.00  0.00    +0.067 A 
ATOM     15  N   UNL     1       2.346  13.332  -4.969  0.00  0.00    -0.306 N 
ATOM     16  H   UNL     1       1.707  14.055  -5.059  0.00  0.00    +0.170 HD
ATOM     17  C   UNL     1       2.364  12.414  -3.984  0.00  0.00    +0.328 A 
ATOM     18  O   UNL     1       1.573  12.361  -3.060  0.00  0.00    -0.247 OA
ENDBRANCH   3   8
BRANCH   6  20
ATOM     19  C   UNL     1       3.600   8.362   1.408  0.00  0.00    -0.004 C 
ATOM     20  C   UNL     1       3.403   7.765   0.013  0.00  0.00    +0.018 C 
BRANCH  20  21
ATOM     21  C   UNL     1       2.196   6.863   0.019  0.00  0.00    +0.204 A 
ATOM     22  N   UNL     1       0.950   7.245   0.033  0.00  0.00    -0.114 NA
ATOM     23  N   UNL     1       0.182   6.213   0.034  0.00  0.00    -0.107 NA
ATOM     24  C   UNL     1       0.920   5.124   0.020  0.00  0.00    +0.255 A 
ATOM     25  O   UNL     1       2.211   5.518   0.016  0.00  0.00    -0.421 OA
BRANCH  24  26
ATOM     26  C   UNL     1       0.430   3.737   0.017  0.00  0.00    +0.076 A 
ATOM     27  C   UNL     1      -0.872   3.273   0.027  0.00  0.00    +0.021 A 
ATOM     28  C   UNL     1      -1.082   1.914   0.017  0.00  0.00    +0.008 A 
ATOM     29  C   UNL     1      -0.013   1.076   0.008  0.00  0.00    +0.046 A 
ATOM     30  S   UNL     1       1.362   2.215   0.001  0.00  0.00    -0.092 S 
ENDBRANCH  24  26
ENDBRANCH  20  21
ENDBRANCH   6  20
TORSDOF 4
