REMARK  Name = ZINC45782770
REMARK  11 active torsions:
REMARK  status: ('A' for Active; 'I' for Inactive)
REMARK    1  A    between atoms: C_1  and  C_2
REMARK    2  A    between atoms: C_2  and  C_4
REMARK    3  A    between atoms: C_2  and  N_14
REMARK    4  A    between atoms: C_7  and  N_10
REMARK    5  A    between atoms: C_15  and  C_17
REMARK    6  A    between atoms: C_20  and  O_27
REMARK    7  A    between atoms: C_21  and  O_25
REMARK    8  A    between atoms: C_22  and  O_23
REMARK    9  A    between atoms: O_23  and  C_24
REMARK   10  A    between atoms: O_25  and  C_26
REMARK   11  A    between atoms: O_27  and  C_28
REMARK                            x       y       z     vdW  Elec       q    Type
REMARK                         _______ _______ _______ _____ _____    ______ ____
ROOT
ATOM      1  N   UNL     1       0.770  -0.671   1.090  0.00  0.00    -0.305 N 
ATOM      2  C   UNL     1       2.110  -0.780   0.995  0.00  0.00    +0.248 C 
ATOM      3  O   UNL     1       2.688  -0.342   0.018  0.00  0.00    -0.270 OA
ATOM      4  H   UNL     1       0.309  -1.020   1.869  0.00  0.00    +0.150 HD
ENDROOT
BRANCH   2   5
ATOM      5  C   UNL     1       2.875  -1.430   2.073  0.00  0.00    +0.082 A 
ATOM      6  C   UNL     1       2.212  -1.940   3.195  0.00  0.00    +0.020 A 
ATOM      7  C   UNL     1       2.928  -2.546   4.201  0.00  0.00    +0.050 A 
ATOM      8  C   UNL     1       4.311  -2.656   4.110  0.00  0.00    +0.165 A 
ATOM      9  C   UNL     1       4.982  -2.154   3.001  0.00  0.00    +0.204 A 
ATOM     10  C   UNL     1       4.269  -1.545   1.977  0.00  0.00    +0.177 A 
BRANCH  10  11
ATOM     11  O   UNL     1       4.919  -1.058   0.889  0.00  0.00    -0.491 OA
ATOM     12  C   UNL     1       5.363   0.299   0.952  0.00  0.00    +0.277 C 
ENDBRANCH  10  11
BRANCH   9  13
ATOM     13  O   UNL     1       6.336  -2.263   2.916  0.00  0.00    -0.488 OA
ATOM     14  C   UNL     1       6.854  -3.438   2.290  0.00  0.00    +0.277 C 
ENDBRANCH   9  13
BRANCH   8  15
ATOM     15  O   UNL     1       5.010  -3.256   5.108  0.00  0.00    -0.491 OA
ATOM     16  C   UNL     1       4.259  -3.749   6.220  0.00  0.00    +0.277 C 
ENDBRANCH   8  15
ENDBRANCH   2   5
BRANCH   1  18
ATOM     17  C   UNL     1       0.002   1.489   0.238  0.00  0.00    +0.033 C 
ATOM     18  C   UNL     1       0.010  -0.025   0.017  0.00  0.00    +0.100 C 
BRANCH  18  19
ATOM     19  C   UNL     1      -1.406  -0.541   0.024  0.00  0.00    -0.027 A 
ATOM     20  C   UNL     1      -2.059  -0.749   1.225  0.00  0.00    +0.007 A 
ATOM     21  C   UNL     1      -3.357  -1.222   1.234  0.00  0.00    +0.023 A 
ATOM     22  C   UNL     1      -4.006  -1.488   0.036  0.00  0.00    +0.035 A 
ATOM     23  C   UNL     1      -3.347  -1.279  -1.168  0.00  0.00    +0.023 A 
ATOM     24  C   UNL     1      -2.051  -0.801  -1.171  0.00  0.00    +0.007 A 
BRANCH  22  25
ATOM     25  N   UNL     1      -5.320  -1.968   0.042  0.00  0.00    -0.270 N 
ATOM     26  C   UNL     1      -6.177  -1.575   1.006  0.00  0.00    +0.301 C 
ATOM     27  O   UNL     1      -5.838  -0.730   1.812  0.00  0.00    -0.253 OA
ATOM     28  N   UNL     1      -7.408  -2.117   1.075  0.00  0.00    -0.313 N 
ATOM     29  H   UNL     1      -5.615  -2.584  -0.647  0.00  0.00    +0.156 HD
ATOM     30  H   UNL     1      -7.678  -2.791   0.432  0.00  0.00    +0.146 HD
ATOM     31  H   UNL     1      -8.025  -1.834   1.769  0.00  0.00    +0.146 HD
ENDBRANCH  22  25
ENDBRANCH  18  19
ENDBRANCH   1  18
TORSDOF 7
