REMARK  Name = ZINC08226522
REMARK  8 active torsions:
REMARK  status: ('A' for Active; 'I' for Inactive)
REMARK    1  A    between atoms: C_1  and  C_2
REMARK    2  A    between atoms: C_5  and  C_14
REMARK    3  A    between atoms: C_12  and  C_13
REMARK    4  A    between atoms: C_14  and  S_15
REMARK    5  A    between atoms: S_15  and  C_16
REMARK    6  A    between atoms: N_17  and  C_18
REMARK    7  A    between atoms: C_18  and  C_19
REMARK    8  A    between atoms: C_18  and  C_20
REMARK                            x       y       z     vdW  Elec       q    Type
REMARK                         _______ _______ _______ _____ _____    ______ ____
ROOT
ATOM      1  C   UNL     1      -5.059   1.835  -5.236  0.00  0.00    +0.044 C 
ATOM      2  C   UNL     1      -5.808   1.496  -3.973  0.00  0.00    -0.047 A 
ATOM      3  C   UNL     1      -5.208   1.688  -2.748  0.00  0.00    +0.015 A 
ATOM      4  C   UNL     1      -5.908   1.373  -1.579  0.00  0.00    +0.022 A 
ATOM      5  C   UNL     1      -5.299   1.565  -0.260  0.00  0.00    -0.020 A 
ATOM      6  C   UNL     1      -6.032   1.246   0.837  0.00  0.00    +0.097 A 
ATOM      7  C   UNL     1      -7.340   0.738   0.682  0.00  0.00    +0.338 A 
ATOM      8  O   UNL     1      -7.987   0.454   1.674  0.00  0.00    -0.245 OA
ATOM      9  O   UNL     1      -7.889   0.559  -0.529  0.00  0.00    -0.422 OA
ATOM     10  C   UNL     1      -7.213   0.857  -1.660  0.00  0.00    +0.140 A 
ATOM     11  C   UNL     1      -7.796   0.667  -2.906  0.00  0.00    +0.050 A 
ATOM     12  C   UNL     1      -7.099   0.993  -4.050  0.00  0.00    -0.044 A 
ATOM     13  C   UNL     1      -7.740   0.788  -5.398  0.00  0.00    +0.044 C 
ENDROOT
BRANCH   5  14
ATOM     14  C   UNL     1      -3.900   2.109  -0.124  0.00  0.00    +0.113 C 
BRANCH  14  15
ATOM     15  S   UNL     1      -2.718   0.738  -0.117  0.00  0.00    -0.086 S 
BRANCH  15  16
ATOM     16  C   UNL     1      -1.210   1.635   0.047  0.00  0.00    +0.147 C 
ATOM     17  N   UNL     1      -1.231   2.937   0.122  0.00  0.00    -0.261 NA
ATOM     18  N   UNL     1      -0.011   0.962   0.096  0.00  0.00    -0.338 N 
ATOM     19  H   UNL     1       0.000  -0.007   0.108  0.00  0.00    +0.144 HD
ATOM     20  H   UNL     1       0.822   1.458   0.116  0.00  0.00    +0.144 HD
BRANCH  17  21
ATOM     21  C   UNL     1       0.025   3.691   0.121  0.00  0.00    +0.102 C 
ATOM     22  C   UNL     1      -0.020   4.755  -0.978  0.00  0.00    +0.032 C 
ATOM     23  C   UNL     1       0.215   4.369   1.479  0.00  0.00    +0.032 C 
ENDBRANCH  17  21
ENDBRANCH  15  16
ENDBRANCH  14  15
ENDBRANCH   5  14
TORSDOF 4
