REMARK  Name = ZINC66311392
REMARK  5 active torsions:
REMARK  status: ('A' for Active; 'I' for Inactive)
REMARK    1  A    between atoms: C_1  and  C_2
REMARK    2  A    between atoms: C_5  and  N_23
REMARK    3  A    between atoms: C_7  and  N_8
REMARK    4  A    between atoms: C_9  and  C_11
REMARK    5  A    between atoms: C_14  and  C_16
REMARK                            x       y       z     vdW  Elec       q    Type
REMARK                         _______ _______ _______ _____ _____    ______ ____
ROOT
ATOM      1  N   UNL     1       0.025  -0.012   2.417  0.00  0.00    -0.280 N 
ATOM      2  C   UNL     1      -0.057  -0.690   3.579  0.00  0.00    +0.267 C 
ATOM      3  O   UNL     1      -0.040  -1.906   3.576  0.00  0.00    -0.268 OA
ATOM      4  H   UNL     1       0.078   0.957   2.423  0.00  0.00    +0.155 HD
ENDROOT
BRANCH   1  11
ATOM      5  C   UNL     1      -1.266   1.183   0.182  0.00  0.00    +0.045 C 
ATOM      6  C   UNL     1      -0.586  -0.158   0.085  0.00  0.00    -0.029 A 
ATOM      7  C   UNL     1      -0.573  -0.840  -1.117  0.00  0.00    +0.007 A 
ATOM      8  C   UNL     1       0.050  -2.070  -1.210  0.00  0.00    +0.028 A 
ATOM      9  C   UNL     1       0.665  -2.624  -0.095  0.00  0.00    +0.071 A 
ATOM     10  C   UNL     1       0.655  -1.943   1.112  0.00  0.00    +0.051 A 
ATOM     11  C   UNL     1       0.033  -0.705   1.202  0.00  0.00    +0.039 A 
BRANCH   9  12
ATOM     12  N   UNL     1       1.297  -3.873  -0.191  0.00  0.00    -0.200 N 
ATOM     13  C   UNL     1       1.482  -4.616  -1.304  0.00  0.00    +0.250 A 
ATOM     14  N   UNL     1       2.112  -5.704  -0.945  0.00  0.00    -0.116 NA
ATOM     15  N   UNL     1       2.338  -5.700   0.319  0.00  0.00    -0.023 NA
ATOM     16  N   UNL     1       1.879  -4.618   0.850  0.00  0.00    -0.039 NA
ENDBRANCH   9  12
ENDBRANCH   1  11
BRANCH   2  17
ATOM     17  C   UNL     1      -0.165   0.042   4.852  0.00  0.00    +0.133 A 
ATOM     18  C   UNL     1      -0.243  -0.637   6.039  0.00  0.00    +0.080 A 
ATOM     19  S   UNL     1      -0.349   0.609   7.165  0.00  0.00    -0.075 S 
ATOM     20  C   UNL     1      -0.287   1.984   6.030  0.00  0.00    +0.110 A 
ATOM     21  N   UNL     1      -0.184   1.368   4.866  0.00  0.00    -0.234 NA
BRANCH  20  22
ATOM     22  C   UNL     1      -0.333   3.434   6.317  0.00  0.00    +0.025 A 
ATOM     23  C   UNL     1      -0.276   4.357   5.272  0.00  0.00    +0.012 A 
ATOM     24  C   UNL     1      -0.319   5.708   5.547  0.00  0.00    +0.001 A 
ATOM     25  C   UNL     1      -0.419   6.150   6.854  0.00  0.00    +0.001 A 
ATOM     26  C   UNL     1      -0.475   5.241   7.895  0.00  0.00    +0.020 A 
ATOM     27  C   UNL     1      -0.439   3.885   7.634  0.00  0.00    +0.051 A 
ATOM     28 CL   UNL     1      -0.518   2.744   8.940  0.00  0.00    -0.083 Cl
ENDBRANCH  20  22
ENDBRANCH   2  17
TORSDOF 4
