REMARK  Name = ZINC39469896
REMARK  8 active torsions:
REMARK  status: ('A' for Active; 'I' for Inactive)
REMARK    1  A    between atoms: C_1  and  C_2
REMARK    2  A    between atoms: C_2  and  C_3
REMARK    3  A    between atoms: C_2  and  S_4
REMARK    4  A    between atoms: S_4  and  P_7
REMARK    5  A    between atoms: C_15  and  S_26
REMARK    6  A    between atoms: C_16  and  O_25
REMARK    7  A    between atoms: S_26  and  O_29
REMARK    8  A    between atoms: O_29  and  C_30
REMARK                            x       y       z     vdW  Elec       q    Type
REMARK                         _______ _______ _______ _____ _____    ______ ____
ROOT
ATOM      1  P   UNL     1      -0.055  -3.609  -0.887  0.00  0.00    +0.419 P 
ATOM      2  O   UNL     1       0.424  -3.770   0.504  0.00  0.00    -0.246 OA
ATOM      3  N   UNL     1      -1.623  -4.107  -1.017  0.00  0.00    -0.161 NA
ATOM      4  N   UNL     1      -1.862  -5.465  -1.093  0.00  0.00    -0.228 NA
ATOM      5  C   UNL     1      -3.312  -5.643  -1.277  0.00  0.00    +0.111 C 
ATOM      6  C   UNL     1      -3.680  -7.119  -1.330  0.00  0.00    +0.036 C 
ATOM      7  C   UNL     1      -3.321  -7.804  -0.039  0.00  0.00    +0.012 C 
ATOM      8  C   UNL     1      -3.150  -9.123  -0.022  0.00  0.00    +0.165 C 
ATOM      9  C   UNL     1      -3.327  -9.893  -1.269  0.00  0.00    +0.141 C 
ATOM     10  C   UNL     1      -3.226  -9.276  -2.449  0.00  0.00    +0.024 C 
ATOM     11  C   UNL     1      -2.923  -7.798  -2.475  0.00  0.00    +0.025 C 
ATOM     12  C   UNL     1      -1.424  -7.583  -2.263  0.00  0.00    +0.031 C 
ATOM     13  C   UNL     1      -1.099  -6.088  -2.179  0.00  0.00    +0.100 C 
ATOM     14  C   UNL     1       0.413  -5.967  -1.946  0.00  0.00    +0.191 C 
ATOM     15  O   UNL     1       0.784  -4.579  -1.889  0.00  0.00    -0.299 OA
ATOM     16  H   UNL     1      -2.353  -3.468  -1.039  0.00  0.00    +0.152 HD
ENDROOT
BRANCH   1  17
ATOM     17  S   UNL     1       0.127  -1.587  -1.497  0.00  0.00    +0.058 S 
ATOM     18  O   UNL     1      -0.563  -0.845  -0.501  0.00  0.00    -0.164 OA
ATOM     19  O   UNL     1      -0.317  -1.574  -2.847  0.00  0.00    -0.164 OA
BRANCH  17  21
ATOM     20  C   UNL     1       2.145   0.245  -1.723  0.00  0.00    +0.032 C 
ATOM     21  C   UNL     1       1.905  -1.236  -1.420  0.00  0.00    +0.136 C 
ATOM     22  C   UNL     1       2.429  -1.561  -0.020  0.00  0.00    +0.032 C 
ENDBRANCH  17  21
ENDBRANCH   1  17
BRANCH   8  23
ATOM     23  S   UNL     1      -2.714  -9.944   1.475  0.00  0.00    +0.154 S 
ATOM     24  O   UNL     1      -1.996 -11.112   1.103  0.00  0.00    -0.131 OA
ATOM     25  O   UNL     1      -2.167  -8.955   2.336  0.00  0.00    -0.131 OA
BRANCH  23  26
ATOM     26  O   UNL     1      -4.008 -10.416   2.122  0.00  0.00    -0.342 OA
BRANCH  26  27
ATOM     27  C   UNL     1      -4.572 -11.491   1.510  0.00  0.00    +0.157 A 
ATOM     28  C   UNL     1      -5.576 -11.309   0.571  0.00  0.00    +0.048 A 
ATOM     29  C   UNL     1      -6.147 -12.403  -0.050  0.00  0.00    +0.004 A 
ATOM     30  C   UNL     1      -5.718 -13.679   0.265  0.00  0.00    +0.000 A 
ATOM     31  C   UNL     1      -4.717 -13.864   1.201  0.00  0.00    +0.004 A 
ATOM     32  C   UNL     1      -4.139 -12.773   1.820  0.00  0.00    +0.048 A 
ENDBRANCH  26  27
ENDBRANCH  23  26
ENDBRANCH   8  23
BRANCH   9  33
ATOM     33  O   UNL     1      -3.593 -11.225  -1.216  0.00  0.00    -0.505 OA
ATOM     34  H   UNL     1      -3.693 -11.640  -2.083  0.00  0.00    +0.292 HD
ENDBRANCH   9  33
TORSDOF 6
