REMARK  Name = ZINC64899419
REMARK  10 active torsions:
REMARK  status: ('A' for Active; 'I' for Inactive)
REMARK    1  A    between atoms: C_1  and  C_2
REMARK    2  A    between atoms: C_2  and  C_3
REMARK    3  A    between atoms: C_5  and  C_24
REMARK    4  A    between atoms: C_7  and  C_23
REMARK    5  A    between atoms: C_8  and  C_12
REMARK    6  A    between atoms: N_14  and  N_15
REMARK    7  A    between atoms: N_18  and  C_19
REMARK    8  A    between atoms: C_19  and  C_20
REMARK    9  A    between atoms: C_20  and  O_21
REMARK   10  A    between atoms: O_21  and  C_22
REMARK                            x       y       z     vdW  Elec       q    Type
REMARK                         _______ _______ _______ _____ _____    ______ ____
ROOT
ATOM      1  C   UNL     1      -7.212  -1.931  -1.909  0.00  0.00    +0.267 C 
ATOM      2  O   UNL     1      -8.106  -2.104  -1.103  0.00  0.00    -0.268 OA
ATOM      3  N   UNL     1      -7.452  -2.091  -3.226  0.00  0.00    -0.229 N 
ATOM      4  H   UNL     1      -6.740  -1.954  -3.869  0.00  0.00    +0.173 HD
ENDROOT
BRANCH   1  10
ATOM      5  C   UNL     1      -1.470  -0.296   0.162  0.00  0.00    +0.130 A 
ATOM      6  N   UNL     1      -2.136  -0.519   1.282  0.00  0.00    -0.237 NA
ATOM      7  C   UNL     1      -3.397  -0.890   1.291  0.00  0.00    +0.050 A 
ATOM      8  C   UNL     1      -4.080  -1.060   0.060  0.00  0.00    +0.032 A 
ATOM      9  C   UNL     1      -5.410  -1.444  -0.174  0.00  0.00    -0.020 A 
ATOM     10  C   UNL     1      -5.870  -1.548  -1.449  0.00  0.00    +0.081 A 
ATOM     11  S   UNL     1      -4.444  -1.105  -2.426  0.00  0.00    -0.064 S 
ATOM     12  C   UNL     1      -3.304  -0.804  -1.101  0.00  0.00    +0.113 A 
ATOM     13  N   UNL     1      -2.046  -0.431  -1.017  0.00  0.00    -0.225 NA
ATOM     14  C   UNL     1      -6.325  -1.742   0.986  0.00  0.00    +0.046 C 
ATOM     15  C   UNL     1      -4.111  -1.132   2.596  0.00  0.00    +0.066 C 
BRANCH   5  17
ATOM     16  C   UNL     1       0.057   1.653   0.299  0.00  0.00    +0.012 C 
ATOM     17  C   UNL     1      -0.025   0.126   0.234  0.00  0.00    +0.073 C 
ENDBRANCH   5  17
ENDBRANCH   1  10
BRANCH   3  18
ATOM     18  N   UNL     1      -8.732  -2.456  -3.665  0.00  0.00    -0.218 N 
ATOM     19  C   UNL     1      -8.972  -2.616  -4.981  0.00  0.00    +0.316 C 
ATOM     20  O   UNL     1     -10.082  -2.933  -5.362  0.00  0.00    -0.251 OA
ATOM     21  N   UNL     1      -7.982  -2.425  -5.875  0.00  0.00    -0.296 N 
ATOM     22  H   UNL     1      -9.444  -2.594  -3.021  0.00  0.00    +0.174 HD
ATOM     23  H   UNL     1      -7.096  -2.172  -5.572  0.00  0.00    +0.150 HD
BRANCH  21  24
ATOM     24  C   UNL     1      -8.243  -2.599  -7.306  0.00  0.00    +0.134 C 
BRANCH  24  25
ATOM     25  C   UNL     1      -6.962  -2.325  -8.096  0.00  0.00    +0.178 C 
BRANCH  25  26
ATOM     26  O   UNL     1      -5.980  -3.310  -7.769  0.00  0.00    -0.381 OA
ATOM     27  C   UNL     1      -4.739  -3.144  -8.456  0.00  0.00    +0.194 C 
ENDBRANCH  25  26
ENDBRANCH  24  25
ENDBRANCH  21  24
ENDBRANCH   3  18
TORSDOF 6
