REMARK  Name = ZINC00875352
REMARK  6 active torsions:
REMARK  status: ('A' for Active; 'I' for Inactive)
REMARK    1  A    between atoms: C_1  and  C_2
REMARK    2  A    between atoms: N_5  and  C_7
REMARK    3  A    between atoms: C_14  and  N_31
REMARK    4  A    between atoms: C_15  and  C_29
REMARK    5  A    between atoms: C_16  and  C_18
REMARK    6  A    between atoms: C_27  and  O_28
REMARK                            x       y       z     vdW  Elec       q    Type
REMARK                         _______ _______ _______ _____ _____    ______ ____
ROOT
ATOM      1  C   UNL     1       5.633  -3.184   0.988  0.00  0.00    +0.068 C 
ATOM      2  C   UNL     1       5.039  -1.937   0.385  0.00  0.00    +0.068 A 
ATOM      3  C   UNL     1       5.693  -1.052  -0.462  0.00  0.00    +0.050 A 
ATOM      4  C   UNL     1       4.818  -0.054  -0.790  0.00  0.00    +0.230 A 
ATOM      5  N   UNL     1       3.651  -0.315  -0.161  0.00  0.00    -0.200 N 
ATOM      6  N   UNL     1       3.817  -1.499   0.574  0.00  0.00    -0.168 NA
ATOM      7  O   UNL     1       5.151   0.972  -1.611  0.00  0.00    -0.423 OA
ATOM      8  C   UNL     1       6.287   0.855  -2.328  0.00  0.00    +0.200 C 
ATOM      9  C   UNL     1       7.233  -0.081  -2.090  0.00  0.00    +0.098 C 
ATOM     10  C   UNL     1       7.107  -1.096  -0.981  0.00  0.00    +0.105 C 
ENDROOT
BRANCH  10  11
ATOM     11  C   UNL     1       8.067  -0.757   0.130  0.00  0.00    +0.015 A 
ATOM     12  C   UNL     1       9.062  -1.673   0.507  0.00  0.00    -0.010 A 
ATOM     13  C   UNL     1       9.188  -2.918  -0.134  0.00  0.00    +0.009 A 
ATOM     14  C   UNL     1      10.164  -3.781   0.258  0.00  0.00    +0.001 A 
ATOM     15  C   UNL     1      11.044  -3.451   1.287  0.00  0.00    +0.001 A 
ATOM     16  C   UNL     1      10.953  -2.255   1.930  0.00  0.00    +0.008 A 
ATOM     17  C   UNL     1       9.957  -1.337   1.554  0.00  0.00    -0.017 A 
ATOM     18  C   UNL     1       9.833  -0.093   2.196  0.00  0.00    +0.012 A 
ATOM     19  C   UNL     1       8.859   0.773   1.807  0.00  0.00    +0.046 A 
ATOM     20  C   UNL     1       7.978   0.446   0.771  0.00  0.00    +0.122 A 
BRANCH  20  21
ATOM     21  O   UNL     1       7.019   1.334   0.401  0.00  0.00    -0.506 OA
ATOM     22  H   UNL     1       6.186   1.236   0.882  0.00  0.00    +0.292 HD
ENDBRANCH  20  21
ENDBRANCH  10  11
BRANCH   5  23
ATOM     23  C   UNL     1       2.486   0.462  -0.226  0.00  0.00    +0.069 A 
ATOM     24  C   UNL     1       1.240  -0.150  -0.203  0.00  0.00    +0.028 A 
ATOM     25  C   UNL     1       0.093   0.617  -0.266  0.00  0.00    +0.002 A 
ATOM     26  C   UNL     1       0.185   1.994  -0.353  0.00  0.00    +0.000 A 
ATOM     27  C   UNL     1       1.425   2.607  -0.377  0.00  0.00    +0.002 A 
ATOM     28  C   UNL     1       2.575   1.845  -0.314  0.00  0.00    +0.028 A 
ENDBRANCH   5  23
BRANCH   8  29
ATOM     29  N   UNL     1       6.496   1.738  -3.358  0.00  0.00    -0.328 N 
ATOM     30  H   UNL     1       7.304   1.679  -3.891  0.00  0.00    +0.145 HD
ATOM     31  H   UNL     1       5.835   2.421  -3.553  0.00  0.00    +0.145 HD
ENDBRANCH   8  29
BRANCH   9  32
ATOM     32  C   UNL     1       8.398  -0.111  -2.922  0.00  0.00    +0.101 C 
ATOM     33  N   UNL     1       9.322  -0.134  -3.583  0.00  0.00    -0.191 NA
ENDBRANCH   9  32
TORSDOF 5
