REMARK  Name = ZINC50009013
REMARK  10 active torsions:
REMARK  status: ('A' for Active; 'I' for Inactive)
REMARK    1  A    between atoms: C_1  and  C_2
REMARK    2  A    between atoms: C_2  and  C_4
REMARK    3  A    between atoms: C_2  and  N_15
REMARK    4  A    between atoms: N_6  and  C_7
REMARK    5  A    between atoms: N_6  and  C_8
REMARK    6  A    between atoms: C_16  and  O_18
REMARK    7  A    between atoms: O_18  and  C_19
REMARK    8  A    between atoms: C_19  and  C_20
REMARK    9  A    between atoms: C_19  and  C_21
REMARK   10  A    between atoms: C_19  and  C_22
REMARK                            x       y       z     vdW  Elec       q    Type
REMARK                         _______ _______ _______ _____ _____    ______ ____
ROOT
ATOM      1  C   UNL     1      -0.032   1.536   0.001  0.00  0.00    +0.038 C 
ATOM      2  C   UNL     1      -0.002   0.007  -0.004  0.00  0.00    +0.159 C 
ENDROOT
BRANCH   2   3
ATOM      3  C   UNL     1      -1.412  -0.523   0.011  0.00  0.00    +0.240 C 
ATOM      4  O   UNL     1      -1.806  -1.225  -0.896  0.00  0.00    -0.273 OA
ATOM      5  N   UNL     1      -2.236  -0.217   1.033  0.00  0.00    -0.273 N 
ATOM      6  C   UNL     1      -1.727   0.530   2.186  0.00  0.00    +0.138 C 
BRANCH   5   7
ATOM      7  C   UNL     1      -3.578  -0.613   0.993  0.00  0.00    +0.039 A 
ATOM      8  C   UNL     1      -3.906  -1.962   1.020  0.00  0.00    +0.024 A 
ATOM      9  C   UNL     1      -5.231  -2.351   0.981  0.00  0.00    +0.005 A 
ATOM     10  C   UNL     1      -6.231  -1.399   0.914  0.00  0.00    +0.038 A 
ATOM     11  C   UNL     1      -5.908  -0.052   0.887  0.00  0.00    +0.125 A 
ATOM     12  C   UNL     1      -4.583   0.343   0.932  0.00  0.00    +0.061 A 
ATOM     13  F   UNL     1      -6.888   0.876   0.821  0.00  0.00    -0.205 F 
ENDBRANCH   5   7
ENDBRANCH   2   3
BRANCH   2  14
ATOM     14  N   UNL     1       0.684  -0.464  -1.210  0.00  0.00    -0.270 N 
ATOM     15  C   UNL     1       2.027  -0.567  -1.225  0.00  0.00    +0.401 C 
ATOM     16  O   UNL     1       2.670  -0.269  -0.238  0.00  0.00    -0.226 OA
ATOM     17  H   UNL     1       0.171  -0.703  -1.998  0.00  0.00    +0.153 HD
BRANCH  15  18
ATOM     18  O   UNL     1       2.658  -1.000  -2.333  0.00  0.00    -0.445 OA
BRANCH  18  19
ATOM     19  C   UNL     1       4.083  -1.084  -2.278  0.00  0.00    +0.107 C 
ATOM     20  C   UNL     1       4.494  -2.052  -1.167  0.00  0.00    +0.055 C 
ATOM     21  C   UNL     1       4.616  -1.591  -3.619  0.00  0.00    +0.055 C 
ATOM     22  C   UNL     1       4.665   0.301  -1.989  0.00  0.00    +0.055 C 
ENDBRANCH  18  19
ENDBRANCH  15  18
ENDBRANCH   2  14
TORSDOF 5
