REMARK  Name = ZINC16904228
REMARK  5 active torsions:
REMARK  status: ('A' for Active; 'I' for Inactive)
REMARK    1  A    between atoms: C_2  and  C_3
REMARK    2  A    between atoms: C_3  and  N_4
REMARK    3  A    between atoms: C_8  and  C_9
REMARK    4  A    between atoms: N_17  and  C_18
REMARK    5  A    between atoms: C_21  and  O_24
REMARK                            x       y       z     vdW  Elec       q    Type
REMARK                         _______ _______ _______ _____ _____    ______ ____
ROOT
ATOM      1  N   UNL     1       0.071  -0.165  -0.784  0.00  0.00    -0.242 N 
ATOM      2  C   UNL     1       1.203  -0.766  -0.458  0.00  0.00    +0.259 C 
ATOM      3  O   UNL     1       1.252  -1.965  -0.255  0.00  0.00    -0.269 OA
ATOM      4  C   UNL     1       2.405   0.086  -0.350  0.00  0.00    +0.078 C 
ATOM      5  C   UNL     1       3.679  -0.259  -0.036  0.00  0.00    +0.028 C 
ATOM      6  S   UNL     1       1.730   1.693  -0.745  0.00  0.00    -0.049 S 
ATOM      7  C   UNL     1       0.037   1.194  -1.010  0.00  0.00    +0.169 C 
ATOM      8  N   UNL     1      -0.991   1.941  -1.344  0.00  0.00    -0.225 NA
ENDROOT
BRANCH   5   9
ATOM      9  C   UNL     1       4.758   0.732  -0.152  0.00  0.00    -0.024 A 
ATOM     10  C   UNL     1       4.515   1.970  -0.757  0.00  0.00    +0.008 A 
ATOM     11  C   UNL     1       5.532   2.896  -0.857  0.00  0.00    +0.001 A 
ATOM     12  C   UNL     1       6.793   2.599  -0.369  0.00  0.00    +0.000 A 
ATOM     13  C   UNL     1       7.043   1.375   0.225  0.00  0.00    +0.001 A 
ATOM     14  C   UNL     1       6.036   0.440   0.338  0.00  0.00    +0.008 A 
ENDBRANCH   5   9
BRANCH   8  15
ATOM     15  C   UNL     1      -0.828   3.288  -1.527  0.00  0.00    +0.067 A 
ATOM     16  C   UNL     1      -0.091   4.036  -0.606  0.00  0.00    +0.031 A 
ATOM     17  C   UNL     1       0.075   5.392  -0.797  0.00  0.00    +0.047 A 
ATOM     18  C   UNL     1      -0.499   6.015  -1.896  0.00  0.00    +0.117 A 
ATOM     19  C   UNL     1      -1.237   5.277  -2.811  0.00  0.00    +0.047 A 
ATOM     20  C   UNL     1      -1.403   3.920  -2.631  0.00  0.00    +0.031 A 
BRANCH  18  21
ATOM     21  O   UNL     1      -0.337   7.353  -2.078  0.00  0.00    -0.507 OA
ATOM     22  H   UNL     1      -1.023   7.892  -1.662  0.00  0.00    +0.292 HD
ENDBRANCH  18  21
ENDBRANCH   8  15
BRANCH   1  23
ATOM     23  C   UNL     1      -1.158  -0.952  -0.908  0.00  0.00    +0.142 C 
BRANCH  23  25
ATOM     24  C   UNL     1      -1.448  -2.723  -2.564  0.00  0.00    +0.005 C 
ATOM     25  C   UNL     1      -1.300  -1.443  -2.326  0.00  0.00    -0.015 C 
ENDBRANCH  23  25
ENDBRANCH   1  23
TORSDOF 5
