REMARK  Name = ZINC21157965
REMARK  5 active torsions:
REMARK  status: ('A' for Active; 'I' for Inactive)
REMARK    1  A    between atoms: C_1  and  O_2
REMARK    2  A    between atoms: O_2  and  C_3
REMARK    3  A    between atoms: C_5  and  C_11
REMARK    4  A    between atoms: C_8  and  O_9
REMARK    5  A    between atoms: CA_14  and  C_21
REMARK                            x       y       z     vdW  Elec       q    Type
REMARK                         _______ _______ _______ _____ _____    ______ ____
ROOT
ATOM      1  C   UNL     1      -1.446   4.380   0.027  0.00  0.00    +0.147 C 
ATOM      2  C   UNL     1      -0.550   5.551   0.322  0.00  0.00    +0.094 C 
ATOM      3  CA  UNL     1       0.777   5.476   0.310  0.00  0.00    +0.135 C 
ATOM      4  N   UNL     1       1.450   4.277   0.023  0.00  0.00    -0.209 NA
ATOM      5  C   UNL     1       0.693   3.115   0.014  0.00  0.00    +0.250 A 
ATOM      6  N   UNL     1      -0.663   3.147   0.022  0.00  0.00    -0.222 N 
ATOM      7  N   UNL     1      -1.091   1.820   0.017  0.00  0.00    -0.156 NA
ATOM      8  C   UNL     1      -0.013   1.076   0.008  0.00  0.00    +0.247 A 
ATOM      9  N   UNL     1       1.067   1.865   0.002  0.00  0.00    -0.198 NA
ENDROOT
BRANCH   1  12
ATOM     10  C   UNL     1      -4.062   4.810  -2.666  0.00  0.00    +0.163 A 
ATOM     11  C   UNL     1      -3.468   4.630  -1.427  0.00  0.00    +0.055 A 
ATOM     12  C   UNL     1      -2.091   4.569  -1.322  0.00  0.00    -0.018 A 
ATOM     13  C   UNL     1      -1.303   4.676  -2.454  0.00  0.00    +0.025 A 
ATOM     14  C   UNL     1      -1.890   4.850  -3.694  0.00  0.00    +0.063 A 
ATOM     15  C   UNL     1      -3.270   4.918  -3.804  0.00  0.00    +0.173 A 
ATOM     16 BR   UNL     1      -0.809   4.997  -5.239  0.00  0.00    -0.046 Br
BRANCH  10  18
ATOM     17  C   UNL     1      -6.165   4.757  -1.558  0.00  0.00    +0.277 C 
ATOM     18  O   UNL     1      -5.416   4.876  -2.769  0.00  0.00    -0.491 OA
ENDBRANCH  10  18
BRANCH  15  19
ATOM     19  O   UNL     1      -3.849   5.089  -5.023  0.00  0.00    -0.503 OA
ATOM     20  H   UNL     1      -3.221   5.174  -5.923  0.00  0.00    +0.292 HD
ENDBRANCH  15  19
ENDBRANCH   1  12
BRANCH   3  21
ATOM     21  C   UNL     1       1.565   6.687   0.605  0.00  0.00    +0.401 C 
ATOM     22  O   UNL     1       1.000   7.733   0.856  0.00  0.00    -0.239 OA
ATOM     23  OXT UNL     1       2.911   6.633   0.598  0.00  0.00    -0.239 OA
ENDBRANCH   3  21
TORSDOF 4
