REMARK  Name = ZINC17088732
REMARK  6 active torsions:
REMARK  status: ('A' for Active; 'I' for Inactive)
REMARK    1  A    between atoms: C_1  and  C_2
REMARK    2  A    between atoms: C_2  and  C_3
REMARK    3  A    between atoms: C_3  and  C_4
REMARK    4  A    between atoms: C_10  and  C_11
REMARK    5  A    between atoms: C_10  and  N_12
REMARK    6  A    between atoms: N_12  and  C_13
REMARK                            x       y       z     vdW  Elec       q    Type
REMARK                         _______ _______ _______ _____ _____    ______ ____
ROOT
ATOM      1  C   UNL     1       1.318  -2.332  -1.189  0.00  0.00    +0.074 C 
ATOM      2  N   UNL     1       1.033  -3.220  -0.287  0.00  0.00    -0.174 NA
ATOM      3  N   UNL     1       1.073  -4.510  -0.815  0.00  0.00    -0.132 N 
ATOM      4  C   UNL     1       1.400  -4.466  -2.122  0.00  0.00    +0.275 C 
ATOM      5  O   UNL     1       1.521  -5.413  -2.881  0.00  0.00    -0.268 OA
ATOM      6  C   UNL     1       1.573  -3.045  -2.449  0.00  0.00    +0.078 C 
ATOM      7  C   UNL     1       1.907  -2.497  -3.676  0.00  0.00    +0.019 C 
ATOM      8  C   UNL     1       2.133  -3.394  -4.866  0.00  0.00    +0.061 C 
ATOM      9  C   UNL     1       0.815  -5.671  -0.099  0.00  0.00    +0.189 A 
ATOM     10  N   UNL     1       0.837  -6.916  -0.513  0.00  0.00    -0.223 NA
ATOM     11  C   UNL     1       0.562  -7.957   0.301  0.00  0.00    +0.080 A 
ATOM     12  C   UNL     1       0.551  -9.335  -0.017  0.00  0.00    +0.029 A 
ATOM     13  C   UNL     1       0.247 -10.271   0.936  0.00  0.00    +0.002 A 
ATOM     14  C   UNL     1      -0.058  -9.906   2.240  0.00  0.00    +0.001 A 
ATOM     15  C   UNL     1      -0.056  -8.567   2.586  0.00  0.00    +0.017 A 
ATOM     16  C   UNL     1       0.247  -7.622   1.638  0.00  0.00    +0.041 A 
ATOM     17  S   UNL     1       0.376  -5.850   1.624  0.00  0.00    -0.050 S 
ENDROOT
BRANCH   7  18
ATOM     18  N   UNL     1       2.030  -1.159  -3.807  0.00  0.00    -0.316 N 
ATOM     19  H   UNL     1       1.282  -0.580  -3.593  0.00  0.00    +0.152 HD
BRANCH  18  20
ATOM     20  C   UNL     1       3.236  -0.608  -4.250  0.00  0.00    +0.050 A 
ATOM     21  C   UNL     1       4.350  -1.420  -4.425  0.00  0.00    +0.025 A 
ATOM     22  C   UNL     1       5.540  -0.872  -4.863  0.00  0.00    +0.002 A 
ATOM     23  C   UNL     1       5.624   0.482  -5.128  0.00  0.00    +0.002 A 
ATOM     24  C   UNL     1       4.518   1.294  -4.955  0.00  0.00    +0.022 A 
ATOM     25  C   UNL     1       3.322   0.752  -4.522  0.00  0.00    +0.062 A 
ATOM     26 CL   UNL     1       1.932   1.770  -4.311  0.00  0.00    -0.082 Cl
ENDBRANCH  18  20
ENDBRANCH   7  18
BRANCH   1  27
ATOM     27  C   UNL     1       1.372  -0.840  -0.984  0.00  0.00    +0.057 C 
BRANCH  27  29
ATOM     28  C   UNL     1       1.096   1.002   0.682  0.00  0.00    +0.004 C 
ATOM     29  C   UNL     1       1.042  -0.513   0.474  0.00  0.00    +0.003 C 
ENDBRANCH  27  29
ENDBRANCH   1  27
TORSDOF 4
