REMARK  Name = ZINC63738631
REMARK  8 active torsions:
REMARK  status: ('A' for Active; 'I' for Inactive)
REMARK    1  A    between atoms: C_1  and  C_2
REMARK    2  A    between atoms: C_2  and  C_4
REMARK    3  A    between atoms: C_2  and  C_24
REMARK    4  A    between atoms: C_10  and  C_12
REMARK    5  A    between atoms: C_18  and  O_22
REMARK    6  A    between atoms: O_22  and  C_23
REMARK    7  A    between atoms: N_26  and  C_27
REMARK    8  A    between atoms: C_27  and  C_28
REMARK                            x       y       z     vdW  Elec       q    Type
REMARK                         _______ _______ _______ _____ _____    ______ ____
ROOT
ATOM      1  C   UNL     1       0.742  -0.511   1.242  0.00  0.00    +0.004 C 
ATOM      2  C   UNL     1       0.764  -2.041   1.232  0.00  0.00    +0.023 C 
ATOM      3  C   UNL     1       1.536  -2.544   2.456  0.00  0.00    +0.108 C 
ATOM      4  N   UNL     1       0.941  -1.957   3.664  0.00  0.00    -0.300 N 
ATOM      5  C   UNL     1       0.789  -0.497   3.739  0.00  0.00    +0.108 C 
ATOM      6  C   UNL     1       0.025  -0.017   2.501  0.00  0.00    +0.023 C 
ATOM      7  C   UNL     1       0.541  -2.742   4.684  0.00  0.00    +0.242 C 
ATOM      8  O   UNL     1       0.672  -3.946   4.611  0.00  0.00    -0.273 OA
ENDROOT
BRANCH   7   9
ATOM      9  C   UNL     1      -0.067  -2.124   5.917  0.00  0.00    +0.190 C 
ATOM     10  C   UNL     1       0.937  -1.221   6.597  0.00  0.00    +0.016 C 
ATOM     11  C   UNL     1       1.129  -1.734   7.832  0.00  0.00    -0.003 A 
ATOM     12  C   UNL     1       1.974  -1.319   8.960  0.00  0.00    +0.013 A 
ATOM     13  C   UNL     1       1.957  -2.049  10.096  0.00  0.00    +0.046 A 
ATOM     14  C   UNL     1       1.150  -3.195  10.226  0.00  0.00    +0.122 A 
ATOM     15  C   UNL     1       0.345  -3.637   9.226  0.00  0.00    +0.071 A 
ATOM     16  C   UNL     1       0.288  -2.943   7.992  0.00  0.00    +0.047 A 
ATOM     17  N   UNL     1      -0.399  -3.167   6.894  0.00  0.00    -0.370 N 
ATOM     18  H   UNL     1      -1.020  -3.899   6.753  0.00  0.00    +0.161 HD
BRANCH  14  19
ATOM     19  O   UNL     1       1.178  -3.883  11.394  0.00  0.00    -0.495 OA
ATOM     20  C   UNL     1       2.039  -3.385  12.420  0.00  0.00    +0.277 C 
ENDBRANCH  14  19
ENDBRANCH   7   9
BRANCH   1  22
ATOM     21  C   UNL     1      -0.019   1.526   0.010  0.00  0.00    +0.017 C 
ATOM     22  C   UNL     1       0.002  -0.004   0.002  0.00  0.00    +0.075 C 
BRANCH  22  23
ATOM     23  C   UNL     1       0.707  -0.490  -1.238  0.00  0.00    +0.216 C 
ATOM     24  O   UNL     1       1.704  -1.174  -1.140  0.00  0.00    -0.276 OA
ATOM     25  N   UNL     1       0.231  -0.164  -2.456  0.00  0.00    -0.313 N 
ATOM     26  H   UNL     1      -0.566   0.383  -2.534  0.00  0.00    +0.149 HD
BRANCH  25  27
ATOM     27  C   UNL     1       0.917  -0.637  -3.661  0.00  0.00    +0.135 C 
BRANCH  27  28
ATOM     28  C   UNL     1       0.177  -0.130  -4.901  0.00  0.00    +0.135 C 
ATOM     29  C   UNL     1       0.820  -0.721  -6.173  0.00  0.00    +0.035 C 
ATOM     30  C   UNL     1       0.769   0.479  -7.157  0.00  0.00    +0.031 C 
ATOM     31  C   UNL     1       0.982   1.666  -6.184  0.00  0.00    +0.160 C 
ATOM     32  O   UNL     1       0.284   1.296  -4.982  0.00  0.00    -0.375 OA
ENDBRANCH  27  28
ENDBRANCH  25  27
ENDBRANCH  22  23
ENDBRANCH   1  22
TORSDOF 6
