REMARK  Name = ZINC40682912
REMARK  6 active torsions:
REMARK  status: ('A' for Active; 'I' for Inactive)
REMARK    1  A    between atoms: C_10  and  O_11
REMARK    2  A    between atoms: O_11  and  C_12
REMARK    3  A    between atoms: C_13  and  N_26
REMARK    4  A    between atoms: C_14  and  N_18
REMARK    5  A    between atoms: N_18  and  C_19
REMARK    6  A    between atoms: C_19  and  C_20
REMARK                            x       y       z     vdW  Elec       q    Type
REMARK                         _______ _______ _______ _____ _____    ______ ____
ROOT
ATOM      1  C   UNL     1       5.997  -0.619   0.047  0.00  0.00    +0.246 A 
ATOM      2  C   UNL     1       7.217   0.047   0.155  0.00  0.00    +0.128 A 
ATOM      3  C   UNL     1       8.382  -0.721   0.245  0.00  0.00    +0.147 A 
ATOM      4  N   UNL     1       8.282  -2.047   0.225  0.00  0.00    -0.219 NA
ATOM      5  C   UNL     1       7.108  -2.636   0.122  0.00  0.00    +0.227 A 
ATOM      6  N   UNL     1       5.986  -1.948   0.040  0.00  0.00    -0.199 NA
ENDROOT
BRANCH   2   7
ATOM      7  N   UNL     1       7.275   1.449   0.172  0.00  0.00    -0.351 N 
ATOM      8  H   UNL     1       6.458   1.968   0.108  0.00  0.00    +0.143 HD
ATOM      9  H   UNL     1       8.131   1.898   0.247  0.00  0.00    +0.143 HD
ENDBRANCH   2   7
BRANCH   3  10
ATOM     10  N   UNL     1       9.624  -0.108   0.354  0.00  0.00    -0.325 N 
ATOM     11  H   UNL     1       9.688   0.860   0.367  0.00  0.00    +0.148 HD
BRANCH  10  12
ATOM     12  C   UNL     1      10.837  -0.923   0.448  0.00  0.00    +0.134 C 
BRANCH  12  13
ATOM     13  C   UNL     1      12.059  -0.009   0.557  0.00  0.00    +0.135 C 
ATOM     14  C   UNL     1      13.357  -0.851   0.623  0.00  0.00    +0.035 C 
ATOM     15  C   UNL     1      14.398   0.168   0.085  0.00  0.00    +0.031 C 
ATOM     16  C   UNL     1      13.575   0.959  -0.954  0.00  0.00    +0.160 C 
ATOM     17  O   UNL     1      12.189   0.793  -0.627  0.00  0.00    -0.375 OA
ENDBRANCH  12  13
ENDBRANCH  10  12
ENDBRANCH   3  10
BRANCH   1  18
ATOM     18  O   UNL     1       4.838   0.079  -0.043  0.00  0.00    -0.436 OA
BRANCH  18  28
ATOM     19  C   UNL     1       1.786  -1.790   3.477  0.00  0.00    +0.001 A 
ATOM     20  C   UNL     1       2.981  -1.073   3.525  0.00  0.00    +0.001 A 
ATOM     21  C   UNL     1       3.610  -0.683   2.383  0.00  0.00    +0.012 A 
ATOM     22  C   UNL     1       3.050  -1.006   1.136  0.00  0.00    +0.024 A 
ATOM     23  C   UNL     1       1.835  -1.734   1.086  0.00  0.00    -0.014 A 
ATOM     24  C   UNL     1       1.214  -2.119   2.287  0.00  0.00    +0.008 A 
ATOM     25  C   UNL     1       1.274  -2.058  -0.161  0.00  0.00    +0.009 A 
ATOM     26  C   UNL     1       1.898  -1.672  -1.307  0.00  0.00    +0.004 A 
ATOM     27  C   UNL     1       3.092  -0.956  -1.270  0.00  0.00    +0.047 A 
ATOM     28  C   UNL     1       3.673  -0.619  -0.068  0.00  0.00    +0.138 A 
ENDBRANCH  18  28
ENDBRANCH   1  18
TORSDOF 6
