REMARK  Name = ZINC39612301
REMARK  8 active torsions:
REMARK  status: ('A' for Active; 'I' for Inactive)
REMARK    1  A    between atoms: C_4  and  C_7
REMARK    2  A    between atoms: C_10  and  C_12
REMARK    3  A    between atoms: N_14  and  N_15
REMARK    4  A    between atoms: C_16  and  C_18
REMARK    5  A    between atoms: C_18  and  N_19
REMARK    6  A    between atoms: C_20  and  C_22
REMARK    7  A    between atoms: C_22  and  N_23
REMARK    8  A    between atoms: C_24  and  C_26
REMARK                            x       y       z     vdW  Elec       q    Type
REMARK                         _______ _______ _______ _____ _____    ______ ____
ROOT
ATOM      1  N   UNL     1       8.403  -4.514  -0.114  0.00  0.00    -0.233 N 
ATOM      2  C   UNL     1       9.746  -4.407  -0.123  0.00  0.00    +0.246 C 
ATOM      3  O   UNL     1      10.268  -3.312  -0.115  0.00  0.00    -0.273 OA
ATOM      4  H   UNL     1       7.986  -5.390  -0.120  0.00  0.00    +0.173 HD
ENDROOT
BRANCH   1   7
ATOM      5  C   UNL     1       6.265  -3.467  -0.086  0.00  0.00    +0.276 C 
ATOM      6  O   UNL     1       5.742  -4.565  -0.094  0.00  0.00    -0.267 OA
ATOM      7  N   UNL     1       7.609  -3.360  -0.096  0.00  0.00    -0.229 N 
ATOM      8  H   UNL     1       8.025  -2.484  -0.089  0.00  0.00    +0.173 HD
BRANCH   5  12
ATOM      9  C   UNL     1       3.689  -0.676  -0.038  0.00  0.00    +0.077 C 
ATOM     10  N   UNL     1       4.894  -0.155  -0.042  0.00  0.00    -0.153 NA
ATOM     11  N   UNL     1       5.836  -1.015  -0.058  0.00  0.00    -0.148 NA
ATOM     12  C   UNL     1       5.433  -2.258  -0.067  0.00  0.00    +0.132 C 
ATOM     13  C   UNL     1       3.916  -2.179  -0.048  0.00  0.00    +0.120 C 
BRANCH   9  17
ATOM     14  C   UNL     1      -0.017   1.380   0.010  0.00  0.00    +0.000 A 
ATOM     15  C   UNL     1       1.168   2.097   0.002  0.00  0.00    +0.001 A 
ATOM     16  C   UNL     1       2.377   1.436  -0.013  0.00  0.00    +0.010 A 
ATOM     17  C   UNL     1       2.406   0.036  -0.021  0.00  0.00    -0.002 A 
ATOM     18  C   UNL     1       1.203  -0.681  -0.013  0.00  0.00    +0.010 A 
ATOM     19  C   UNL     1       0.002  -0.004   0.002  0.00  0.00    +0.001 A 
ENDBRANCH   9  17
ENDBRANCH   5  12
ENDBRANCH   1   7
BRANCH   2  20
ATOM     20  C   UNL     1      10.601  -5.648  -0.142  0.00  0.00    +0.201 C 
BRANCH  20  21
ATOM     21  N   UNL     1      12.015  -5.268  -0.149  0.00  0.00    -0.305 N 
ATOM     22  C   UNL     1      12.969  -6.219  -0.166  0.00  0.00    +0.231 C 
ATOM     23  O   UNL     1      12.657  -7.391  -0.176  0.00  0.00    -0.274 OA
ATOM     24  H   UNL     1      12.265  -4.330  -0.141  0.00  0.00    +0.149 HD
BRANCH  22  25
ATOM     25  C   UNL     1      14.424  -5.827  -0.173  0.00  0.00    +0.200 C 
BRANCH  25  26
ATOM     26  N   UNL     1      15.255  -7.034  -0.192  0.00  0.00    -0.303 N 
ATOM     27  C   UNL     1      16.599  -6.928  -0.201  0.00  0.00    +0.246 C 
ATOM     28  O   UNL     1      17.121  -5.830  -0.194  0.00  0.00    -0.270 OA
ATOM     29  H   UNL     1      14.838  -7.910  -0.198  0.00  0.00    +0.150 HD
BRANCH  27  30
ATOM     30  C   UNL     1      17.436  -8.144  -0.221  0.00  0.00    +0.055 A 
ATOM     31  C   UNL     1      16.838  -9.406  -0.235  0.00  0.00    +0.016 A 
ATOM     32  C   UNL     1      17.625 -10.538  -0.253  0.00  0.00    +0.021 A 
ATOM     33  C   UNL     1      19.006 -10.426  -0.256  0.00  0.00    +0.042 A 
ATOM     34  C   UNL     1      19.606  -9.179  -0.241  0.00  0.00    +0.040 A 
ATOM     35  C   UNL     1      18.829  -8.037  -0.230  0.00  0.00    +0.054 A 
ATOM     36 CL   UNL     1      19.582  -6.473  -0.219  0.00  0.00    -0.083 Cl
ATOM     37 CL   UNL     1      19.989 -11.857  -0.278  0.00  0.00    -0.083 Cl
ENDBRANCH  27  30
ENDBRANCH  25  26
ENDBRANCH  22  25
ENDBRANCH  20  21
ENDBRANCH   2  20
TORSDOF 8
