REMARK  Name = ZINC38708372
REMARK  5 active torsions:
REMARK  status: ('A' for Active; 'I' for Inactive)
REMARK    1  A    between atoms: C_1  and  N_2
REMARK    2  A    between atoms: C_9  and  N_14
REMARK    3  A    between atoms: C_15  and  C_17
REMARK    4  A    between atoms: C_18  and  C_19
REMARK    5  A    between atoms: C_22  and  N_25
REMARK                            x       y       z     vdW  Elec       q    Type
REMARK                         _______ _______ _______ _____ _____    ______ ____
ROOT
ATOM      1  N   UNL     1       2.670  -5.123   1.429  0.00  0.00    -0.282 N 
ATOM      2  C   UNL     1       3.019  -4.673   2.651  0.00  0.00    +0.241 C 
ATOM      3  O   UNL     1       2.594  -3.606   3.051  0.00  0.00    -0.270 OA
ATOM      4  H   UNL     1       2.946  -6.007   1.140  0.00  0.00    +0.155 HD
ENDROOT
BRANCH   1  13
ATOM      5  C   UNL     1       0.473   1.561  -0.328  0.00  0.00    +0.132 C 
ATOM      6  N   UNL     1       0.360   0.105  -0.212  0.00  0.00    -0.297 N 
ATOM      7  C   UNL     1      -0.953  -0.522  -0.047  0.00  0.00    +0.148 C 
ATOM      8  C   UNL     1      -1.403  -1.183  -1.343  0.00  0.00    +0.248 C 
ATOM      9  O   UNL     1      -0.354  -1.935  -1.940  0.00  0.00    -0.490 OA
ATOM     10  C   UNL     1       0.384  -2.728  -1.121  0.00  0.00    +0.133 A 
ATOM     11  C   UNL     1       0.231  -4.104  -1.135  0.00  0.00    +0.048 A 
ATOM     12  C   UNL     1       0.989  -4.892  -0.291  0.00  0.00    +0.027 A 
ATOM     13  C   UNL     1       1.909  -4.313   0.577  0.00  0.00    +0.035 A 
ATOM     14  C   UNL     1       2.074  -2.938   0.601  0.00  0.00    +0.040 A 
ATOM     15  C   UNL     1       1.313  -2.138  -0.250  0.00  0.00    +0.080 A 
ATOM     16  C   UNL     1       1.469  -0.671  -0.264  0.00  0.00    +0.250 C 
ATOM     17  O   UNL     1       2.575  -0.168  -0.317  0.00  0.00    -0.270 OA
ENDBRANCH   1  13
BRANCH   2  18
ATOM     18  C   UNL     1       3.910  -5.470   3.496  0.00  0.00    +0.068 C 
ATOM     19  C   UNL     1       4.260  -5.021   4.718  0.00  0.00    +0.013 C 
BRANCH  19  20
ATOM     20  C   UNL     1       5.156  -5.822   5.568  0.00  0.00    -0.025 A 
ATOM     21  C   UNL     1       5.651  -7.046   5.110  0.00  0.00    +0.010 A 
ATOM     22  C   UNL     1       6.490  -7.791   5.912  0.00  0.00    +0.033 A 
ATOM     23  C   UNL     1       6.841  -7.329   7.168  0.00  0.00    +0.126 A 
ATOM     24  C   UNL     1       6.355  -6.118   7.630  0.00  0.00    +0.033 A 
ATOM     25  C   UNL     1       5.521  -5.359   6.837  0.00  0.00    +0.010 A 
BRANCH  23  26
ATOM     26  N   UNL     1       7.742  -8.135   8.023  0.00  0.00    +0.056 N 
ATOM     27  O   UNL     1       8.168  -9.193   7.624  0.00  0.00    -0.126 OA
ATOM     28  O   UNL     1       8.051  -7.734   9.121  0.00  0.00    -0.126 OA
ENDBRANCH  23  26
ENDBRANCH  19  20
ENDBRANCH   2  18
TORSDOF 4
