REMARK  Name = ZINC64518426
REMARK  5 active torsions:
REMARK  status: ('A' for Active; 'I' for Inactive)
REMARK    1  A    between atoms: C_6  and  C_11
REMARK    2  A    between atoms: N_13  and  C_14
REMARK    3  A    between atoms: C_14  and  C_15
REMARK    4  A    between atoms: C_18  and  C_21
REMARK    5  A    between atoms: N_23  and  C_24
REMARK                            x       y       z     vdW  Elec       q    Type
REMARK                         _______ _______ _______ _____ _____    ______ ____
ROOT
ATOM      1  C   UNL     1       3.356  -6.157  -2.713  0.00  0.00    +0.111 C 
ATOM      2  N   UNL     1       2.645  -6.747  -1.813  0.00  0.00    -0.182 NA
ATOM      3  N   UNL     1       2.267  -8.069  -1.888  0.00  0.00    -0.246 N 
ATOM      4  C   UNL     1       2.738  -8.790  -3.093  0.00  0.00    +0.238 C 
ATOM      5  S   UNL     1       3.650  -7.429  -3.932  0.00  0.00    -0.074 S 
ATOM      6  H   UNL     1       1.732  -8.497  -1.201  0.00  0.00    +0.170 HD
ENDROOT
BRANCH   4   7
ATOM      7  C   UNL     1       3.654  -9.930  -2.728  0.00  0.00    +0.250 C 
ATOM      8  O   UNL     1       3.283 -11.076  -2.870  0.00  0.00    -0.272 OA
ATOM      9  N   UNL     1       4.886  -9.675  -2.244  0.00  0.00    -0.283 N 
ATOM     10  H   UNL     1       5.208  -8.762  -2.193  0.00  0.00    +0.155 HD
BRANCH   9  11
ATOM     11  C   UNL     1       5.700 -10.729  -1.815  0.00  0.00    +0.035 A 
ATOM     12  C   UNL     1       6.546 -10.556  -0.727  0.00  0.00    +0.023 A 
ATOM     13  C   UNL     1       7.349 -11.598  -0.305  0.00  0.00    +0.003 A 
ATOM     14  C   UNL     1       7.311 -12.813  -0.964  0.00  0.00    +0.020 A 
ATOM     15  C   UNL     1       6.469 -12.989  -2.048  0.00  0.00    +0.043 A 
ATOM     16  C   UNL     1       5.660 -11.952  -2.472  0.00  0.00    +0.043 A 
ATOM     17 CL   UNL     1       6.425 -14.516  -2.873  0.00  0.00    -0.083 Cl
ENDBRANCH   9  11
ENDBRANCH   4   7
BRANCH   1  18
ATOM     18  C   UNL     1       3.824  -4.725  -2.736  0.00  0.00    +0.168 C 
BRANCH  18  21
ATOM     19  C   UNL     1       3.651  -2.739  -1.335  0.00  0.00    +0.240 C 
ATOM     20  O   UNL     1       4.313  -2.138  -2.155  0.00  0.00    -0.273 OA
ATOM     21  N   UNL     1       3.351  -4.038  -1.531  0.00  0.00    -0.307 N 
ATOM     22  H   UNL     1       2.822  -4.518  -0.875  0.00  0.00    +0.149 HD
BRANCH  19  28
ATOM     23  C   UNL     1       0.016   1.378  -0.070  0.00  0.00    +0.001 A 
ATOM     24  C   UNL     1       1.200   2.128  -0.082  0.00  0.00    +0.002 A 
ATOM     25  C   UNL     1       2.424   1.558  -0.093  0.00  0.00    +0.026 A 
ATOM     26  C   UNL     1       2.557   0.142  -0.092  0.00  0.00    +0.043 A 
ATOM     27  N   UNL     1       3.613  -0.635  -0.101  0.00  0.00    -0.370 N 
ATOM     28  C   UNL     1       3.165  -2.032  -0.095  0.00  0.00    +0.190 C 
ATOM     29  C   UNL     1       1.654  -1.983  -0.081  0.00  0.00    +0.016 C 
ATOM     30  C   UNL     1       1.321  -0.672  -0.079  0.00  0.00    -0.004 A 
ATOM     31  C   UNL     1       0.030   0.026  -0.068  0.00  0.00    +0.010 A 
ATOM     32  H   UNL     1       4.536  -0.336  -0.111  0.00  0.00    +0.161 HD
ENDBRANCH  19  28
ENDBRANCH  18  21
ENDBRANCH   1  18
TORSDOF 5
