REMARK  Name = ZINC02229975
REMARK  8 active torsions:
REMARK  status: ('A' for Active; 'I' for Inactive)
REMARK    1  A    between atoms: C_1  and  N_2
REMARK    2  A    between atoms: C_6  and  C_13
REMARK    3  A    between atoms: N_9  and  C_12
REMARK    4  A    between atoms: C_13  and  N_43
REMARK    5  A    between atoms: C_14  and  C_15
REMARK    6  A    between atoms: C_14  and  N_43
REMARK    7  A    between atoms: C_15  and  N_16
REMARK    8  A    between atoms: C_17  and  C_19
REMARK                            x       y       z     vdW  Elec       q    Type
REMARK                         _______ _______ _______ _____ _____    ______ ____
ROOT
ATOM      1  N   UNL     1      -0.015   0.998   0.015  0.00  0.00    +0.383 N 
ATOM      2  H   UNL     1      -0.475   1.261   0.894  0.00  0.00    -0.085 HD
ATOM      3  H   UNL     1       0.032  -0.025  -0.054  0.00  0.00    -0.085 HD
ENDROOT
BRANCH   1   4
ATOM      4  C   UNL     1       1.353   1.550  -0.003  0.00  0.00    -0.047 C 
BRANCH   4  10
ATOM      5  C   UNL     1       4.606  -0.430   5.594  0.00  0.00    +0.154 C 
ATOM      6  N   UNL     1       4.331  -0.762   4.193  0.00  0.00    -0.295 N 
ATOM      7  C   UNL     1       3.540  -0.019   3.320  0.00  0.00    +0.070 A 
ATOM      8  C   UNL     1       2.819   1.157   3.455  0.00  0.00    +0.028 A 
ATOM      9  C   UNL     1       2.119   1.663   2.377  0.00  0.00    +0.004 A 
ATOM     10  C   UNL     1       2.125   0.993   1.166  0.00  0.00    -0.062 A 
ATOM     11  C   UNL     1       2.839  -0.180   1.021  0.00  0.00    +0.029 A 
ATOM     12  C   UNL     1       3.550  -0.692   2.096  0.00  0.00    +0.070 A 
ATOM     13  N   UNL     1       4.347  -1.822   2.264  0.00  0.00    -0.295 N 
ATOM     14  C   UNL     1       4.801  -1.836   3.532  0.00  0.00    +0.330 A 
ATOM     15  O   UNL     1       5.526  -2.690   4.007  0.00  0.00    -0.246 OA
ATOM     16  C   UNL     1       4.641  -2.824   1.237  0.00  0.00    +0.154 C 
ENDBRANCH   4  10
ENDBRANCH   1   4
BRANCH   1  17
ATOM     17  C   UNL     1      -0.795   1.527  -1.120  0.00  0.00    -0.063 C 
BRANCH  17  18
ATOM     18  C   UNL     1      -2.207   0.938  -1.076  0.00  0.00    +0.085 C 
BRANCH  18  19
ATOM     19  N   UNL     1      -2.989   1.459  -2.200  0.00  0.00    -0.312 N 
ATOM     20  C   UNL     1      -4.270   1.075  -2.365  0.00  0.00    +0.269 C 
ATOM     21  O   UNL     1      -4.777   0.297  -1.581  0.00  0.00    -0.268 OA
ATOM     22  H   UNL     1      -2.584   2.079  -2.826  0.00  0.00    +0.149 HD
BRANCH  20  23
ATOM     23  C   UNL     1      -5.061   1.601  -3.501  0.00  0.00    +0.209 A 
ATOM     24  C   UNL     1      -6.467   1.314  -3.864  0.00  0.00    +0.192 A 
ATOM     25  N   UNL     1      -6.638   2.043  -4.943  0.00  0.00    -0.033 NA
ATOM     26  O   UNL     1      -5.615   2.633  -5.196  0.00  0.00    -0.240 OA
ATOM     27  N   UNL     1      -4.691   2.446  -4.440  0.00  0.00    -0.042 NA
ATOM     28  N   UNL     1      -7.377   0.484  -3.224  0.00  0.00    -0.339 N 
ATOM     29  H   UNL     1      -7.113  -0.000  -2.425  0.00  0.00    +0.144 HD
ATOM     30  H   UNL     1      -8.276   0.388  -3.574  0.00  0.00    +0.144 HD
ENDBRANCH  20  23
ENDBRANCH  18  19
ENDBRANCH  17  18
ENDBRANCH   1  17
TORSDOF 6
