REMARK  Name = ZINC19792419
REMARK  5 active torsions:
REMARK  status: ('A' for Active; 'I' for Inactive)
REMARK    1  A    between atoms: C_5  and  N_7
REMARK    2  A    between atoms: N_10  and  C_13
REMARK    3  A    between atoms: N_17  and  C_22
REMARK    4  A    between atoms: C_19  and  O_21
REMARK    5  A    between atoms: C_22  and  C_23
REMARK                            x       y       z     vdW  Elec       q    Type
REMARK                         _______ _______ _______ _____ _____    ______ ____
ROOT
ATOM      1  C   UNL     1      -0.018   0.960   0.022  0.00  0.00    +0.082 C 
ATOM      2  C   UNL     1      -0.742   1.433   1.285  0.00  0.00    +0.003 C 
ATOM      3  C   UNL     1       0.066   1.016   2.517  0.00  0.00    -0.077 C 
ATOM      4  N   UNL     1       1.407   1.611   2.448  0.00  0.00    +0.382 N 
ATOM      5  C   UNL     1       2.139   1.135   1.268  0.00  0.00    -0.046 C 
ATOM      6  C   UNL     1       1.393   1.555  -0.001  0.00  0.00    +0.115 C 
ATOM      7  H   UNL     1       1.285   2.700   2.351  0.00  0.00    -0.082 HD
ENDROOT
BRANCH   1  11
ATOM      8  N   UNL     1      -2.912   2.654  -2.547  0.00  0.00    -0.325 N 
ATOM      9  C   UNL     1      -2.782   1.190  -2.526  0.00  0.00    +0.120 C 
ATOM     10  C   UNL     1      -2.077   0.762  -1.237  0.00  0.00    +0.103 C 
ATOM     11  N   UNL     1      -0.758   1.406  -1.166  0.00  0.00    -0.294 NA
ATOM     12  C   UNL     1      -0.887   2.869  -1.187  0.00  0.00    +0.103 C 
ATOM     13  C   UNL     1      -1.593   3.298  -2.476  0.00  0.00    +0.120 C 
BRANCH   8  18
ATOM     14  C   UNL     1      -5.612   3.069  -5.007  0.00  0.00    +0.002 A 
ATOM     15  C   UNL     1      -5.011   3.919  -5.916  0.00  0.00    +0.003 A 
ATOM     16  C   UNL     1      -3.714   4.352  -5.711  0.00  0.00    +0.040 A 
ATOM     17  C   UNL     1      -3.016   3.939  -4.591  0.00  0.00    +0.144 A 
ATOM     18  C   UNL     1      -3.616   3.079  -3.678  0.00  0.00    +0.065 A 
ATOM     19  C   UNL     1      -4.919   2.647  -3.889  0.00  0.00    +0.026 A 
ATOM     20  F   UNL     1      -1.750   4.366  -4.387  0.00  0.00    -0.204 F 
ENDBRANCH   8  18
ENDBRANCH   1  11
BRANCH   6  21
ATOM     21  O   UNL     1       2.095   1.073  -1.148  0.00  0.00    -0.392 OA
ATOM     22  H   UNL     1       3.131   1.395  -1.334  0.00  0.00    +0.210 HD
ENDBRANCH   6  21
BRANCH   4  23
ATOM     23  C   UNL     1       2.163   1.347   3.679  0.00  0.00    -0.075 C 
BRANCH  23  24
ATOM     24  C   UNL     1       1.330   1.770   4.891  0.00  0.00    -0.028 C 
ATOM     25  C   UNL     1       1.056   3.274   4.821  0.00  0.00    +0.002 C 
ATOM     26  C   UNL     1       0.222   3.697   6.033  0.00  0.00    +0.000 C 
ATOM     27  C   UNL     1       0.990   3.377   7.317  0.00  0.00    +0.000 C 
ATOM     28  C   UNL     1       1.264   1.874   7.386  0.00  0.00    +0.000 C 
ATOM     29  C   UNL     1       2.098   1.451   6.175  0.00  0.00    +0.002 C 
ENDBRANCH  23  24
ENDBRANCH   4  23
TORSDOF 5
