REMARK  Name = ZINC66930057
REMARK  7 active torsions:
REMARK  status: ('A' for Active; 'I' for Inactive)
REMARK    1  A    between atoms: C_10  and  C_11
REMARK    2  A    between atoms: C_10  and  O_27
REMARK    3  A    between atoms: C_11  and  N_12
REMARK    4  A    between atoms: C_13  and  C_15
REMARK    5  A    between atoms: C_18  and  S_20
REMARK    6  A    between atoms: S_20  and  N_23
REMARK    7  A    between atoms: N_23  and  C_24
REMARK                            x       y       z     vdW  Elec       q    Type
REMARK                         _______ _______ _______ _____ _____    ______ ____
ROOT
ATOM      1  N   UNL     1       4.733   1.477  -0.622  0.00  0.00    -0.306 N 
ATOM      2  C   UNL     1       5.418   2.343  -1.394  0.00  0.00    +0.280 C 
ATOM      3  O   UNL     1       5.985   1.947  -2.396  0.00  0.00    -0.267 OA
ATOM      4  H   UNL     1       4.281   1.792   0.177  0.00  0.00    +0.149 HD
ENDROOT
BRANCH   2   5
ATOM      5  C   UNL     1       5.480   3.762  -1.028  0.00  0.00    +0.192 A 
ATOM      6  C   UNL     1       6.131   4.741  -1.722  0.00  0.00    +0.057 A 
ATOM      7  C   UNL     1       5.928   5.938  -1.017  0.00  0.00    +0.072 A 
ATOM      8  C   UNL     1       5.172   5.640   0.063  0.00  0.00    +0.258 A 
ATOM      9  O   UNL     1       4.900   4.329   0.049  0.00  0.00    -0.432 OA
BRANCH   8  10
ATOM     10  S   UNL     1       4.628   6.788   1.283  0.00  0.00    +0.092 S 
ATOM     11  O   UNL     1       4.376   6.038   2.463  0.00  0.00    -0.150 OA
ATOM     12  O   UNL     1       5.541   7.877   1.252  0.00  0.00    -0.150 OA
BRANCH  10  13
ATOM     13  N   UNL     1       3.167   7.383   0.780  0.00  0.00    -0.184 NA
ATOM     14  H   UNL     1       3.077   8.322   0.553  0.00  0.00    +0.148 HD
BRANCH  13  15
ATOM     15  C   UNL     1       2.009   6.490   0.677  0.00  0.00    +0.077 C 
ATOM     16  C   UNL     1       0.997   6.771  -0.436  0.00  0.00    +0.022 C 
ATOM     17  C   UNL     1       0.636   7.072   1.020  0.00  0.00    +0.022 C 
ENDBRANCH  13  15
ENDBRANCH  10  13
ENDBRANCH   8  10
ENDBRANCH   2   5
BRANCH   1  18
ATOM     18  C   UNL     1       4.671   0.060  -0.987  0.00  0.00    +0.144 C 
BRANCH  18  28
ATOM     19  C   UNL     1       3.635  -4.797  -1.159  0.00  0.00    +0.000 A 
ATOM     20  C   UNL     1       3.604  -3.797  -2.113  0.00  0.00    +0.000 A 
ATOM     21  C   UNL     1       3.643  -2.475  -1.720  0.00  0.00    +0.007 A 
ATOM     22  C   UNL     1       3.714  -2.140  -0.374  0.00  0.00    -0.011 A 
ATOM     23  C   UNL     1       3.749  -3.136   0.575  0.00  0.00    -0.041 A 
ATOM     24  C   UNL     1       3.706  -4.467   0.178  0.00  0.00    +0.004 A 
ATOM     25  C   UNL     1       3.843  -2.847   2.051  0.00  0.00    +0.035 C 
ATOM     26  C   UNL     1       3.451  -1.399   2.340  0.00  0.00    +0.008 C 
ATOM     27  C   UNL     1       4.257  -0.485   1.410  0.00  0.00    +0.041 C 
ATOM     28  C   UNL     1       3.746  -0.677  -0.016  0.00  0.00    +0.107 C 
BRANCH  28  29
ATOM     29  O   UNL     1       2.427  -0.138  -0.121  0.00  0.00    -0.382 OA
ATOM     30  H   UNL     1       2.042  -0.209  -1.006  0.00  0.00    +0.211 HD
ENDBRANCH  28  29
ENDBRANCH  18  28
ENDBRANCH   1  18
TORSDOF 7
