REMARK  Name = ZINC10083429
REMARK  7 active torsions:
REMARK  status: ('A' for Active; 'I' for Inactive)
REMARK    1  A    between atoms: C_1  and  C_2
REMARK    2  A    between atoms: C_5  and  C_8
REMARK    3  A    between atoms: C_11  and  S_14
REMARK    4  A    between atoms: N_12  and  N_13
REMARK    5  A    between atoms: S_14  and  C_15
REMARK    6  A    between atoms: C_15  and  C_17
REMARK    7  A    between atoms: C_15  and  C_23
REMARK                            x       y       z     vdW  Elec       q    Type
REMARK                         _______ _______ _______ _____ _____    ______ ____
ROOT
ATOM      1  C   UNL     1      -0.523  -2.383   0.698  0.00  0.00    +0.182 A 
ATOM      2  N   UNL     1       0.669  -2.180   0.188  0.00  0.00    -0.127 NA
ATOM      3  N   UNL     1       1.002  -0.946   0.328  0.00  0.00    -0.121 NA
ATOM      4  C   UNL     1       0.045  -0.288   0.943  0.00  0.00    +0.210 A 
ATOM      5  N   UNL     1      -0.960  -1.178   1.197  0.00  0.00    -0.224 N 
ENDROOT
BRANCH   1  10
ATOM      6  C   UNL     1      -3.385  -7.375   0.820  0.00  0.00    +0.044 C 
ATOM      7  C   UNL     1      -2.635  -6.067   0.788  0.00  0.00    -0.050 A 
ATOM      8  C   UNL     1      -3.308  -4.882   1.026  0.00  0.00    +0.004 A 
ATOM      9  C   UNL     1      -2.628  -3.682   0.998  0.00  0.00    +0.012 A 
ATOM     10  C   UNL     1      -1.258  -3.666   0.729  0.00  0.00    +0.021 A 
ATOM     11  C   UNL     1      -0.587  -4.865   0.485  0.00  0.00    +0.012 A 
ATOM     12  C   UNL     1      -1.278  -6.058   0.521  0.00  0.00    +0.004 A 
ENDBRANCH   1  10
BRANCH   5  13
ATOM     13  N   UNL     1      -2.150  -0.924   1.817  0.00  0.00    -0.295 N 
ATOM     14  H   UNL     1      -2.871  -0.711   1.144  0.00  0.00    +0.163 HD
ATOM     15  H   UNL     1      -2.423  -1.696   2.406  0.00  0.00    +0.163 HD
ENDBRANCH   5  13
BRANCH   4  16
ATOM     16  S   UNL     1       0.053   1.425   1.356  0.00  0.00    -0.067 S 
BRANCH  16  17
ATOM     17  C   UNL     1       1.677   1.896   0.710  0.00  0.00    +0.170 C 
BRANCH  17  18
ATOM     18  C   UNL     1       1.962   3.332   1.067  0.00  0.00    -0.025 A 
ATOM     19  C   UNL     1       3.159   3.671   1.669  0.00  0.00    +0.005 A 
ATOM     20  C   UNL     1       3.422   4.989   1.992  0.00  0.00    +0.000 A 
ATOM     21  C   UNL     1       2.484   5.967   1.722  0.00  0.00    +0.000 A 
ATOM     22  C   UNL     1       1.284   5.628   1.124  0.00  0.00    +0.000 A 
ATOM     23  C   UNL     1       1.023   4.311   0.797  0.00  0.00    +0.005 A 
ENDBRANCH  17  18
BRANCH  17  24
ATOM     24  C   UNL     1       1.686   1.739  -0.788  0.00  0.00    +0.228 C 
ATOM     25  O   UNL     1       2.439   0.945  -1.311  0.00  0.00    -0.274 OA
ATOM     26  N   UNL     1       0.856   2.481  -1.549  0.00  0.00    -0.328 N 
ATOM     27  H   UNL     1       0.302   3.163  -1.138  0.00  0.00    +0.145 HD
ATOM     28  H   UNL     1       0.815   2.334  -2.507  0.00  0.00    +0.145 HD
ENDBRANCH  17  24
ENDBRANCH  16  17
ENDBRANCH   4  16
TORSDOF 6
