REMARK  Name = ZINC52298570
REMARK  4 active torsions:
REMARK  status: ('A' for Active; 'I' for Inactive)
REMARK    1  A    between atoms: C_1  and  C_2
REMARK    2  A    between atoms: C_5  and  N_7
REMARK    3  A    between atoms: C_8  and  C_12
REMARK    4  A    between atoms: C_17  and  N_18
REMARK                            x       y       z     vdW  Elec       q    Type
REMARK                         _______ _______ _______ _____ _____    ______ ____
ROOT
ATOM      1  C   UNL     1      -0.147  -0.532   4.168  0.00  0.00    +0.043 A 
ATOM      2  C   UNL     1      -1.356  -0.742   3.506  0.00  0.00    +0.033 A 
ATOM      3  C   UNL     1      -2.370  -1.443   4.127  0.00  0.00    +0.042 A 
ATOM      4  C   UNL     1      -2.191  -1.940   5.408  0.00  0.00    +0.022 A 
ATOM      5  C   UNL     1      -0.999  -1.739   6.075  0.00  0.00    +0.025 A 
ATOM      6  C   UNL     1       0.032  -1.041   5.462  0.00  0.00    +0.035 A 
ATOM      7 CL   UNL     1      -3.874  -1.703   3.301  0.00  0.00    -0.084 Cl
ENDROOT
BRANCH   1   9
ATOM      8  N   UNL     1       1.398   0.033   2.244  0.00  0.00    -0.222 N 
ATOM      9  C   UNL     1       0.942   0.219   3.508  0.00  0.00    +0.184 A 
ATOM     10  N   UNL     1       1.652   1.194   4.035  0.00  0.00    -0.108 NA
ATOM     11  N   UNL     1       2.517   1.628   3.190  0.00  0.00    -0.023 NA
ATOM     12  N   UNL     1       2.432   0.973   2.084  0.00  0.00    -0.043 NA
BRANCH   8  16
ATOM     13  C   UNL     1       0.125   1.120  -0.140  0.00  0.00    +0.010 C 
ATOM     14  C   UNL     1       0.248  -0.399  -0.003  0.00  0.00    +0.013 C 
ATOM     15  C   UNL     1       1.651  -1.004  -0.084  0.00  0.00    +0.032 C 
ATOM     16  C   UNL     1       0.921  -0.941   1.260  0.00  0.00    +0.114 C 
ENDBRANCH   8  16
ENDBRANCH   1   9
BRANCH   6  17
ATOM     17  N   UNL     1       1.238  -0.843   6.131  0.00  0.00    -0.357 N 
ATOM     18  H   UNL     1       1.956  -0.351   5.702  0.00  0.00    +0.142 HD
ATOM     19  H   UNL     1       1.360  -1.196   7.026  0.00  0.00    +0.142 HD
ENDBRANCH   6  17
TORSDOF 3
