REMARK  Name = ZINC42180429
REMARK  9 active torsions:
REMARK  status: ('A' for Active; 'I' for Inactive)
REMARK    1  A    between atoms: C_1  and  C_2
REMARK    2  A    between atoms: C_5  and  N_17
REMARK    3  A    between atoms: C_7  and  O_8
REMARK    4  A    between atoms: O_8  and  C_9
REMARK    5  A    between atoms: C_9  and  C_10
REMARK    6  A    between atoms: N_12  and  C_13
REMARK    7  A    between atoms: C_13  and  C_14
REMARK    8  A    between atoms: C_14  and  C_15
REMARK    9  A    between atoms: C_14  and  C_16
REMARK                            x       y       z     vdW  Elec       q    Type
REMARK                         _______ _______ _______ _____ _____    ______ ____
ROOT
ATOM      1  C   UNL     1      -0.018   1.503   0.010  0.00  0.00    +0.047 C 
ATOM      2  C   UNL     1       0.002  -0.004   0.002  0.00  0.00    -0.009 A 
ATOM      3  C   UNL     1       0.006  -0.689  -1.198  0.00  0.00    +0.009 A 
ATOM      4  C   UNL     1       0.025  -2.071  -1.206  0.00  0.00    +0.033 A 
ATOM      5  C   UNL     1       0.040  -2.772  -0.014  0.00  0.00    +0.130 A 
ATOM      6  C   UNL     1       0.036  -2.092   1.188  0.00  0.00    +0.078 A 
ATOM      7  C   UNL     1       0.023  -0.705   1.199  0.00  0.00    +0.126 A 
ENDROOT
BRANCH   5   8
ATOM      8  N   UNL     1       0.059  -4.252  -0.027  0.00  0.00    +0.057 N 
ATOM      9  O   UNL     1       0.062  -4.848  -1.079  0.00  0.00    -0.126 OA
ATOM     10  O   UNL     1       0.072  -4.865   1.015  0.00  0.00    -0.126 OA
ENDBRANCH   5   8
BRANCH   7  11
ATOM     11  O   UNL     1       0.025  -0.033   2.381  0.00  0.00    -0.482 OA
BRANCH  11  12
ATOM     12  C   UNL     1       0.047  -0.820   3.574  0.00  0.00    +0.324 C 
BRANCH  12  13
ATOM     13  C   UNL     1       0.045   0.090   4.775  0.00  0.00    +0.251 C 
ATOM     14  O   UNL     1       0.027   1.293   4.625  0.00  0.00    -0.272 OA
ATOM     15  N   UNL     1       0.064  -0.433   6.017  0.00  0.00    -0.312 N 
ATOM     16  H   UNL     1       0.078  -1.396   6.137  0.00  0.00    +0.149 HD
BRANCH  15  17
ATOM     17  C   UNL     1       0.062   0.451   7.185  0.00  0.00    +0.107 C 
BRANCH  17  18
ATOM     18  C   UNL     1       0.086  -0.391   8.462  0.00  0.00    -0.000 C 
ATOM     19  C   UNL     1       1.405  -1.162   8.540  0.00  0.00    +0.009 C 
ATOM     20  C   UNL     1      -0.041   0.526   9.680  0.00  0.00    +0.009 C 
ENDBRANCH  17  18
ENDBRANCH  15  17
ENDBRANCH  12  13
ENDBRANCH  11  12
ENDBRANCH   7  11
TORSDOF 6
