REMARK  Name = ZINC39280330
REMARK  8 active torsions:
REMARK  status: ('A' for Active; 'I' for Inactive)
REMARK    1  A    between atoms: C_1  and  C_2
REMARK    2  A    between atoms: C_2  and  O_3
REMARK    3  A    between atoms: O_3  and  C_4
REMARK    4  A    between atoms: C_7  and  N_10
REMARK    5  A    between atoms: C_19  and  S_20
REMARK    6  A    between atoms: S_20  and  C_21
REMARK    7  A    between atoms: C_21  and  C_22
REMARK    8  A    between atoms: N_24  and  N_25
REMARK                            x       y       z     vdW  Elec       q    Type
REMARK                         _______ _______ _______ _____ _____    ______ ____
ROOT
ATOM      1  N   UNL     1       1.103  -5.939  -1.834  0.00  0.00    -0.255 N 
ATOM      2  C   UNL     1       1.643  -6.427  -2.966  0.00  0.00    +0.268 A 
ATOM      3  O   UNL     1       2.034  -5.672  -3.840  0.00  0.00    -0.267 OA
ATOM      4  C   UNL     1       1.752  -7.844  -3.130  0.00  0.00    +0.076 A 
ATOM      5  C   UNL     1       2.299  -8.586  -4.268  0.00  0.00    -0.023 A 
ATOM      6  C   UNL     1       2.290  -9.931  -4.182  0.00  0.00    -0.004 A 
ATOM      7  S   UNL     1       1.564 -10.288  -2.605  0.00  0.00    -0.073 S 
ATOM      8  C   UNL     1       1.272  -8.623  -2.064  0.00  0.00    +0.117 A 
ATOM      9  N   UNL     1       0.749  -8.079  -0.971  0.00  0.00    -0.215 NA
ATOM     10  C   UNL     1       0.665  -6.771  -0.842  0.00  0.00    +0.178 A 
ATOM     11  C   UNL     1       2.787 -10.909  -5.203  0.00  0.00    +0.043 C 
ATOM     12  C   UNL     1       2.973 -10.167  -6.534  0.00  0.00    +0.005 C 
ATOM     13  C   UNL     1       3.744  -8.870  -6.269  0.00  0.00    +0.005 C 
ATOM     14  C   UNL     1       2.857  -7.887  -5.504  0.00  0.00    +0.037 C 
ENDROOT
BRANCH   1  18
ATOM     15  C   UNL     1       0.775  -1.811  -1.336  0.00  0.00    +0.121 A 
ATOM     16  C   UNL     1      -0.260  -2.522  -1.924  0.00  0.00    +0.047 A 
ATOM     17  C   UNL     1      -0.152  -3.889  -2.089  0.00  0.00    +0.030 A 
ATOM     18  C   UNL     1       0.993  -4.551  -1.667  0.00  0.00    +0.052 A 
ATOM     19  C   UNL     1       2.029  -3.838  -1.079  0.00  0.00    +0.030 A 
ATOM     20  C   UNL     1       1.922  -2.471  -0.919  0.00  0.00    +0.047 A 
BRANCH  15  21
ATOM     21  O   UNL     1       0.668  -0.465  -1.173  0.00  0.00    -0.492 OA
BRANCH  21  23
ATOM     22  C   UNL     1      -0.478   1.654  -1.360  0.00  0.00    +0.048 C 
ATOM     23  C   UNL     1      -0.540   0.149  -1.625  0.00  0.00    +0.225 C 
ENDBRANCH  21  23
ENDBRANCH  15  21
ENDBRANCH   1  18
BRANCH  10  24
ATOM     24  S   UNL     1      -0.028  -6.084   0.625  0.00  0.00    -0.078 S 
BRANCH  24  25
ATOM     25  C   UNL     1      -0.456  -7.534   1.628  0.00  0.00    +0.174 C 
BRANCH  25  26
ATOM     26  C   UNL     1      -1.067  -7.081   2.930  0.00  0.00    +0.237 C 
ATOM     27  O   UNL     1      -1.200  -5.898   3.158  0.00  0.00    -0.274 OA
ATOM     28  N   UNL     1      -1.465  -7.992   3.840  0.00  0.00    -0.253 N 
ATOM     29  H   UNL     1      -1.359  -8.939   3.657  0.00  0.00    +0.169 HD
BRANCH  28  30
ATOM     30  N   UNL     1      -2.019  -7.582   5.019  0.00  0.00    -0.254 NA
ATOM     31  H   UNL     1      -2.818  -6.989   4.857  0.00  0.00    +0.140 HD
ATOM     32  H   UNL     1      -2.266  -8.372   5.596  0.00  0.00    +0.140 HD
ENDBRANCH  28  30
ENDBRANCH  25  26
ENDBRANCH  24  25
ENDBRANCH  10  24
TORSDOF 7
