REMARK  Name = ZINC56735087
REMARK  9 active torsions:
REMARK  status: ('A' for Active; 'I' for Inactive)
REMARK    1  A    between atoms: C_1  and  N_2
REMARK    2  A    between atoms: N_2  and  C_3
REMARK    3  A    between atoms: N_2  and  C_4
REMARK    4  A    between atoms: C_4  and  C_6
REMARK    5  A    between atoms: C_4  and  C_23
REMARK    6  A    between atoms: C_6  and  N_7
REMARK    7  A    between atoms: N_10  and  C_11
REMARK    8  A    between atoms: C_16  and  C_17
REMARK    9  A    between atoms: C_17  and  N_18
REMARK                            x       y       z     vdW  Elec       q    Type
REMARK                         _______ _______ _______ _____ _____    ______ ____
ROOT
ATOM      1  N   UNL     1       1.872   1.583  -0.924  0.00  0.00    -0.300 N 
ATOM      2  C   UNL     1       2.990   2.332  -0.840  0.00  0.00    +0.304 C 
ATOM      3  O   UNL     1       4.077   1.825  -1.039  0.00  0.00    -0.253 OA
ATOM      4  N   UNL     1       2.902   3.642  -0.535  0.00  0.00    -0.269 N 
ATOM      5  H   UNL     1       1.005   1.987  -0.766  0.00  0.00    +0.150 HD
ATOM      6  H   UNL     1       2.042   4.032  -0.314  0.00  0.00    +0.156 HD
ENDROOT
BRANCH   4   7
ATOM      7  C   UNL     1       4.052   4.439  -0.539  0.00  0.00    +0.040 A 
ATOM      8  C   UNL     1       5.297   3.867  -0.311  0.00  0.00    +0.024 A 
ATOM      9  C   UNL     1       6.430   4.656  -0.316  0.00  0.00    +0.002 A 
ATOM     10  C   UNL     1       6.326   6.016  -0.546  0.00  0.00    +0.000 A 
ATOM     11  C   UNL     1       5.088   6.589  -0.772  0.00  0.00    +0.007 A 
ATOM     12  C   UNL     1       3.952   5.804  -0.775  0.00  0.00    -0.005 A 
BRANCH  12  13
ATOM     13  C   UNL     1       2.604   6.428  -1.028  0.00  0.00    +0.182 C 
BRANCH  13  14
ATOM     14  N   UNL     1       1.965   6.746   0.251  0.00  0.00    -0.248 N 
ATOM     15  C   UNL     1       1.491   7.942   0.640  0.00  0.00    +0.219 A 
ATOM     16  N   UNL     1       0.997   7.811   1.845  0.00  0.00    -0.223 NA
ATOM     17  C   UNL     1       1.138   6.551   2.256  0.00  0.00    +0.245 A 
ATOM     18  N   UNL     1       1.720   5.859   1.313  0.00  0.00    -0.158 NA
ENDBRANCH  13  14
ENDBRANCH  12  13
ENDBRANCH   4   7
BRANCH   1  19
ATOM     19  C   UNL     1       1.968   0.159  -1.256  0.00  0.00    +0.095 C 
BRANCH  19  20
ATOM     20  C   UNL     1       0.580  -0.479  -1.166  0.00  0.00    -0.014 C 
BRANCH  20  21
ATOM     21  C   UNL     1      -0.314   0.112  -2.227  0.00  0.00    -0.022 A 
ATOM     22  C   UNL     1      -1.251   1.083  -2.109  0.00  0.00    +0.009 A 
ATOM     23  C   UNL     1      -1.959   1.472  -3.231  0.00  0.00    +0.008 A 
ATOM     24  C   UNL     1      -1.695   0.869  -4.416  0.00  0.00    +0.045 A 
ATOM     25  S   UNL     1      -0.407  -0.282  -3.966  0.00  0.00    -0.103 S 
ENDBRANCH  20  21
BRANCH  20  27
ATOM     26  C   UNL     1       1.476  -2.520  -0.280  0.00  0.00    -0.096 C 
ATOM     27  N   UNL     1       0.694  -1.929  -1.373  0.00  0.00    +0.382 N 
ATOM     28  C   UNL     1      -0.648  -2.527  -1.395  0.00  0.00    -0.096 C 
ATOM     29  H   UNL     1       1.155  -2.108  -2.252  0.00  0.00    -0.082 HD
ENDBRANCH  20  27
ENDBRANCH  19  20
ENDBRANCH   1  19
TORSDOF 7
