REMARK  Name = ZINC14656338
REMARK  9 active torsions:
REMARK  status: ('A' for Active; 'I' for Inactive)
REMARK    1  A    between atoms: C_1  and  C_2
REMARK    2  A    between atoms: C_2  and  C_3
REMARK    3  A    between atoms: C_3  and  C_4
REMARK    4  A    between atoms: C_4  and  N_5
REMARK    5  A    between atoms: C_6  and  N_27
REMARK    6  A    between atoms: C_7  and  N_14
REMARK    7  A    between atoms: N_14  and  C_15
REMARK    8  A    between atoms: C_16  and  C_18
REMARK    9  A    between atoms: C_19  and  C_20
REMARK                            x       y       z     vdW  Elec       q    Type
REMARK                         _______ _______ _______ _____ _____    ______ ____
ROOT
ATOM      1  N   UNL     1      -1.378   3.326  -0.519  0.00  0.00    -0.280 N 
ATOM      2  C   UNL     1      -0.166   3.975  -0.491  0.00  0.00    +0.127 A 
ATOM      3  C   UNL     1       0.970   3.268  -0.152  0.00  0.00    +0.140 A 
ATOM      4  C   UNL     1       0.850   1.899   0.156  0.00  0.00    +0.277 A 
ATOM      5  O   UNL     1       1.837   1.250   0.459  0.00  0.00    -0.266 OA
ATOM      6  N   UNL     1      -0.361   1.312   0.113  0.00  0.00    -0.273 N 
ATOM      7  H   UNL     1      -0.448   0.341   0.336  0.00  0.00    +0.173 HD
ATOM      8  C   UNL     1      -1.456   2.016  -0.225  0.00  0.00    +0.331 A 
ATOM      9  O   UNL     1      -2.537   1.460  -0.260  0.00  0.00    -0.246 OA
ENDROOT
BRANCH   3  10
ATOM     10  N   UNL     1       2.227   3.904  -0.114  0.00  0.00    -0.264 N 
ATOM     11  C   UNL     1       2.488   4.951   0.877  0.00  0.00    +0.139 C 
ATOM     12  C   UNL     1       3.189   3.550  -0.989  0.00  0.00    +0.244 C 
ATOM     13  O   UNL     1       2.945   2.744  -1.869  0.00  0.00    -0.270 OA
BRANCH  12  14
ATOM     14  C   UNL     1       4.527   4.133  -0.882  0.00  0.00    +0.068 C 
ATOM     15  C   UNL     1       5.489   3.778  -1.757  0.00  0.00    +0.013 C 
BRANCH  15  16
ATOM     16  C   UNL     1       6.835   4.364  -1.650  0.00  0.00    -0.025 A 
ATOM     17  C   UNL     1       7.118   5.294  -0.644  0.00  0.00    +0.009 A 
ATOM     18  C   UNL     1       8.382   5.835  -0.546  0.00  0.00    +0.020 A 
ATOM     19  C   UNL     1       9.368   5.468  -1.447  0.00  0.00    +0.041 A 
ATOM     20  C   UNL     1       9.093   4.551  -2.449  0.00  0.00    +0.020 A 
ATOM     21  C   UNL     1       7.835   3.998  -2.556  0.00  0.00    +0.009 A 
ATOM     22 CL   UNL     1      10.955   6.160  -1.320  0.00  0.00    -0.084 Cl
ENDBRANCH  15  16
ENDBRANCH  12  14
ENDBRANCH   3  10
BRANCH   2  23
ATOM     23  N   UNL     1      -0.086   5.313  -0.797  0.00  0.00    -0.343 N 
ATOM     24  H   UNL     1       0.778   5.755  -0.818  0.00  0.00    +0.144 HD
ATOM     25  H   UNL     1      -0.892   5.815  -0.993  0.00  0.00    +0.144 HD
ENDBRANCH   2  23
BRANCH   1  26
ATOM     26  C   UNL     1      -2.591   4.065  -0.878  0.00  0.00    +0.128 C 
BRANCH  26  27
ATOM     27  C   UNL     1      -2.804   3.992  -2.392  0.00  0.00    +0.021 C 
BRANCH  27  29
ATOM     28  C   UNL     1      -4.284   4.689  -4.280  0.00  0.00    +0.004 C 
ATOM     29  C   UNL     1      -4.071   4.763  -2.767  0.00  0.00    -0.002 C 
ENDBRANCH  27  29
ENDBRANCH  26  27
ENDBRANCH   1  26
TORSDOF 7
