REMARK  Name = ZINC38556450
REMARK  7 active torsions:
REMARK  status: ('A' for Active; 'I' for Inactive)
REMARK    1  A    between atoms: C_4  and  C_7
REMARK    2  A    between atoms: C_10  and  C_13
REMARK    3  A    between atoms: C_13  and  C_15
REMARK    4  A    between atoms: C_15  and  S_16
REMARK    5  A    between atoms: S_16  and  C_17
REMARK    6  A    between atoms: C_20  and  C_24
REMARK    7  A    between atoms: N_22  and  N_23
REMARK                            x       y       z     vdW  Elec       q    Type
REMARK                         _______ _______ _______ _____ _____    ______ ____
ROOT
ATOM      1  C   UNL     1       9.005  -6.589  -0.132  0.00  0.00    +0.189 C 
ATOM      2  N   UNL     1       7.882  -7.224  -0.135  0.00  0.00    -0.161 NA
ATOM      3  N   UNL     1       8.077  -8.611  -0.148  0.00  0.00    -0.243 N 
ATOM      4  C   UNL     1       9.535  -8.819  -0.154  0.00  0.00    +0.222 C 
ATOM      5  N   UNL     1      10.088  -7.455  -0.148  0.00  0.00    -0.223 N 
ATOM      6  H   UNL     1       7.390  -9.296  -0.152  0.00  0.00    +0.170 HD
ENDROOT
BRANCH   4   7
ATOM      7  C   UNL     1       9.966  -9.566  -1.418  0.00  0.00    +0.197 C 
ATOM      8  C   UNL     1       9.272 -10.910  -1.510  0.00  0.00    -0.017 C 
ATOM      9  C   UNL     1      10.259 -11.804  -1.484  0.00  0.00    +0.065 C 
ATOM     10  C   UNL     1       9.685 -13.207  -1.572  0.00  0.00    +0.057 C 
ATOM     11  C   UNL     1       8.189 -13.052  -1.223  0.00  0.00    +0.011 C 
ATOM     12  C   UNL     1       7.927 -11.580  -1.614  0.00  0.00    +0.035 C 
ATOM     13  N   UNL     1      11.458 -11.167  -1.387  0.00  0.00    -0.158 NA
ATOM     14  N   UNL     1      11.390  -9.934  -1.347  0.00  0.00    -0.176 NA
ENDBRANCH   4   7
BRANCH   5  15
ATOM     15  N   UNL     1      11.410  -7.109  -0.155  0.00  0.00    -0.250 NA
ATOM     16  H   UNL     1      11.521  -6.106  -0.146  0.00  0.00    +0.141 HD
ATOM     17  H   UNL     1      11.899  -7.534   0.618  0.00  0.00    +0.141 HD
ENDBRANCH   5  15
BRANCH   1  18
ATOM     18  S   UNL     1       9.145  -4.832  -0.117  0.00  0.00    -0.080 S 
BRANCH  18  19
ATOM     19  C   UNL     1       7.426  -4.255  -0.098  0.00  0.00    +0.156 C 
BRANCH  19  20
ATOM     20  C   UNL     1       7.402  -2.748  -0.084  0.00  0.00    +0.173 C 
ATOM     21  O   UNL     1       8.442  -2.125  -0.086  0.00  0.00    -0.291 OA
BRANCH  20  25
ATOM     22  C   UNL     1       3.698  -0.688  -0.037  0.00  0.00    -0.018 A 
ATOM     23  C   UNL     1       4.895   0.030  -0.040  0.00  0.00    +0.009 A 
ATOM     24  C   UNL     1       6.094  -0.634  -0.054  0.00  0.00    +0.012 A 
ATOM     25  C   UNL     1       6.117  -2.034  -0.068  0.00  0.00    +0.018 A 
ATOM     26  C   UNL     1       4.915  -2.752  -0.065  0.00  0.00    +0.012 A 
ATOM     27  C   UNL     1       3.719  -2.083  -0.045  0.00  0.00    +0.009 A 
BRANCH  22  31
ATOM     28  C   UNL     1      -0.017   1.379   0.010  0.00  0.00    +0.000 A 
ATOM     29  C   UNL     1       1.169   2.092   0.002  0.00  0.00    +0.001 A 
ATOM     30  C   UNL     1       2.377   1.427  -0.013  0.00  0.00    +0.008 A 
ATOM     31  C   UNL     1       2.403   0.033  -0.021  0.00  0.00    -0.018 A 
ATOM     32  C   UNL     1       1.205  -0.680  -0.013  0.00  0.00    +0.008 A 
ATOM     33  C   UNL     1       0.002  -0.004   0.002  0.00  0.00    +0.001 A 
ENDBRANCH  22  31
ENDBRANCH  20  25
ENDBRANCH  19  20
ENDBRANCH  18  19
ENDBRANCH   1  18
TORSDOF 7
