REMARK  Name = ZINC51329903
REMARK  4 active torsions:
REMARK  status: ('A' for Active; 'I' for Inactive)
REMARK    1  A    between atoms: C_1  and  O_2
REMARK    2  A    between atoms: O_2  and  C_3
REMARK    3  A    between atoms: C_6  and  C_9
REMARK    4  A    between atoms: C_16  and  C_22
REMARK                            x       y       z     vdW  Elec       q    Type
REMARK                         _______ _______ _______ _____ _____    ______ ____
ROOT
ATOM      1  C   UNL     1      -5.000  -2.642   0.034  0.00  0.00    +0.111 C 
ATOM      2  C   UNL     1      -5.335  -3.097  -1.391  0.00  0.00    +0.058 C 
ATOM      3  C   UNL     1      -5.203  -1.934  -2.359  0.00  0.00    +0.012 C 
ATOM      4  C   UNL     1      -5.056  -2.443  -3.793  0.00  0.00    +0.005 C 
ATOM      5  C   UNL     1      -3.741  -3.219  -3.905  0.00  0.00    +0.040 C 
ATOM      6  C   UNL     1      -3.721  -4.310  -2.871  0.00  0.00    +0.007 C 
ATOM      7  C   UNL     1      -4.418  -4.232  -1.750  0.00  0.00    +0.021 C 
ATOM      8  N   UNL     1      -4.303  -5.265  -0.834  0.00  0.00    -0.300 N 
ATOM      9  C   UNL     1      -4.577  -5.023   0.460  0.00  0.00    +0.135 C 
ATOM     10  S   UNL     1      -4.456  -6.313   1.580  0.00  0.00    -0.019 S 
ATOM     11  N   UNL     1      -4.941  -3.813   0.911  0.00  0.00    -0.319 N 
ATOM     12  H   UNL     1      -4.029  -6.150  -1.123  0.00  0.00    +0.154 HD
ATOM     13  H   UNL     1      -5.173  -3.710   1.847  0.00  0.00    +0.148 HD
ENDROOT
BRANCH   6  14
ATOM     14  C   UNL     1      -2.891  -5.489  -3.111  0.00  0.00    +0.097 C 
ATOM     15  N   UNL     1      -3.130  -6.350  -4.095  0.00  0.00    -0.371 N 
ATOM     16  C   UNL     1      -2.118  -7.417  -4.062  0.00  0.00    +0.132 C 
ATOM     17  C   UNL     1      -1.223  -7.031  -2.867  0.00  0.00    +0.124 C 
ATOM     18  N   UNL     1      -1.831  -5.788  -2.367  0.00  0.00    -0.329 N 
ATOM     19  H   UNL     1      -1.511  -5.270  -1.613  0.00  0.00    +0.147 HD
ATOM     20  H   UNL     1      -3.857  -6.285  -4.734  0.00  0.00    +0.161 HD
ENDBRANCH   6  14
BRANCH   1  24
ATOM     21  C   UNL     1      -1.216  -0.656   0.047  0.00  0.00    +0.120 A 
ATOM     22  C   UNL     1      -2.389   0.084   0.052  0.00  0.00    +0.046 A 
ATOM     23  C   UNL     1      -3.611  -0.560   0.047  0.00  0.00    +0.009 A 
ATOM     24  C   UNL     1      -3.666  -1.942   0.039  0.00  0.00    -0.026 A 
ATOM     25  C   UNL     1      -2.498  -2.682   0.035  0.00  0.00    +0.009 A 
ATOM     26  C   UNL     1      -1.273  -2.042   0.033  0.00  0.00    +0.046 A 
BRANCH  21  28
ATOM     27  C   UNL     1      -0.030   1.404   0.067  0.00  0.00    +0.277 C 
ATOM     28  O   UNL     1      -0.013  -0.025   0.051  0.00  0.00    -0.495 OA
ENDBRANCH  21  28
ENDBRANCH   1  24
TORSDOF 3
