REMARK  Name = ZINC49270579
REMARK  9 active torsions:
REMARK  status: ('A' for Active; 'I' for Inactive)
REMARK    1  A    between atoms: C_1  and  C_2
REMARK    2  A    between atoms: C_2  and  C_3
REMARK    3  A    between atoms: C_2  and  C_4
REMARK    4  A    between atoms: C_2  and  N_5
REMARK    5  A    between atoms: C_6  and  C_8
REMARK    6  A    between atoms: C_8  and  N_9
REMARK    7  A    between atoms: C_10  and  C_12
REMARK    8  A    between atoms: N_14  and  C_15
REMARK    9  A    between atoms: C_19  and  N_21
REMARK                            x       y       z     vdW  Elec       q    Type
REMARK                         _______ _______ _______ _____ _____    ______ ____
ROOT
ATOM      1  C   UNL     1       6.276   0.099  -3.709  0.00  0.00    +0.303 C 
ATOM      2  O   UNL     1       6.669   0.804  -2.804  0.00  0.00    -0.265 OA
ATOM      3  N   UNL     1       7.101  -0.212  -4.729  0.00  0.00    -0.278 N 
ATOM      4  H   UNL     1       6.810  -0.829  -5.418  0.00  0.00    +0.155 HD
ENDROOT
BRANCH   3   5
ATOM      5  C   UNL     1       8.377   0.355  -4.793  0.00  0.00    +0.036 A 
ATOM      6  C   UNL     1       8.933   0.680  -6.024  0.00  0.00    +0.023 A 
ATOM      7  C   UNL     1      10.194   1.240  -6.088  0.00  0.00    +0.004 A 
ATOM      8  C   UNL     1      10.906   1.480  -4.928  0.00  0.00    +0.028 A 
ATOM      9  C   UNL     1      10.356   1.158  -3.694  0.00  0.00    +0.067 A 
ATOM     10  C   UNL     1       9.087   0.601  -3.626  0.00  0.00    +0.051 A 
BRANCH   9  11
ATOM     11  N   UNL     1      11.080   1.401  -2.518  0.00  0.00    -0.240 N 
ATOM     12  C   UNL     1      12.273   2.031  -2.434  0.00  0.00    +0.114 A 
ATOM     13  C   UNL     1      12.631   2.062  -1.130  0.00  0.00    +0.041 A 
ATOM     14  C   UNL     1      11.624   1.431  -0.391  0.00  0.00    +0.135 A 
ATOM     15  N   UNL     1      10.692   1.039  -1.222  0.00  0.00    -0.175 NA
ENDBRANCH   9  11
ENDBRANCH   3   5
BRANCH   1  17
ATOM     16  N   UNL     1       4.052  -0.115  -2.675  0.00  0.00    -0.299 N 
ATOM     17  C   UNL     1       4.878  -0.425  -3.695  0.00  0.00    +0.300 C 
ATOM     18  O   UNL     1       4.484  -1.131  -4.601  0.00  0.00    -0.265 OA
ATOM     19  H   UNL     1       4.367   0.449  -1.951  0.00  0.00    +0.150 HD
BRANCH  16  20
ATOM     20  C   UNL     1       2.681  -0.629  -2.661  0.00  0.00    +0.200 C 
BRANCH  20  22
ATOM     21  N   UNL     1       0.692  -0.489  -1.197  0.00  0.00    -0.309 N 
ATOM     22  C   UNL     1       1.974  -0.140  -1.423  0.00  0.00    +0.231 C 
ATOM     23  O   UNL     1       2.558   0.569  -0.631  0.00  0.00    -0.274 OA
ATOM     24  H   UNL     1       0.225  -1.056  -1.830  0.00  0.00    +0.149 HD
BRANCH  21  26
ATOM     25  C   UNL     1      -0.024   1.516   0.006  0.00  0.00    +0.031 C 
ATOM     26  C   UNL     1       0.005  -0.013   0.006  0.00  0.00    +0.026 C 
ATOM     27  C   UNL     1       0.748  -0.509   1.248  0.00  0.00    +0.031 C 
ATOM     28  C   UNL     1      -1.428  -0.550   0.022  0.00  0.00    +0.031 C 
ENDBRANCH  21  26
ENDBRANCH  20  22
ENDBRANCH  16  20
ENDBRANCH   1  17
TORSDOF 6
