REMARK  Name = ZINC59942030
REMARK  6 active torsions:
REMARK  status: ('A' for Active; 'I' for Inactive)
REMARK    1  A    between atoms: C_2  and  C_3
REMARK    2  A    between atoms: C_3  and  N_4
REMARK    3  A    between atoms: C_5  and  N_23
REMARK    4  A    between atoms: C_10  and  S_11
REMARK    5  A    between atoms: S_11  and  C_12
REMARK    6  A    between atoms: C_12  and  C_13
REMARK                            x       y       z     vdW  Elec       q    Type
REMARK                         _______ _______ _______ _____ _____    ______ ____
ROOT
ATOM      1  N   UNL     1      -1.310  -1.697  -1.129  0.00  0.00    -0.305 N 
ATOM      2  C   UNL     1      -1.819  -1.286  -2.333  0.00  0.00    +0.104 A 
ATOM      3  C   UNL     1      -1.834  -2.162  -3.381  0.00  0.00    +0.113 A 
ATOM      4  C   UNL     1      -1.323  -3.461  -3.189  0.00  0.00    +0.276 A 
ATOM      5  O   UNL     1      -1.325  -4.263  -4.112  0.00  0.00    -0.266 OA
ATOM      6  N   UNL     1      -0.836  -3.814  -1.990  0.00  0.00    -0.185 NA
ATOM      7  C   UNL     1      -0.821  -2.961  -0.987  0.00  0.00    +0.175 A 
ENDROOT
BRANCH   2   8
ATOM      8  N   UNL     1      -2.310  -0.010  -2.484  0.00  0.00    -0.344 N 
ATOM      9  H   UNL     1      -2.296   0.606  -1.735  0.00  0.00    +0.144 HD
ATOM     10  H   UNL     1      -2.669   0.274  -3.339  0.00  0.00    +0.144 HD
ENDBRANCH   2   8
BRANCH   1  11
ATOM     11  C   UNL     1      -1.285  -0.773   0.007  0.00  0.00    +0.152 C 
BRANCH  11  13
ATOM     12  C   UNL     1      -0.006   1.307   0.007  0.00  0.00    +0.005 C 
ATOM     13  C   UNL     1       0.010  -0.003   0.000  0.00  0.00    -0.013 C 
ENDBRANCH  11  13
ENDBRANCH   1  11
BRANCH   7  14
ATOM     14  S   UNL     1      -0.165  -3.465   0.569  0.00  0.00    -0.078 S 
BRANCH  14  15
ATOM     15  C   UNL     1       0.353  -5.181   0.291  0.00  0.00    +0.173 C 
BRANCH  15  16
ATOM     16  C   UNL     1       0.941  -5.740   1.561  0.00  0.00    +0.229 C 
ATOM     17  O   UNL     1       1.004  -5.049   2.556  0.00  0.00    -0.275 OA
ATOM     18  N   UNL     1       1.397  -7.008   1.592  0.00  0.00    -0.270 N 
ATOM     19  C   UNL     1       2.036  -7.492   2.733  0.00  0.00    +0.125 A 
ATOM     20  C   UNL     1       2.597  -8.764   2.720  0.00  0.00    +0.045 A 
ATOM     21  C   UNL     1       3.229  -9.232   3.859  0.00  0.00    +0.020 A 
ATOM     22  C   UNL     1       3.279  -8.407   4.975  0.00  0.00    +0.036 A 
ATOM     23  C   UNL     1       2.700  -7.154   4.917  0.00  0.00    +0.128 A 
ATOM     24  N   UNL     1       2.108  -6.734   3.815  0.00  0.00    -0.239 NA
ATOM     25 BR   UNL     1       4.129  -8.994   6.559  0.00  0.00    -0.049 Br
ATOM     26  H   UNL     1       1.280  -7.584   0.820  0.00  0.00    +0.156 HD
ENDBRANCH  15  16
ENDBRANCH  14  15
ENDBRANCH   7  14
TORSDOF 6
