REMARK  Name = ZINC39355736
REMARK  11 active torsions:
REMARK  status: ('A' for Active; 'I' for Inactive)
REMARK    1  A    between atoms: C_1  and  C_2
REMARK    2  A    between atoms: C_4  and  C_9
REMARK    3  A    between atoms: C_5  and  O_8
REMARK    4  A    between atoms: C_9  and  C_11
REMARK    5  A    between atoms: C_9  and  C_23
REMARK    6  A    between atoms: C_13  and  N_20
REMARK    7  A    between atoms: C_14  and  O_19
REMARK    8  A    between atoms: C_15  and  O_17
REMARK    9  A    between atoms: O_17  and  C_18
REMARK   10  A    between atoms: C_25  and  C_30
REMARK   11  A    between atoms: C_28  and  O_29
REMARK                            x       y       z     vdW  Elec       q    Type
REMARK                         _______ _______ _______ _____ _____    ______ ____
ROOT
ATOM      1  C   UNL     1      -2.372  -0.211  -0.942  0.00  0.00    +0.089 C 
ENDROOT
BRANCH   1   2
ATOM      2  C   UNL     1      -2.698  -0.962  -2.207  0.00  0.00    +0.047 A 
ATOM      3  C   UNL     1      -3.617  -1.947  -2.334  0.00  0.00    +0.041 A 
ATOM      4  N   UNL     1      -3.607  -2.359  -3.619  0.00  0.00    -0.278 N 
ATOM      5  N   UNL     1      -2.650  -1.604  -4.308  0.00  0.00    -0.136 NA
ATOM      6  C   UNL     1      -2.107  -0.761  -3.463  0.00  0.00    +0.236 A 
ATOM      7  C   UNL     1      -4.496  -2.488  -1.235  0.00  0.00    +0.065 C 
ATOM      8  H   UNL     1      -4.165  -3.056  -3.998  0.00  0.00    +0.189 HD
BRANCH   6  10
ATOM      9  H   UNL     1      -0.241  -0.211  -3.723  0.00  0.00    +0.294 HD
ATOM     10  O   UNL     1      -1.138   0.148  -3.753  0.00  0.00    -0.491 OA
ENDBRANCH   6  10
ENDBRANCH   1   2
BRANCH   1  13
ATOM     11  C   UNL     1      -0.015  -2.418  -1.524  0.00  0.00    +0.039 C 
ATOM     12  C   UNL     1       0.028  -1.374  -0.408  0.00  0.00    +0.157 C 
ATOM     13  C   UNL     1      -0.879  -0.201  -0.735  0.00  0.00    +0.031 C 
ATOM     14  C   UNL     1      -0.044   0.845  -0.796  0.00  0.00    +0.234 C 
ATOM     15  N   UNL     1       1.230   0.454  -0.552  0.00  0.00    -0.116 NA
ATOM     16  N   UNL     1       1.362  -0.755  -0.325  0.00  0.00    -0.176 NA
BRANCH  14  17
ATOM     17  O   UNL     1      -0.422   2.122  -1.068  0.00  0.00    -0.491 OA
ATOM     18  H   UNL     1       0.308   2.755  -1.074  0.00  0.00    +0.294 HD
ENDBRANCH  14  17
ENDBRANCH   1  13
BRANCH   1  19
ATOM     19  C   UNL     1      -2.873   1.206  -1.057  0.00  0.00    -0.030 A 
ATOM     20  C   UNL     1      -3.035   1.782  -2.303  0.00  0.00    +0.041 A 
ATOM     21  C   UNL     1      -3.494   3.081  -2.413  0.00  0.00    +0.171 A 
ATOM     22  C   UNL     1      -3.793   3.809  -1.273  0.00  0.00    +0.189 A 
ATOM     23  C   UNL     1      -3.630   3.230  -0.018  0.00  0.00    +0.164 A 
ATOM     24  C   UNL     1      -3.174   1.925   0.085  0.00  0.00    +0.054 A 
BRANCH  21  25
ATOM     25  N   UNL     1      -3.665   3.695  -3.749  0.00  0.00    +0.060 N 
ATOM     26  O   UNL     1      -3.403   3.060  -4.744  0.00  0.00    -0.126 OA
ATOM     27  O   UNL     1      -4.066   4.831  -3.846  0.00  0.00    -0.126 OA
ENDBRANCH  21  25
BRANCH  23  28
ATOM     28  O   UNL     1      -3.922   3.940   1.104  0.00  0.00    -0.491 OA
ATOM     29  C   UNL     1      -3.732   3.281   2.357  0.00  0.00    +0.277 C 
ENDBRANCH  23  28
BRANCH  22  30
ATOM     30  O   UNL     1      -4.244   5.088  -1.380  0.00  0.00    -0.502 OA
ATOM     31  H   UNL     1      -5.206   5.162  -1.440  0.00  0.00    +0.292 HD
ENDBRANCH  22  30
ENDBRANCH   1  19
TORSDOF 8
