REMARK  Name = ZINC04249381
REMARK  3 active torsions:
REMARK  status: ('A' for Active; 'I' for Inactive)
REMARK    1  A    between atoms: C_1  and  C_2
REMARK    2  A    between atoms: C_3  and  N_9
REMARK    3  A    between atoms: N_24  and  C_25
REMARK                            x       y       z     vdW  Elec       q    Type
REMARK                         _______ _______ _______ _____ _____    ______ ____
ROOT
ATOM      1  N   UNL     1      -1.236   2.069   0.019  0.00  0.00    -0.270 N 
ATOM      2  C   UNL     1      -1.919   2.455  -1.229  0.00  0.00    +0.115 C 
ATOM      3  C   UNL     1      -2.428   3.894  -1.082  0.00  0.00    +0.041 C 
ATOM      4  C   UNL     1      -3.461   3.962   0.049  0.00  0.00    +0.127 C 
ATOM      5  N   UNL     1      -2.912   3.302   1.235  0.00  0.00    -0.306 N 
ATOM      6  C   UNL     1      -1.869   2.414   1.201  0.00  0.00    +0.205 A 
ATOM      7  N   UNL     1      -1.600   2.002   2.418  0.00  0.00    -0.196 NA
ATOM      8  C   UNL     1      -2.433   2.571   3.275  0.00  0.00    +0.170 A 
ATOM      9  C   UNL     1      -3.290   3.411   2.547  0.00  0.00    +0.153 A 
ATOM     10  C   UNL     1      -4.291   4.152   3.205  0.00  0.00    +0.280 A 
ATOM     11  O   UNL     1      -5.049   4.887   2.596  0.00  0.00    -0.265 OA
ATOM     12  N   UNL     1      -4.369   4.003   4.550  0.00  0.00    -0.273 N 
ATOM     13  H   UNL     1      -5.068   4.513   5.051  0.00  0.00    +0.173 HD
ATOM     14  C   UNL     1      -3.544   3.198   5.236  0.00  0.00    +0.331 A 
ATOM     15  O   UNL     1      -3.682   3.122   6.442  0.00  0.00    -0.246 OA
ATOM     16  N   UNL     1      -2.568   2.465   4.653  0.00  0.00    -0.280 N 
ATOM     17  C   UNL     1      -1.690   1.597   5.441  0.00  0.00    +0.155 C 
ENDROOT
BRANCH   1  20
ATOM     18  C   UNL     1      -1.292  -0.776   0.010  0.00  0.00    +0.047 C 
ATOM     19  C   UNL     1       0.002  -0.004   0.002  0.00  0.00    -0.011 A 
ATOM     20  C   UNL     1      -0.017   1.385   0.010  0.00  0.00    +0.041 A 
ATOM     21  C   UNL     1       1.178   2.093   0.002  0.00  0.00    +0.024 A 
ATOM     22  C   UNL     1       2.381   1.415  -0.012  0.00  0.00    +0.003 A 
ATOM     23  C   UNL     1       2.398   0.032  -0.020  0.00  0.00    +0.020 A 
ATOM     24  C   UNL     1       1.209  -0.677  -0.013  0.00  0.00    +0.046 A 
ATOM     25 CL   UNL     1       1.235  -2.413  -0.023  0.00  0.00    -0.083 Cl
ENDBRANCH   1  20
TORSDOF 1
