REMARK  Name = ZINC49978972
REMARK  8 active torsions:
REMARK  status: ('A' for Active; 'I' for Inactive)
REMARK    1  A    between atoms: C_1  and  C_2
REMARK    2  A    between atoms: C_6  and  N_8
REMARK    3  A    between atoms: N_8  and  C_9
REMARK    4  A    between atoms: N_8  and  S_10
REMARK    5  A    between atoms: S_10  and  C_13
REMARK    6  A    between atoms: C_15  and  C_21
REMARK    7  A    between atoms: C_16  and  C_20
REMARK    8  A    between atoms: C_18  and  N_19
REMARK                            x       y       z     vdW  Elec       q    Type
REMARK                         _______ _______ _______ _____ _____    ______ ____
ROOT
ATOM      1  S   UNL     1      -0.645  -4.294   2.471  0.00  0.00    +0.076 S 
ATOM      2  O   UNL     1      -1.179  -4.547   3.763  0.00  0.00    -0.150 OA
ATOM      3  O   UNL     1      -1.449  -4.302   1.299  0.00  0.00    -0.150 OA
ENDROOT
BRANCH   1   4
ATOM      4  C   UNL     1       0.632  -5.480   2.213  0.00  0.00    +0.129 A 
ATOM      5  C   UNL     1       1.954  -5.123   2.397  0.00  0.00    +0.034 A 
ATOM      6  C   UNL     1       2.957  -6.053   2.195  0.00  0.00    -0.046 A 
ATOM      7  C   UNL     1       2.641  -7.343   1.807  0.00  0.00    -0.046 A 
ATOM      8  C   UNL     1       1.322  -7.706   1.621  0.00  0.00    +0.028 A 
ATOM      9  C   UNL     1       0.311  -6.775   1.829  0.00  0.00    +0.052 A 
ATOM     10  C   UNL     1       3.738  -8.352   1.587  0.00  0.00    +0.044 C 
ATOM     11  C   UNL     1       4.398  -5.660   2.396  0.00  0.00    +0.044 C 
BRANCH   9  12
ATOM     12  N   UNL     1      -1.024  -7.141   1.647  0.00  0.00    -0.356 N 
ATOM     13  H   UNL     1      -1.732  -6.513   1.861  0.00  0.00    +0.142 HD
ATOM     14  H   UNL     1      -1.244  -8.022   1.307  0.00  0.00    +0.142 HD
ENDBRANCH   9  12
ENDBRANCH   1   4
BRANCH   1  15
ATOM     15  N   UNL     1       0.076  -2.805   2.540  0.00  0.00    -0.206 N 
ATOM     16  C   UNL     1       0.604  -2.305   3.812  0.00  0.00    +0.157 C 
BRANCH  15  22
ATOM     17  C   UNL     1       0.449   1.627   0.449  0.00  0.00    +0.044 C 
ATOM     18  C   UNL     1       0.363   0.127   0.343  0.00  0.00    -0.049 A 
ATOM     19  C   UNL     1       0.387  -0.480  -0.900  0.00  0.00    +0.003 A 
ATOM     20  C   UNL     1       0.307  -1.857  -1.003  0.00  0.00    +0.002 A 
ATOM     21  C   UNL     1       0.204  -2.631   0.136  0.00  0.00    +0.025 A 
ATOM     22  C   UNL     1       0.180  -2.025   1.386  0.00  0.00    +0.051 A 
ATOM     23  C   UNL     1       0.265  -0.642   1.486  0.00  0.00    +0.028 A 
ENDBRANCH  15  22
ENDBRANCH   1  15
TORSDOF 4
