REMARK  Name = ZINC01828520
REMARK  9 active torsions:
REMARK  status: ('A' for Active; 'I' for Inactive)
REMARK    1  A    between atoms: C_1  and  O_2
REMARK    2  A    between atoms: O_2  and  C_3
REMARK    3  A    between atoms: C_6  and  C_18
REMARK    4  A    between atoms: C_8  and  C_9
REMARK    5  A    between atoms: C_9  and  N_10
REMARK    6  A    between atoms: C_12  and  N_15
REMARK    7  A    between atoms: C_31  and  C_33
REMARK    8  A    between atoms: C_33  and  O_35
REMARK    9  A    between atoms: O_35  and  C_36
REMARK                            x       y       z     vdW  Elec       q    Type
REMARK                         _______ _______ _______ _____ _____    ______ ____
ROOT
ATOM      1  C   UNL     1      -6.042  -0.068   1.877  0.00  0.00    +0.008 C 
ATOM      2  C   UNL     1      -6.103  -1.489   2.384  0.00  0.00    +0.010 A 
ATOM      3  C   UNL     1      -6.968  -2.409   1.899  0.00  0.00    -0.021 A 
ATOM      4  C   UNL     1      -6.732  -3.640   2.619  0.00  0.00    +0.003 A 
ATOM      5  C   UNL     1      -7.314  -4.909   2.549  0.00  0.00    +0.010 A 
ATOM      6  C   UNL     1      -6.828  -5.864   3.408  0.00  0.00    +0.001 A 
ATOM      7  C   UNL     1      -5.809  -5.595   4.307  0.00  0.00    +0.002 A 
ATOM      8  C   UNL     1      -5.215  -4.348   4.398  0.00  0.00    +0.026 A 
ATOM      9  C   UNL     1      -5.688  -3.359   3.539  0.00  0.00    +0.047 A 
ATOM     10  N   UNL     1      -5.335  -2.051   3.368  0.00  0.00    -0.359 N 
ATOM     11  H   UNL     1      -4.644  -1.589   3.867  0.00  0.00    +0.166 HD
ATOM     12  C   UNL     1      -7.964  -2.117   0.804  0.00  0.00    +0.033 C 
ATOM     13  C   UNL     1      -8.080  -0.593   0.662  0.00  0.00    +0.045 C 
ATOM     14  N   UNL     1      -6.730   0.000   0.569  0.00  0.00    +0.396 N 
ATOM     15  H   UNL     1      -6.181  -0.517  -0.129  0.00  0.00    -0.083 HD
ATOM     16  H   UNL     1      -6.812   0.982   0.281  0.00  0.00    -0.083 HD
ENDROOT
BRANCH   1  20
ATOM     17  C   UNL     1      -1.963   1.106   1.383  0.00  0.00    +0.125 A 
ATOM     18  C   UNL     1      -2.580   0.317   0.422  0.00  0.00    +0.046 A 
ATOM     19  C   UNL     1      -3.897  -0.065   0.587  0.00  0.00    +0.006 A 
ATOM     20  C   UNL     1      -4.603   0.346   1.702  0.00  0.00    -0.055 A 
ATOM     21  C   UNL     1      -3.992   1.136   2.658  0.00  0.00    +0.011 A 
ATOM     22  C   UNL     1      -2.673   1.517   2.501  0.00  0.00    +0.016 A 
BRANCH  17  24
ATOM     23  C   UNL     1       0.004   1.018   0.050  0.00  0.00    +0.277 C 
ATOM     24  O   UNL     1      -0.665   1.479   1.225  0.00  0.00    -0.495 OA
ENDBRANCH  17  24
BRANCH  22  25
ATOM     25  C   UNL     1      -2.007   2.378   3.543  0.00  0.00    +0.182 C 
BRANCH  25  26
ATOM     26  N   UNL     1      -1.187   1.538   4.419  0.00  0.00    -0.265 N 
ATOM     27  C   UNL     1       0.127   1.706   4.677  0.00  0.00    +0.141 A 
ATOM     28  C   UNL     1       0.508   0.727   5.530  0.00  0.00    +0.163 A 
ATOM     29  C   UNL     1      -0.612  -0.066   5.803  0.00  0.00    +0.167 A 
ATOM     30  N   UNL     1      -1.630   0.423   5.142  0.00  0.00    -0.177 NA
BRANCH  28  31
ATOM     31  N   UNL     1       1.869   0.530   6.077  0.00  0.00    +0.059 N 
ATOM     32  O   UNL     1       2.767   1.290   5.764  0.00  0.00    -0.126 OA
ATOM     33  O   UNL     1       2.090  -0.393   6.841  0.00  0.00    -0.126 OA
ENDBRANCH  28  31
ENDBRANCH  25  26
ENDBRANCH  22  25
ENDBRANCH   1  20
BRANCH  13  34
ATOM     34  C   UNL     1      -8.802  -0.030   1.859  0.00  0.00    +0.293 C 
ATOM     35  O   UNL     1      -9.685  -0.666   2.385  0.00  0.00    -0.253 OA
BRANCH  34  36
ATOM     36  O   UNL     1      -8.465   1.177   2.340  0.00  0.00    -0.469 OA
ATOM     37  C   UNL     1      -9.203   1.655   3.495  0.00  0.00    +0.280 C 
ENDBRANCH  34  36
ENDBRANCH  13  34
TORSDOF 7
