REMARK  Name = ZINC45263585
REMARK  8 active torsions:
REMARK  status: ('A' for Active; 'I' for Inactive)
REMARK    1  A    between atoms: C_1  and  C_2
REMARK    2  A    between atoms: C_2  and  O_3
REMARK    3  A    between atoms: O_3  and  C_4
REMARK    4  A    between atoms: C_4  and  C_6
REMARK    5  A    between atoms: C_7  and  C_25
REMARK    6  A    between atoms: C_8  and  N_13
REMARK    7  A    between atoms: C_11  and  C_12
REMARK    8  A    between atoms: N_16  and  C_17
REMARK                            x       y       z     vdW  Elec       q    Type
REMARK                         _______ _______ _______ _____ _____    ______ ____
ROOT
ATOM      1  N   UNL     1       4.261  -3.552  -4.465  0.00  0.00    -0.255 N 
ATOM      2  C   UNL     1       4.301  -4.014  -5.730  0.00  0.00    +0.309 C 
ATOM      3  O   UNL     1       3.283  -4.055  -6.394  0.00  0.00    -0.252 OA
ATOM      4  N   UNL     1       5.468  -4.431  -6.259  0.00  0.00    -0.268 N 
ATOM      5  H   UNL     1       5.073  -3.519  -3.935  0.00  0.00    +0.158 HD
ATOM      6  H   UNL     1       6.290  -4.339  -5.753  0.00  0.00    +0.156 HD
ENDROOT
BRANCH   1   9
ATOM      7  C   UNL     1       1.457  -2.312  -2.535  0.00  0.00    +0.084 A 
ATOM      8  C   UNL     1       2.882  -2.637  -2.665  0.00  0.00    +0.003 A 
ATOM      9  C   UNL     1       3.051  -3.119  -3.916  0.00  0.00    +0.108 A 
ATOM     10  N   UNL     1       1.844  -3.114  -4.557  0.00  0.00    -0.346 N 
ATOM     11  H   UNL     1       1.698  -3.412  -5.468  0.00  0.00    +0.167 HD
ATOM     12  C   UNL     1       0.880  -2.636  -3.732  0.00  0.00    +0.029 A 
ATOM     13  C   UNL     1      -0.579  -2.484  -4.077  0.00  0.00    +0.064 C 
ATOM     14  C   UNL     1       3.947  -2.466  -1.612  0.00  0.00    +0.048 C 
BRANCH   7  15
ATOM     15  C   UNL     1       0.782  -1.755  -1.352  0.00  0.00    +0.341 C 
ATOM     16  O   UNL     1       0.318  -2.500  -0.511  0.00  0.00    -0.245 OA
BRANCH  15  17
ATOM     17  O   UNL     1       0.679  -0.420  -1.201  0.00  0.00    -0.461 OA
BRANCH  17  19
ATOM     18  C   UNL     1      -0.007   1.581  -0.032  0.00  0.00    +0.048 C 
ATOM     19  C   UNL     1       0.012   0.051  -0.029  0.00  0.00    +0.229 C 
ENDBRANCH  17  19
ENDBRANCH  15  17
ENDBRANCH   7  15
ENDBRANCH   1   9
BRANCH   4  20
ATOM     20  C   UNL     1       5.493  -4.998  -7.539  0.00  0.00    +0.055 A 
ATOM     21  C   UNL     1       4.626  -4.538  -8.521  0.00  0.00    +0.044 A 
ATOM     22  C   UNL     1       4.654  -5.100  -9.784  0.00  0.00    +0.043 A 
ATOM     23  C   UNL     1       5.545  -6.120 -10.069  0.00  0.00    +0.021 A 
ATOM     24  C   UNL     1       6.409  -6.580  -9.093  0.00  0.00    +0.023 A 
ATOM     25  C   UNL     1       6.390  -6.019  -7.830  0.00  0.00    +0.062 A 
ATOM     26 CL   UNL     1       7.481  -6.593  -6.608  0.00  0.00    -0.082 Cl
ATOM     27 CL   UNL     1       3.571  -4.526 -11.012  0.00  0.00    -0.083 Cl
ENDBRANCH   4  20
TORSDOF 5
