REMARK  Name = ZINC29696365
REMARK  7 active torsions:
REMARK  status: ('A' for Active; 'I' for Inactive)
REMARK    1  A    between atoms: C_1  and  C_2
REMARK    2  A    between atoms: C_5  and  C_7
REMARK    3  A    between atoms: N_9  and  C_10
REMARK    4  A    between atoms: C_12  and  S_17
REMARK    5  A    between atoms: C_15  and  O_16
REMARK    6  A    between atoms: S_17  and  N_20
REMARK    7  A    between atoms: N_20  and  C_21
REMARK                            x       y       z     vdW  Elec       q    Type
REMARK                         _______ _______ _______ _____ _____    ______ ____
ROOT
ATOM      1  C   UNL     1       0.415   3.886  -0.556  0.00  0.00    +0.078 A 
ATOM      2  C   UNL     1       0.664   2.536  -0.355  0.00  0.00    +0.055 A 
ATOM      3  C   UNL     1      -0.389   1.650  -0.234  0.00  0.00    +0.110 A 
ATOM      4  C   UNL     1      -1.693   2.104  -0.317  0.00  0.00    +0.032 A 
ATOM      5  C   UNL     1      -1.949   3.449  -0.510  0.00  0.00    +0.049 A 
ATOM      6  C   UNL     1      -0.899   4.344  -0.634  0.00  0.00    +0.138 A 
ENDROOT
BRANCH   1   9
ATOM      7  C   UNL     1       2.689   4.348  -1.083  0.00  0.00    +0.284 C 
ATOM      8  O   UNL     1       2.830   3.192  -1.438  0.00  0.00    -0.266 OA
ATOM      9  N   UNL     1       1.481   4.786  -0.679  0.00  0.00    -0.276 N 
ATOM     10  H   UNL     1       1.331   5.851  -0.446  0.00  0.00    +0.155 HD
BRANCH   7  15
ATOM     11  C   UNL     1       5.433   8.504  -0.562  0.00  0.00    +0.086 C 
ATOM     12  C   UNL     1       5.042   7.081  -0.869  0.00  0.00    +0.103 A 
ATOM     13  C   UNL     1       5.872   6.120  -1.331  0.00  0.00    +0.045 A 
ATOM     14  C   UNL     1       5.109   4.950  -1.474  0.00  0.00    +0.055 A 
ATOM     15  C   UNL     1       3.835   5.264  -1.095  0.00  0.00    +0.190 A 
ATOM     16  O   UNL     1       3.816   6.562  -0.728  0.00  0.00    -0.455 OA
ENDBRANCH   7  15
ENDBRANCH   1   9
BRANCH   3  17
ATOM     17  S   UNL     1      -0.071  -0.064   0.021  0.00  0.00    +0.072 S 
ATOM     18  O   UNL     1      -1.262  -0.755  -0.331  0.00  0.00    -0.150 OA
ATOM     19  O   UNL     1       1.180  -0.341  -0.595  0.00  0.00    -0.150 OA
BRANCH  17  20
ATOM     20  N   UNL     1       0.143  -0.286   1.648  0.00  0.00    -0.216 N 
ATOM     21  H   UNL     1       1.121  -0.608   2.035  0.00  0.00    +0.174 HD
BRANCH  20  22
ATOM     22  C   UNL     1      -0.919  -0.065   2.528  0.00  0.00    +0.049 A 
ATOM     23  C   UNL     1      -1.962  -0.978   2.604  0.00  0.00    +0.024 A 
ATOM     24  C   UNL     1      -3.010  -0.757   3.476  0.00  0.00    +0.003 A 
ATOM     25  C   UNL     1      -3.022   0.372   4.273  0.00  0.00    +0.020 A 
ATOM     26  C   UNL     1      -1.984   1.285   4.201  0.00  0.00    +0.043 A 
ATOM     27  C   UNL     1      -0.930   1.067   3.334  0.00  0.00    +0.044 A 
ATOM     28 CL   UNL     1      -2.003   2.701   5.205  0.00  0.00    -0.083 Cl
ENDBRANCH  20  22
ENDBRANCH  17  20
ENDBRANCH   3  17
BRANCH   6  29
ATOM     29  O   UNL     1      -1.149   5.666  -0.829  0.00  0.00    -0.505 OA
ATOM     30  H   UNL     1      -2.187   6.026  -0.891  0.00  0.00    +0.292 HD
ENDBRANCH   6  29
TORSDOF 6
