REMARK  Name = ZINC01860576
REMARK  5 active torsions:
REMARK  status: ('A' for Active; 'I' for Inactive)
REMARK    1  A    between atoms: C_10  and  N_11
REMARK    2  A    between atoms: N_11  and  C_12
REMARK    3  A    between atoms: C_12  and  N_22
REMARK    4  A    between atoms: C_13  and  C_14
REMARK    5  A    between atoms: C_13  and  N_19
REMARK                            x       y       z     vdW  Elec       q    Type
REMARK                         _______ _______ _______ _____ _____    ______ ____
ROOT
ATOM      1  C   UNL     1       6.678  -1.702  -0.445  0.00  0.00    +0.159 C 
ATOM      2  C   UNL     1       5.339  -1.124  -0.264  0.00  0.00    +0.186 C 
ENDROOT
BRANCH   1   3
ATOM      3  N   UNL     1       7.577  -1.681   0.585  0.00  0.00    -0.196 N 
ATOM      4  C   UNL     1       7.470  -2.351   1.789  0.00  0.00    +0.096 A 
ATOM      5  C   UNL     1       6.517  -3.198   2.338  0.00  0.00    +0.030 A 
ATOM      6  C   UNL     1       6.707  -3.718   3.601  0.00  0.00    +0.002 A 
ATOM      7  C   UNL     1       7.846  -3.401   4.327  0.00  0.00    +0.002 A 
ATOM      8  C   UNL     1       8.801  -2.563   3.799  0.00  0.00    +0.032 A 
ATOM      9  C   UNL     1       8.625  -2.026   2.519  0.00  0.00    +0.113 A 
ATOM     10  N   UNL     1       9.373  -1.193   1.754  0.00  0.00    -0.129 NA
ATOM     11  N   UNL     1       8.792  -0.981   0.626  0.00  0.00    -0.058 NA
ENDBRANCH   1   3
BRANCH   2  12
ATOM     12  C   UNL     1       5.024  -0.483   0.901  0.00  0.00    +0.104 C 
ATOM     13  C   UNL     1       5.615   0.748   1.204  0.00  0.00    +0.127 C 
ATOM     14 CL   UNL     1       6.614   1.544   0.029  0.00  0.00    -0.069 Cl
ATOM     15 CL   UNL     1       5.351   1.479   2.756  0.00  0.00    -0.069 Cl
ATOM     16 CL   UNL     1       3.888  -1.196   2.004  0.00  0.00    -0.079 Cl
ENDBRANCH   2  12
BRANCH   2  17
ATOM     17  N   UNL     1       4.332  -1.237  -1.343  0.00  0.00    +0.061 N 
ATOM     18  O   UNL     1       4.601  -1.940  -2.424  0.00  0.00    -0.126 OA
ATOM     19  O   UNL     1       3.167  -0.634  -1.222  0.00  0.00    -0.126 OA
ENDBRANCH   2  17
BRANCH   1  20
ATOM     20  N   UNL     1       7.019  -2.247  -1.619  0.00  0.00    -0.297 N 
ATOM     21  H   UNL     1       7.053  -1.698  -2.418  0.00  0.00    +0.154 HD
BRANCH  20  31
ATOM     22  C   UNL     1       8.815  -5.281  -5.224  0.00  0.00    +0.001 A 
ATOM     23  C   UNL     1       8.518  -3.922  -5.171  0.00  0.00    +0.001 A 
ATOM     24  C   UNL     1       8.030  -3.354  -4.031  0.00  0.00    +0.010 A 
ATOM     25  C   UNL     1       7.824  -4.147  -2.894  0.00  0.00    +0.003 A 
ATOM     26  C   UNL     1       8.126  -5.530  -2.946  0.00  0.00    -0.016 A 
ATOM     27  C   UNL     1       8.627  -6.082  -4.137  0.00  0.00    +0.008 A 
ATOM     28  C   UNL     1       7.919  -6.327  -1.806  0.00  0.00    +0.008 A 
ATOM     29  C   UNL     1       7.430  -5.769  -0.661  0.00  0.00    +0.002 A 
ATOM     30  C   UNL     1       7.129  -4.416  -0.594  0.00  0.00    +0.024 A 
ATOM     31  C   UNL     1       7.320  -3.593  -1.694  0.00  0.00    +0.040 A 
ENDBRANCH  20  31
ENDBRANCH   1  20
TORSDOF 5
