REMARK  Name = ZINC67314894
REMARK  9 active torsions:
REMARK  status: ('A' for Active; 'I' for Inactive)
REMARK    1  A    between atoms: C_1  and  N_2
REMARK    2  A    between atoms: N_2  and  C_3
REMARK    3  A    between atoms: C_4  and  C_6
REMARK    4  A    between atoms: C_6  and  C_8
REMARK    5  A    between atoms: C_6  and  N_15
REMARK    6  A    between atoms: C_8  and  C_9
REMARK    7  A    between atoms: C_16  and  C_18
REMARK    8  A    between atoms: C_21  and  N_27
REMARK    9  A    between atoms: C_22  and  N_24
REMARK                            x       y       z     vdW  Elec       q    Type
REMARK                         _______ _______ _______ _____ _____    ______ ____
ROOT
ATOM      1  N   UNL     1      -2.474  -2.857   0.041  0.00  0.00    -0.300 N 
ATOM      2  C   UNL     1      -3.226  -2.745  -1.072  0.00  0.00    +0.245 C 
ATOM      3  O   UNL     1      -2.779  -2.182  -2.053  0.00  0.00    -0.270 OA
ATOM      4  H   UNL     1      -2.830  -3.305   0.824  0.00  0.00    +0.150 HD
ENDROOT
BRANCH   2   5
ATOM      5  C   UNL     1      -4.590  -3.304  -1.099  0.00  0.00    +0.039 A 
ATOM      6  C   UNL     1      -5.107  -3.946   0.030  0.00  0.00    +0.015 A 
ATOM      7  C   UNL     1      -6.381  -4.466   0.001  0.00  0.00    +0.026 A 
ATOM      8  C   UNL     1      -7.154  -4.355  -1.151  0.00  0.00    +0.055 A 
ATOM      9  C   UNL     1      -6.642  -3.717  -2.278  0.00  0.00    +0.147 A 
ATOM     10  C   UNL     1      -5.371  -3.189  -2.253  0.00  0.00    +0.047 A 
BRANCH   9  11
ATOM     11  N   UNL     1      -7.467  -3.601  -3.501  0.00  0.00    +0.058 N 
ATOM     12  O   UNL     1      -6.951  -3.702  -4.590  0.00  0.00    -0.126 OA
ATOM     13  O   UNL     1      -8.657  -3.406  -3.412  0.00  0.00    -0.126 OA
ENDBRANCH   9  11
BRANCH   8  14
ATOM     14  N   UNL     1      -8.440  -4.882  -1.178  0.00  0.00    -0.356 N 
ATOM     15  H   UNL     1      -8.841  -5.225  -0.363  0.00  0.00    +0.142 HD
ATOM     16  H   UNL     1      -8.937  -4.907  -2.010  0.00  0.00    +0.142 HD
ENDBRANCH   8  14
ENDBRANCH   2   5
BRANCH   1  17
ATOM     17  C   UNL     1      -1.119  -2.301   0.069  0.00  0.00    +0.164 C 
BRANCH  17  21
ATOM     18  C   UNL     1      -0.109   1.303   0.874  0.00  0.00    +0.131 C 
ATOM     19  N   UNL     1      -0.048  -0.117   0.519  0.00  0.00    -0.306 N 
ATOM     20  C   UNL     1       1.247  -0.752   0.259  0.00  0.00    +0.131 C 
ATOM     21  C   UNL     1      -1.182  -0.840   0.433  0.00  0.00    +0.236 C 
ATOM     22  O   UNL     1      -2.254  -0.315   0.648  0.00  0.00    -0.274 OA
ENDBRANCH  17  21
BRANCH  17  23
ATOM     23  C   UNL     1      -0.281  -3.050   1.108  0.00  0.00    +0.067 C 
BRANCH  23  24
ATOM     24  C   UNL     1      -0.115  -4.485   0.679  0.00  0.00    -0.045 A 
ATOM     25  C   UNL     1      -1.040  -5.435   1.071  0.00  0.00    +0.004 A 
ATOM     26  C   UNL     1      -0.887  -6.751   0.678  0.00  0.00    +0.000 A 
ATOM     27  C   UNL     1       0.190  -7.118  -0.108  0.00  0.00    +0.000 A 
ATOM     28  C   UNL     1       1.114  -6.168  -0.500  0.00  0.00    +0.000 A 
ATOM     29  C   UNL     1       0.959  -4.851  -0.111  0.00  0.00    +0.004 A 
ENDBRANCH  23  24
ENDBRANCH  17  23
ENDBRANCH   1  17
TORSDOF 7
