REMARK  Name = ZINC14883590
REMARK  10 active torsions:
REMARK  status: ('A' for Active; 'I' for Inactive)
REMARK    1  A    between atoms: C_1  and  C_2
REMARK    2  A    between atoms: C_3  and  O_31
REMARK    3  A    between atoms: C_6  and  C_10
REMARK    4  A    between atoms: C_7  and  O_8
REMARK    5  A    between atoms: O_8  and  C_9
REMARK    6  A    between atoms: C_10  and  N_67
REMARK    7  A    between atoms: C_16  and  C_19
REMARK    8  A    between atoms: C_19  and  N_20
REMARK    9  A    between atoms: C_21  and  C_23
REMARK   10  A    between atoms: O_31  and  C_32
REMARK                            x       y       z     vdW  Elec       q    Type
REMARK                         _______ _______ _______ _____ _____    ______ ____
ROOT
ATOM      1  C   UNL     1       0.819  -0.525   1.106  0.00  0.00    -0.076 C 
ATOM      2  C   UNL     1       0.688  -2.050   1.161  0.00  0.00    +0.016 C 
ATOM      3  C   UNL     1       1.131  -2.643  -0.173  0.00  0.00    +0.067 C 
ATOM      4  C   UNL     1       0.966  -4.174  -0.155  0.00  0.00    +0.037 C 
ATOM      5  C   UNL     1       2.194  -4.690  -0.940  0.00  0.00    +0.036 C 
ATOM      6  C   UNL     1       2.948  -3.403  -1.345  0.00  0.00    +0.136 C 
ATOM      7  O   UNL     1       2.536  -2.411  -0.379  0.00  0.00    -0.369 OA
ATOM      8  C   UNL     1       0.323  -2.042  -1.319  0.00  0.00    +0.016 C 
ATOM      9  C   UNL     1       0.466  -0.517  -1.294  0.00  0.00    -0.076 C 
ATOM     10  N   UNL     1      -0.027  -0.013   0.006  0.00  0.00    +0.383 N 
ATOM     11  H   UNL     1      -0.990  -0.340   0.147  0.00  0.00    -0.081 HD
ENDROOT
BRANCH  10  12
ATOM     12  C   UNL     1      -0.018   1.465   0.010  0.00  0.00    -0.039 C 
BRANCH  12  18
ATOM     13  C   UNL     1       0.033   2.475   4.920  0.00  0.00    +0.051 C 
ATOM     14  C   UNL     1      -0.698   2.435   3.602  0.00  0.00    +0.033 A 
ATOM     15  C   UNL     1      -2.020   2.844   3.529  0.00  0.00    +0.126 A 
ATOM     16  C   UNL     1      -2.691   2.805   2.314  0.00  0.00    +0.046 A 
ATOM     17  C   UNL     1      -2.039   2.365   1.178  0.00  0.00    +0.009 A 
ATOM     18  C   UNL     1      -0.723   1.951   1.250  0.00  0.00    -0.022 A 
ATOM     19  C   UNL     1      -0.048   1.988   2.462  0.00  0.00    +0.128 A 
BRANCH  19  20
ATOM     20  O   UNL     1       1.248   1.585   2.531  0.00  0.00    -0.495 OA
ATOM     21  C   UNL     1       2.249   2.582   2.316  0.00  0.00    +0.277 C 
ENDBRANCH  19  20
BRANCH  15  22
ATOM     22  O   UNL     1      -2.660   3.283   4.645  0.00  0.00    -0.495 OA
ATOM     23  C   UNL     1      -4.022   3.689   4.495  0.00  0.00    +0.277 C 
ENDBRANCH  15  22
ENDBRANCH  12  18
ENDBRANCH  10  12
BRANCH   6  24
ATOM     24  C   UNL     1       4.460  -3.626  -1.268  0.00  0.00    +0.135 C 
BRANCH  24  25
ATOM     25  N   UNL     1       5.154  -2.396  -1.656  0.00  0.00    -0.311 N 
ATOM     26  C   UNL     1       6.502  -2.356  -1.663  0.00  0.00    +0.242 C 
ATOM     27  O   UNL     1       7.139  -3.339  -1.347  0.00  0.00    -0.273 OA
ATOM     28  H   UNL     1       4.645  -1.610  -1.908  0.00  0.00    +0.149 HD
BRANCH  26  29
ATOM     29  C   UNL     1       7.216  -1.091  -2.062  0.00  0.00    +0.204 C 
ATOM     30  C   UNL     1       6.954   0.026  -1.021  0.00  0.00    +0.043 C 
ATOM     31  C   UNL     1       8.205   0.923  -1.230  0.00  0.00    +0.031 C 
ATOM     32  C   UNL     1       9.297  -0.111  -1.579  0.00  0.00    +0.161 C 
ATOM     33  O   UNL     1       8.638  -1.295  -2.045  0.00  0.00    -0.367 OA
ENDBRANCH  26  29
ENDBRANCH  24  25
ENDBRANCH   6  24
TORSDOF 7
