REMARK  Name = ZINC63354569
REMARK  6 active torsions:
REMARK  status: ('A' for Active; 'I' for Inactive)
REMARK    1  A    between atoms: C_14  and  C_15
REMARK    2  A    between atoms: N_17  and  C_18
REMARK    3  A    between atoms: C_18  and  C_19
REMARK    4  A    between atoms: N_21  and  C_22
REMARK    5  A    between atoms: C_22  and  C_23
REMARK    6  A    between atoms: C_23  and  O_24
REMARK                            x       y       z     vdW  Elec       q    Type
REMARK                         _______ _______ _______ _____ _____    ______ ____
ROOT
ATOM      1  C   UNL     1      -0.018   1.454   0.010  0.00  0.00    +0.015 A 
ATOM      2  C   UNL     1       1.127   2.167   0.003  0.00  0.00    +0.026 A 
ATOM      3  C   UNL     1       2.419   1.474  -0.013  0.00  0.00    +0.043 A 
ATOM      4  N   UNL     1       3.647   1.938  -0.043  0.00  0.00    -0.378 N 
ATOM      5  C   UNL     1       4.572   0.812   0.034  0.00  0.00    +0.106 C 
ATOM      6  C   UNL     1       5.549   0.780  -1.145  0.00  0.00    +0.029 C 
ATOM      7  C   UNL     1       6.276  -0.569  -1.138  0.00  0.00    +0.003 C 
ATOM      8  C   UNL     1       5.306  -1.719  -1.403  0.00  0.00    +0.004 C 
ATOM      9  C   UNL     1       4.278  -1.813  -0.262  0.00  0.00    +0.033 C 
ATOM     10  C   UNL     1       3.703  -0.430  -0.058  0.00  0.00    -0.038 C 
ATOM     11  C   UNL     1       2.426  -0.009  -0.030  0.00  0.00    -0.000 A 
ATOM     12  C   UNL     1       1.187  -0.702  -0.017  0.00  0.00    +0.023 A 
ATOM     13  C   UNL     1       0.002  -0.004   0.002  0.00  0.00    +0.037 A 
ATOM     14  H   UNL     1       3.898   2.873  -0.106  0.00  0.00    +0.160 HD
ENDROOT
BRANCH  13  15
ATOM     15  C   UNL     1      -1.273  -0.744   0.015  0.00  0.00    +0.244 C 
ATOM     16  O   UNL     1      -1.271  -1.960   0.009  0.00  0.00    -0.270 OA
ATOM     17  N   UNL     1      -2.442  -0.073   0.035  0.00  0.00    -0.303 N 
ATOM     18  H   UNL     1      -2.444   0.897   0.040  0.00  0.00    +0.150 HD
BRANCH  17  19
ATOM     19  C   UNL     1      -3.709  -0.809   0.048  0.00  0.00    +0.200 C 
BRANCH  19  20
ATOM     20  C   UNL     1      -4.856   0.168   0.069  0.00  0.00    +0.230 C 
ATOM     21  O   UNL     1      -4.637   1.361   0.073  0.00  0.00    -0.274 OA
ATOM     22  N   UNL     1      -6.126  -0.284   0.084  0.00  0.00    -0.312 N 
ATOM     23  H   UNL     1      -6.301  -1.238   0.082  0.00  0.00    +0.149 HD
BRANCH  22  24
ATOM     24  C   UNL     1      -7.242   0.665   0.104  0.00  0.00    +0.132 C 
BRANCH  24  25
ATOM     25  C   UNL     1      -8.565  -0.103   0.118  0.00  0.00    +0.174 C 
BRANCH  25  26
ATOM     26  O   UNL     1      -8.674  -0.841   1.337  0.00  0.00    -0.393 OA
ATOM     27  H   UNL     1      -9.491  -1.353   1.415  0.00  0.00    +0.209 HD
ENDBRANCH  25  26
ENDBRANCH  24  25
ENDBRANCH  22  24
ENDBRANCH  19  20
ENDBRANCH  17  19
ENDBRANCH  13  15
TORSDOF 6
