REMARK  Name = ZINC59293280
REMARK  3 active torsions:
REMARK  status: ('A' for Active; 'I' for Inactive)
REMARK    1  A    between atoms: C_1  and  N_2
REMARK    2  A    between atoms: C_24  and  N_28
REMARK    3  A    between atoms: C_25  and  C_26
REMARK                            x       y       z     vdW  Elec       q    Type
REMARK                         _______ _______ _______ _____ _____    ______ ____
ROOT
ATOM      1  C   UNL     1      -0.018   1.461   0.010  0.00  0.00    +0.138 C 
ATOM      2  N   UNL     1       0.002  -0.004   0.002  0.00  0.00    -0.273 N 
ATOM      3  C   UNL     1      -1.135  -0.793   0.003  0.00  0.00    +0.041 A 
ATOM      4  C   UNL     1      -2.478  -0.412   0.013  0.00  0.00    +0.025 A 
ATOM      5  C   UNL     1      -3.424  -1.425   0.013  0.00  0.00    +0.017 A 
ATOM      6  C   UNL     1      -3.067  -2.759   0.004  0.00  0.00    +0.018 A 
ATOM      7  C   UNL     1      -1.732  -3.151  -0.007  0.00  0.00    +0.022 A 
ATOM      8  C   UNL     1      -0.786  -2.149  -0.007  0.00  0.00    -0.000 A 
ATOM      9  C   UNL     1       0.710  -2.198  -0.016  0.00  0.00    +0.148 C 
ATOM     10  C   UNL     1       1.131  -0.743  -0.013  0.00  0.00    +0.240 C 
ATOM     11  O   UNL     1       2.268  -0.321  -0.021  0.00  0.00    -0.274 OA
ATOM     12  C   UNL     1       1.216  -2.870  -1.261  0.00  0.00    +0.104 A 
ATOM     13  C   UNL     1       1.736  -4.130  -1.202  0.00  0.00    +0.152 A 
ATOM     14  C   UNL     1       2.207  -4.746  -2.452  0.00  0.00    +0.060 A 
ATOM     15  C   UNL     1       2.736  -6.039  -2.464  0.00  0.00    +0.015 A 
ATOM     16  C   UNL     1       3.166  -6.587  -3.652  0.00  0.00    +0.001 A 
ATOM     17  C   UNL     1       3.076  -5.862  -4.831  0.00  0.00    +0.004 A 
ATOM     18  C   UNL     1       2.557  -4.584  -4.833  0.00  0.00    +0.047 A 
ATOM     19  C   UNL     1       2.118  -4.013  -3.646  0.00  0.00    +0.143 A 
ATOM     20  O   UNL     1       1.607  -2.763  -3.628  0.00  0.00    -0.422 OA
ATOM     21  C   UNL     1       1.157  -2.200  -2.495  0.00  0.00    +0.346 A 
ATOM     22  O   UNL     1       0.685  -1.078  -2.538  0.00  0.00    -0.245 OA
ATOM     23  O   UNL     1       1.821  -4.802  -0.039  0.00  0.00    -0.440 OA
ATOM     24  C   UNL     1       1.752  -4.141   1.131  0.00  0.00    +0.199 C 
ATOM     25  C   UNL     1       1.231  -2.892   1.210  0.00  0.00    +0.110 C 
ATOM     26 BR   UNL     1      -4.420  -4.080   0.005  0.00  0.00    -0.050 Br
ENDROOT
BRANCH  24  27
ATOM     27  N   UNL     1       2.220  -4.745   2.271  0.00  0.00    -0.328 N 
ATOM     28  H   UNL     1       2.595  -5.639   2.227  0.00  0.00    +0.145 HD
ATOM     29  H   UNL     1       2.176  -4.279   3.120  0.00  0.00    +0.145 HD
ENDBRANCH  24  27
BRANCH  25  30
ATOM     30  C   UNL     1       1.176  -2.226   2.477  0.00  0.00    +0.102 C 
ATOM     31  N   UNL     1       1.133  -1.698   3.482  0.00  0.00    -0.191 NA
ENDBRANCH  25  30
TORSDOF 2
