REMARK  Name = ZINC63351561
REMARK  2 active torsions:
REMARK  status: ('A' for Active; 'I' for Inactive)
REMARK    1  A    between atoms: C_8  and  C_16
REMARK    2  A    between atoms: N_22  and  C_25
REMARK                            x       y       z     vdW  Elec       q    Type
REMARK                         _______ _______ _______ _____ _____    ______ ____
ROOT
ATOM      1  C   UNL     1       3.429  -2.235   2.321  0.00  0.00    +0.101 A 
ATOM      2  C   UNL     1       4.470  -2.093   3.257  0.00  0.00    +0.263 A 
ATOM      3  N   UNL     1       4.228  -1.479   4.432  0.00  0.00    -0.274 N 
ATOM      4  H   UNL     1       4.944  -1.379   5.079  0.00  0.00    +0.173 HD
ATOM      5  C   UNL     1       3.002  -1.002   4.714  0.00  0.00    +0.337 A 
ATOM      6  O   UNL     1       2.805  -0.451   5.780  0.00  0.00    -0.246 OA
ATOM      7  N   UNL     1       1.991  -1.126   3.834  0.00  0.00    -0.227 N 
ATOM      8  C   UNL     1       2.195  -1.741   2.623  0.00  0.00    +0.270 A 
ATOM      9  O   UNL     1       1.180  -1.859   1.741  0.00  0.00    -0.267 OA
ATOM     10  O   UNL     1       5.582  -2.523   3.007  0.00  0.00    -0.267 OA
ENDROOT
BRANCH   1  17
ATOM     11  C   UNL     1       0.357   1.627  -0.065  0.00  0.00    +0.001 A 
ATOM     12  C   UNL     1       1.592   2.289  -0.015  0.00  0.00    +0.002 A 
ATOM     13  C   UNL     1       2.770   1.631   0.004  0.00  0.00    +0.026 A 
ATOM     14  C   UNL     1       2.803   0.211  -0.027  0.00  0.00    +0.043 A 
ATOM     15  N   UNL     1       3.804  -0.641   0.007  0.00  0.00    -0.376 N 
ATOM     16  C   UNL     1       3.268  -1.989  -0.145  0.00  0.00    +0.128 C 
ATOM     17  C   UNL     1       3.676  -2.919   1.001  0.00  0.00    +0.121 C 
ATOM     18  N   UNL     1       2.864  -4.143   0.916  0.00  0.00    -0.307 NA
ATOM     19  C   UNL     1       1.441  -3.912   1.181  0.00  0.00    +0.086 C 
ATOM     20  C   UNL     1       0.837  -3.021   0.081  0.00  0.00    +0.048 C 
ATOM     21  C   UNL     1       1.757  -1.831  -0.079  0.00  0.00    -0.035 C 
ATOM     22  C   UNL     1       1.509  -0.516  -0.070  0.00  0.00    -0.001 A 
ATOM     23  C   UNL     1       0.274   0.278  -0.093  0.00  0.00    +0.010 A 
ATOM     24  H   UNL     1       2.997  -4.604   0.028  0.00  0.00    +0.123 HD
ATOM     25  H   UNL     1       4.740  -0.411   0.116  0.00  0.00    +0.160 HD
ENDBRANCH   1  17
BRANCH   7  26
ATOM     26  C   UNL     1       0.724  -0.620   4.154  0.00  0.00    +0.073 A 
ATOM     27  C   UNL     1       0.391   0.685   3.817  0.00  0.00    +0.028 A 
ATOM     28  C   UNL     1      -0.859   1.181   4.132  0.00  0.00    +0.002 A 
ATOM     29  C   UNL     1      -1.779   0.380   4.784  0.00  0.00    +0.002 A 
ATOM     30  C   UNL     1      -1.451  -0.920   5.122  0.00  0.00    +0.022 A 
ATOM     31  C   UNL     1      -0.203  -1.424   4.804  0.00  0.00    +0.065 A 
ATOM     32 CL   UNL     1       0.206  -3.059   5.223  0.00  0.00    -0.081 Cl
ENDBRANCH   7  26
TORSDOF 2
