REMARK  Name = ZINC64567038
REMARK  10 active torsions:
REMARK  status: ('A' for Active; 'I' for Inactive)
REMARK    1  A    between atoms: C_1  and  C_2
REMARK    2  A    between atoms: C_2  and  C_3
REMARK    3  A    between atoms: C_10  and  N_14
REMARK    4  A    between atoms: C_11  and  C_13
REMARK    5  A    between atoms: C_15  and  C_17
REMARK    6  A    between atoms: C_17  and  O_18
REMARK    7  A    between atoms: O_18  and  C_19
REMARK    8  A    between atoms: C_22  and  C_25
REMARK    9  A    between atoms: C_25  and  C_26
REMARK   10  A    between atoms: C_25  and  C_27
REMARK                            x       y       z     vdW  Elec       q    Type
REMARK                         _______ _______ _______ _____ _____    ______ ____
ROOT
ATOM      1  N   UNL     1      -1.880  -0.287   4.865  0.00  0.00    -0.277 N 
ATOM      2  C   UNL     1      -0.595   0.091   5.016  0.00  0.00    +0.255 C 
ATOM      3  O   UNL     1       0.105   0.267   4.041  0.00  0.00    -0.272 OA
ATOM      4  H   UNL     1      -2.458  -0.361   5.640  0.00  0.00    +0.155 HD
ENDROOT
BRANCH   1  12
ATOM      5  C   UNL     1      -2.910   0.971   0.263  0.00  0.00    +0.035 A 
ATOM      6  C   UNL     1      -3.408   0.570  -0.906  0.00  0.00    +0.070 A 
ATOM      7  S   UNL     1      -3.865  -1.119  -0.549  0.00  0.00    -0.059 S 
ATOM      8  C   UNL     1      -3.345  -1.146   1.153  0.00  0.00    +0.158 A 
ATOM      9  N   UNL     1      -2.855   0.119   1.341  0.00  0.00    -0.259 N 
ATOM     10  C   UNL     1      -2.367   0.406   2.584  0.00  0.00    +0.280 A 
ATOM     11  O   UNL     1      -1.919   1.517   2.825  0.00  0.00    -0.265 OA
ATOM     12  C   UNL     1      -2.381  -0.575   3.583  0.00  0.00    +0.118 A 
ATOM     13  C   UNL     1      -2.891  -1.829   3.302  0.00  0.00    +0.041 A 
ATOM     14  N   UNL     1      -3.366  -2.068   2.081  0.00  0.00    -0.337 N 
ATOM     15  C   UNL     1      -2.917  -2.902   4.360  0.00  0.00    +0.065 C 
ATOM     16  H   UNL     1      -3.725  -2.945   1.873  0.00  0.00    +0.168 HD
BRANCH   5  18
ATOM     17  C   UNL     1      -3.493   3.271   0.985  0.00  0.00    +0.010 C 
ATOM     18  C   UNL     1      -2.393   2.379   0.405  0.00  0.00    +0.051 C 
ENDBRANCH   5  18
ENDBRANCH   1  12
BRANCH   2  19
ATOM     19  C   UNL     1      -0.028   0.296   6.397  0.00  0.00    +0.324 C 
BRANCH  19  20
ATOM     20  O   UNL     1       1.341   0.692   6.296  0.00  0.00    -0.483 OA
BRANCH  20  21
ATOM     21  C   UNL     1       2.006   0.919   7.460  0.00  0.00    +0.121 A 
ATOM     22  C   UNL     1       1.354   0.759   8.674  0.00  0.00    +0.046 A 
ATOM     23  C   UNL     1       2.032   0.990   9.856  0.00  0.00    +0.007 A 
ATOM     24  C   UNL     1       3.358   1.381   9.829  0.00  0.00    -0.045 A 
ATOM     25  C   UNL     1       4.009   1.542   8.620  0.00  0.00    +0.007 A 
ATOM     26  C   UNL     1       3.338   1.306   7.436  0.00  0.00    +0.046 A 
BRANCH  24  27
ATOM     27  C   UNL     1       4.094   1.633  11.119  0.00  0.00    +0.013 C 
ATOM     28  C   UNL     1       5.293   0.687  11.215  0.00  0.00    +0.012 C 
ATOM     29  C   UNL     1       4.585   3.082  11.152  0.00  0.00    +0.012 C 
ENDBRANCH  24  27
ENDBRANCH  20  21
ENDBRANCH  19  20
ENDBRANCH   2  19
TORSDOF 6
