REMARK  Name = ZINC44218067
REMARK  7 active torsions:
REMARK  status: ('A' for Active; 'I' for Inactive)
REMARK    1  A    between atoms: C_1  and  C_2
REMARK    2  A    between atoms: C_5  and  N_8
REMARK    3  A    between atoms: N_8  and  C_9
REMARK    4  A    between atoms: C_10  and  C_20
REMARK    5  A    between atoms: C_20  and  C_22
REMARK    6  A    between atoms: C_20  and  N_26
REMARK    7  A    between atoms: C_22  and  C_23
REMARK                            x       y       z     vdW  Elec       q    Type
REMARK                         _______ _______ _______ _____ _____    ______ ____
ROOT
ATOM      1  C   UNL     1       0.213  -4.787   1.212  0.00  0.00    +0.132 A 
ATOM      2  C   UNL     1       0.244  -6.177   1.290  0.00  0.00    +0.044 A 
ATOM      3  C   UNL     1       0.241  -6.781   2.545  0.00  0.00    +0.262 A 
ATOM      4  O   UNL     1       0.268  -7.998   2.647  0.00  0.00    -0.267 OA
ATOM      5  N   UNL     1       0.208  -6.004   3.648  0.00  0.00    -0.268 N 
ATOM      6  C   UNL     1       0.204  -6.586   4.881  0.00  0.00    +0.096 A 
ATOM      7  C   UNL     1       0.171  -5.832   6.002  0.00  0.00    +0.018 A 
ATOM      8  C   UNL     1       0.140  -4.433   5.909  0.00  0.00    +0.005 A 
ATOM      9  C   UNL     1       0.143  -3.840   4.683  0.00  0.00    +0.047 A 
ATOM     10  C   UNL     1       0.178  -4.642   3.526  0.00  0.00    +0.142 A 
ATOM     11  N   UNL     1       0.186  -4.063   2.328  0.00  0.00    -0.214 NA
ENDROOT
BRANCH   1  12
ATOM     12  N   UNL     1       0.217  -4.161  -0.022  0.00  0.00    -0.299 N 
ATOM     13  H   UNL     1       0.934  -4.333  -0.651  0.00  0.00    +0.154 HD
BRANCH  12  18
ATOM     14  C   UNL     1      -3.968  -0.588  -1.399  0.00  0.00    +0.044 C 
ATOM     15  C   UNL     1      -2.856  -1.538  -1.033  0.00  0.00    -0.050 A 
ATOM     16  C   UNL     1      -1.766  -1.679  -1.872  0.00  0.00    +0.005 A 
ATOM     17  C   UNL     1      -0.745  -2.548  -1.540  0.00  0.00    +0.023 A 
ATOM     18  C   UNL     1      -0.815  -3.280  -0.361  0.00  0.00    +0.032 A 
ATOM     19  C   UNL     1      -1.911  -3.135   0.479  0.00  0.00    +0.023 A 
ATOM     20  C   UNL     1      -2.926  -2.261   0.143  0.00  0.00    +0.005 A 
ENDBRANCH  12  18
ENDBRANCH   1  12
BRANCH   2  21
ATOM     21  C   UNL     1       0.280  -7.014   0.037  0.00  0.00    -0.025 C 
BRANCH  21  22
ATOM     22  N   UNL     1      -0.850  -7.953   0.042  0.00  0.00    +0.383 N 
ATOM     23  H   UNL     1      -1.716  -7.436   0.077  0.00  0.00    -0.089 HD
ATOM     24  H   UNL     1      -0.826  -8.513  -0.797  0.00  0.00    -0.089 HD
ATOM     25  H   UNL     1      -0.784  -8.553   0.850  0.00  0.00    -0.089 HD
ENDBRANCH  21  22
BRANCH  21  26
ATOM     26  C   UNL     1       1.594  -7.798  -0.015  0.00  0.00    +0.114 C 
BRANCH  26  27
ATOM     27  C   UNL     1       1.685  -8.539  -1.325  0.00  0.00    +0.355 C 
ATOM     28  O   UNL     1       0.783  -8.449  -2.140  0.00  0.00    -0.246 OA
ATOM     29  O   UNL     1       2.660  -9.228  -1.568  0.00  0.00    -0.246 OA
ENDBRANCH  26  27
ENDBRANCH  21  26
ENDBRANCH   2  21
TORSDOF 6
