REMARK  Name = ZINC15860421
REMARK  7 active torsions:
REMARK  status: ('A' for Active; 'I' for Inactive)
REMARK    1  A    between atoms: C_1  and  C_2
REMARK    2  A    between atoms: C_11  and  C_13
REMARK    3  A    between atoms: N_15  and  C_16
REMARK    4  A    between atoms: C_16  and  C_17
REMARK    5  A    between atoms: C_17  and  C_19
REMARK    6  A    between atoms: C_17  and  N_55
REMARK    7  A    between atoms: C_22  and  C_24
REMARK                            x       y       z     vdW  Elec       q    Type
REMARK                         _______ _______ _______ _____ _____    ______ ____
ROOT
ATOM      1  C   UNL     1      -5.499   5.719   2.178  0.00  0.00    +0.279 C 
ATOM      2  O   UNL     1      -4.677   6.385   1.581  0.00  0.00    -0.267 OA
ATOM      3  N   UNL     1      -5.172   4.493   2.633  0.00  0.00    -0.310 N 
ATOM      4  H   UNL     1      -5.829   3.962   3.110  0.00  0.00    +0.149 HD
ENDROOT
BRANCH   1  15
ATOM      5  C   UNL     1     -13.019   7.181   4.138  0.00  0.00    +0.044 C 
ATOM      6  C   UNL     1     -11.607   6.739   3.848  0.00  0.00    -0.050 A 
ATOM      7  C   UNL     1     -11.174   5.492   4.275  0.00  0.00    +0.007 A 
ATOM      8  C   UNL     1      -9.887   5.068   4.020  0.00  0.00    +0.047 A 
ATOM      9  C   UNL     1      -9.010   5.897   3.328  0.00  0.00    +0.139 A 
ATOM     10  C   UNL     1      -9.457   7.158   2.899  0.00  0.00    +0.064 A 
ATOM     11  C   UNL     1     -10.762   7.569   3.165  0.00  0.00    +0.018 A 
ATOM     12  C   UNL     1      -8.514   8.024   2.166  0.00  0.00    +0.193 A 
ATOM     13  O   UNL     1      -8.839   9.129   1.767  0.00  0.00    -0.287 OA
ATOM     14  C   UNL     1      -7.162   7.491   1.939  0.00  0.00    +0.103 A 
ATOM     15  C   UNL     1      -6.862   6.256   2.407  0.00  0.00    +0.193 A 
ATOM     16  O   UNL     1      -7.750   5.497   3.065  0.00  0.00    -0.450 OA
ENDBRANCH   1  15
BRANCH   3  17
ATOM     17  C   UNL     1      -3.825   3.963   2.407  0.00  0.00    +0.097 C 
BRANCH  17  18
ATOM     18  C   UNL     1      -3.680   2.618   3.120  0.00  0.00    +0.016 C 
BRANCH  18  24
ATOM     19  C   UNL     1      -4.697   0.440   3.413  0.00  0.00    -0.078 C 
ATOM     20  C   UNL     1      -5.908  -0.417   3.038  0.00  0.00    -0.019 C 
ATOM     21  C   UNL     1      -5.899  -0.673   1.528  0.00  0.00    -0.004 C 
ATOM     22  C   UNL     1      -5.907   0.669   0.791  0.00  0.00    -0.019 C 
ATOM     23  C   UNL     1      -4.696   1.495   1.231  0.00  0.00    -0.078 C 
ATOM     24  N   UNL     1      -4.777   1.727   2.689  0.00  0.00    +0.387 N 
ATOM     25  H   UNL     1      -5.675   2.175   2.905  0.00  0.00    -0.081 HD
ENDBRANCH  18  24
BRANCH  18  26
ATOM     26  C   UNL     1      -2.342   2.012   2.784  0.00  0.00    +0.093 A 
ATOM     27  C   UNL     1      -1.296   1.900   3.621  0.00  0.00    +0.043 A 
ATOM     28  C   UNL     1      -0.255   1.277   2.896  0.00  0.00    +0.044 A 
ATOM     29  C   UNL     1      -0.727   1.046   1.658  0.00  0.00    +0.102 A 
ATOM     30  O   UNL     1      -1.990   1.498   1.594  0.00  0.00    -0.466 OA
ATOM     31  C   UNL     1       0.035   0.395   0.531  0.00  0.00    +0.086 C 
ENDBRANCH  18  26
ENDBRANCH  17  18
ENDBRANCH   3  17
TORSDOF 5
