REMARK  Name = ZINC07535582
REMARK  4 active torsions:
REMARK  status: ('A' for Active; 'I' for Inactive)
REMARK    1  A    between atoms: C_1  and  C_2
REMARK    2  A    between atoms: C_2  and  C_4
REMARK    3  A    between atoms: C_2  and  S_16
REMARK    4  A    between atoms: S_16  and  C_17
REMARK                            x       y       z     vdW  Elec       q    Type
REMARK                         _______ _______ _______ _____ _____    ______ ____
ROOT
ATOM      1  C   UNL     1      -0.749   3.086   1.275  0.00  0.00    +0.229 C 
ATOM      2  O   UNL     1      -1.748   3.681   0.929  0.00  0.00    -0.274 OA
ATOM      3  N   UNL     1       0.342   3.773   1.668  0.00  0.00    -0.296 N 
ATOM      4  C   UNL     1       0.357   5.245   1.681  0.00  0.00    +0.113 C 
ATOM      5  C   UNL     1       0.517   5.694   3.138  0.00  0.00    +0.054 C 
ATOM      6  C   UNL     1       1.629   4.935   3.813  0.00  0.00    -0.041 A 
ATOM      7  C   UNL     1       2.180   5.487   4.963  0.00  0.00    +0.004 A 
ATOM      8  C   UNL     1       3.193   4.838   5.637  0.00  0.00    +0.000 A 
ATOM      9  C   UNL     1       3.667   3.627   5.166  0.00  0.00    +0.000 A 
ATOM     10  C   UNL     1       3.124   3.079   4.022  0.00  0.00    +0.005 A 
ATOM     11  C   UNL     1       2.107   3.733   3.341  0.00  0.00    -0.027 A 
ATOM     12  C   UNL     1       1.565   3.083   2.092  0.00  0.00    +0.143 C 
ENDROOT
BRANCH   1  14
ATOM     13  C   UNL     1      -0.013   1.086   0.008  0.00  0.00    +0.029 C 
ATOM     14  C   UNL     1      -0.729   1.579   1.267  0.00  0.00    +0.136 C 
BRANCH  14  15
ATOM     15  S   UNL     1      -2.431   0.951   1.280  0.00  0.00    -0.084 S 
BRANCH  15  16
ATOM     16  C   UNL     1      -2.240  -0.795   1.417  0.00  0.00    +0.161 A 
ATOM     17  N   UNL     1      -1.135  -1.512   1.490  0.00  0.00    -0.133 NA
ATOM     18  N   UNL     1      -1.214  -2.881   1.599  0.00  0.00    -0.125 NA
ATOM     19  C   UNL     1      -2.392  -3.471   1.619  0.00  0.00    +0.180 A 
ATOM     20  S   UNL     1      -3.490  -2.068   1.489  0.00  0.00    -0.025 S 
ATOM     21  N   UNL     1      -2.699  -4.823   1.716  0.00  0.00    -0.336 N 
ATOM     22  H   UNL     1      -3.625  -5.112   1.719  0.00  0.00    +0.144 HD
ATOM     23  H   UNL     1      -1.987  -5.479   1.782  0.00  0.00    +0.144 HD
ENDBRANCH  15  16
ENDBRANCH  14  15
ENDBRANCH   1  14
TORSDOF 3
