REMARK  Name = ZINC20032739
REMARK  9 active torsions:
REMARK  status: ('A' for Active; 'I' for Inactive)
REMARK    1  A    between atoms: C_1  and  C_2
REMARK    2  A    between atoms: C_2  and  C_3
REMARK    3  A    between atoms: C_2  and  C_4
REMARK    4  A    between atoms: C_4  and  C_6
REMARK    5  A    between atoms: C_4  and  O_24
REMARK    6  A    between atoms: C_6  and  N_7
REMARK    7  A    between atoms: C_9  and  C_22
REMARK    8  A    between atoms: C_13  and  N_15
REMARK    9  A    between atoms: N_15  and  C_16
REMARK                            x       y       z     vdW  Elec       q    Type
REMARK                         _______ _______ _______ _____ _____    ______ ____
ROOT
ATOM      1  N   UNL     1      -3.036   1.787   2.766  0.00  0.00    -0.302 N 
ATOM      2  C   UNL     1      -3.839   2.856   2.950  0.00  0.00    +0.097 C 
ATOM      3  C   UNL     1      -4.331   3.171   4.195  0.00  0.00    +0.127 C 
ATOM      4  C   UNL     1      -4.000   2.355   5.368  0.00  0.00    +0.258 C 
ATOM      5  O   UNL     1      -4.447   2.652   6.460  0.00  0.00    -0.269 OA
ATOM      6  N   UNL     1      -3.201   1.276   5.237  0.00  0.00    -0.280 N 
ATOM      7  C   UNL     1      -2.680   0.936   3.907  0.00  0.00    +0.235 C 
ATOM      8  H   UNL     1      -2.939   0.654   6.106  0.00  0.00    +0.152 HD
ENDROOT
BRANCH   7   9
ATOM      9  N   UNL     1      -1.214   0.914   4.002  0.00  0.00    -0.280 NA
ATOM     10  H   UNL     1      -0.796   1.736   3.404  0.00  0.00    +0.125 HD
BRANCH   9  11
ATOM     11  C   UNL     1      -0.673  -0.356   3.501  0.00  0.00    +0.057 C 
ATOM     12  C   UNL     1      -0.771  -1.420   4.596  0.00  0.00    +0.019 C 
ATOM     13  C   UNL     1      -0.207  -2.743   4.074  0.00  0.00    +0.002 C 
ATOM     14  C   UNL     1       1.258  -2.552   3.679  0.00  0.00    +0.000 C 
ATOM     15  C   UNL     1       1.357  -1.488   2.584  0.00  0.00    +0.002 C 
ATOM     16  C   UNL     1       0.793  -0.165   3.106  0.00  0.00    +0.019 C 
ENDBRANCH   9  11
ENDBRANCH   7   9
BRANCH   3  17
ATOM     17  C   UNL     1      -5.179   4.314   4.348  0.00  0.00    +0.106 C 
ATOM     18  N   UNL     1      -5.853   5.220   4.470  0.00  0.00    -0.191 NA
ENDBRANCH   3  17
BRANCH   1  19
ATOM     19  C   UNL     1      -2.526   1.473   1.429  0.00  0.00    +0.139 C 
BRANCH  19  20
ATOM     20  C   UNL     1      -1.271   2.304   1.154  0.00  0.00    +0.134 C 
BRANCH  20  22
ATOM     21  C   UNL     1      -0.435   0.528  -0.393  0.00  0.00    +0.010 C 
ATOM     22  C   UNL     1      -0.769   2.016  -0.263  0.00  0.00    +0.013 C 
ATOM     23  C   UNL     1       0.486   2.846  -0.538  0.00  0.00    +0.010 C 
ENDBRANCH  20  22
BRANCH  20  24
ATOM     24  O   UNL     1      -1.583   3.693   1.275  0.00  0.00    -0.390 OA
ATOM     25  H   UNL     1      -1.962   4.090   2.229  0.00  0.00    +0.210 HD
ENDBRANCH  20  24
ENDBRANCH  19  20
ENDBRANCH   1  19
TORSDOF 7
