REMARK  Name = ZINC16495942
REMARK  12 active torsions:
REMARK  status: ('A' for Active; 'I' for Inactive)
REMARK    1  A    between atoms: C_1  and  C_2
REMARK    2  A    between atoms: C_2  and  C_3
REMARK    3  A    between atoms: C_3  and  C_5
REMARK    4  A    between atoms: C_3  and  N_6
REMARK    5  A    between atoms: C_7  and  C_9
REMARK    6  A    between atoms: N_21  and  C_22
REMARK    7  A    between atoms: C_23  and  C_31
REMARK    8  A    between atoms: C_27  and  C_28
REMARK    9  A    between atoms: C_28  and  C_29
REMARK   10  A    between atoms: C_28  and  C_30
REMARK   11  A    between atoms: C_31  and  C_32
REMARK   12  A    between atoms: C_31  and  C_33
REMARK                            x       y       z     vdW  Elec       q    Type
REMARK                         _______ _______ _______ _____ _____    ______ ____
ROOT
ATOM      1  C   UNL     1       2.755  -1.338   1.905  0.00  0.00    +0.028 C 
ATOM      2  C   UNL     1       2.552   0.145   2.337  0.00  0.00    +0.061 C 
ATOM      3  S   UNL     1       4.083   0.344   3.357  0.00  0.00    -0.174 S 
ATOM      4  C   UNL     1       5.137  -0.834   2.418  0.00  0.00    -0.016 C 
ATOM      5  C   UNL     1       5.894  -1.727   3.390  0.00  0.00    +0.017 C 
ATOM      6  C   UNL     1       6.758  -2.721   2.605  0.00  0.00    +0.109 C 
ATOM      7  N   UNL     1       7.598  -1.971   1.661  0.00  0.00    -0.285 N 
ATOM      8  C   UNL     1       6.953  -1.044   0.721  0.00  0.00    +0.109 C 
ATOM      9  C   UNL     1       6.088  -0.059   1.517  0.00  0.00    +0.017 C 
ATOM     10  C   UNL     1       8.936  -2.131   1.657  0.00  0.00    +0.306 C 
ATOM     11  O   UNL     1       9.612  -1.576   0.812  0.00  0.00    -0.252 OA
ATOM     12  N   UNL     1       9.525  -2.905   2.590  0.00  0.00    -0.269 N 
ATOM     13  H   UNL     1       8.982  -3.380   3.239  0.00  0.00    +0.156 HD
ATOM     14  N   UNL     1       4.182  -1.640   1.596  0.00  0.00    +0.397 N 
ATOM     15  H   UNL     1       4.352  -1.440   0.604  0.00  0.00    -0.083 HD
ATOM     16  H   UNL     1       4.352  -2.636   1.778  0.00  0.00    -0.083 HD
ENDROOT
BRANCH  12  17
ATOM     17  C   UNL     1      10.919  -3.024   2.622  0.00  0.00    +0.042 A 
ATOM     18  C   UNL     1      11.511  -4.279   2.587  0.00  0.00    -0.023 A 
ATOM     19  C   UNL     1      12.887  -4.393   2.614  0.00  0.00    +0.006 A 
ATOM     20  C   UNL     1      13.675  -3.259   2.687  0.00  0.00    +0.001 A 
ATOM     21  C   UNL     1      13.088  -2.008   2.728  0.00  0.00    +0.006 A 
ATOM     22  C   UNL     1      11.713  -1.887   2.696  0.00  0.00    -0.023 A 
BRANCH  22  23
ATOM     23  C   UNL     1      11.074  -0.523   2.740  0.00  0.00    +0.015 C 
ATOM     24  C   UNL     1      11.313   0.108   4.114  0.00  0.00    +0.012 C 
ATOM     25  C   UNL     1      11.691   0.365   1.657  0.00  0.00    +0.012 C 
ENDBRANCH  22  23
BRANCH  18  26
ATOM     26  C   UNL     1      10.653  -5.516   2.513  0.00  0.00    +0.015 C 
ATOM     27  C   UNL     1      11.071  -6.356   1.304  0.00  0.00    +0.012 C 
ATOM     28  C   UNL     1      10.833  -6.338   3.791  0.00  0.00    +0.012 C 
ENDBRANCH  18  26
ENDBRANCH  12  17
BRANCH   1  30
ATOM     29  N   UNL     1       0.603  -1.479   0.693  0.00  0.00    -0.314 N 
ATOM     30  C   UNL     1       1.944  -1.607   0.663  0.00  0.00    +0.200 C 
ATOM     31  O   UNL     1       2.499  -1.939  -0.363  0.00  0.00    -0.278 OA
ATOM     32  H   UNL     1       0.160  -1.214   1.514  0.00  0.00    +0.149 HD
BRANCH  29  33
ATOM     33  C   UNL     1      -0.185  -1.741  -0.514  0.00  0.00    +0.070 C 
ATOM     34  C   UNL     1      -0.231  -0.479  -1.377  0.00  0.00    +0.028 C 
BRANCH  33  36
ATOM     35  C   UNL     1      -1.573  -3.469   0.640  0.00  0.00    +0.005 C 
ATOM     36  C   UNL     1      -1.608  -2.140  -0.117  0.00  0.00    +0.018 C 
ENDBRANCH  33  36
ENDBRANCH  29  33
ENDBRANCH   1  30
TORSDOF 6
