REMARK  Name = ZINC38120539
REMARK  3 active torsions:
REMARK  status: ('A' for Active; 'I' for Inactive)
REMARK    1  A    between atoms: C_1  and  C_2
REMARK    2  A    between atoms: C_8  and  C_9
REMARK    3  A    between atoms: C_8  and  N_11
REMARK                            x       y       z     vdW  Elec       q    Type
REMARK                         _______ _______ _______ _____ _____    ______ ____
ROOT
ATOM      1  C   UNL     1      -0.030   1.589   0.139  0.00  0.00    +0.006 C 
ATOM      2  C   UNL     1      -0.018   0.062   0.048  0.00  0.00    -0.022 C 
ATOM      3  C   UNL     1       0.557  -0.364  -1.304  0.00  0.00    +0.002 C 
ATOM      4  C   UNL     1       0.569  -1.891  -1.395  0.00  0.00    +0.000 C 
ATOM      5  C   UNL     1       1.435  -2.462  -0.270  0.00  0.00    -0.001 C 
ATOM      6  C   UNL     1       0.860  -2.036   1.082  0.00  0.00    -0.009 C 
ATOM      7  C   UNL     1       0.848  -0.509   1.173  0.00  0.00    -0.036 C 
ENDROOT
BRANCH   7   8
ATOM      8  N   UNL     1       0.295  -0.100   2.471  0.00  0.00    +0.387 N 
ATOM      9  C   UNL     1      -1.077  -0.608   2.601  0.00  0.00    -0.063 C 
ATOM     10  C   UNL     1      -1.659  -0.166   3.946  0.00  0.00    +0.062 C 
ATOM     11  N   UNL     1      -0.820  -0.687   5.035  0.00  0.00    -0.319 NA
ATOM     12  C   UNL     1       0.563  -0.207   4.903  0.00  0.00    +0.062 C 
ATOM     13  C   UNL     1       1.127  -0.648   3.551  0.00  0.00    -0.063 C 
ATOM     14  H   UNL     1      -1.204  -0.442   5.935  0.00  0.00    +0.122 HD
ATOM     15  H   UNL     1       0.288   0.907   2.531  0.00  0.00    -0.081 HD
ENDBRANCH   7   8
BRANCH   7  16
ATOM     16  C   UNL     1       2.276   0.021   1.036  0.00  0.00    +0.190 C 
ATOM     17  O   UNL     1       2.287   1.430   1.276  0.00  0.00    -0.236 OA
ENDBRANCH   7  16
TORSDOF 2
