REMARK  Name = ZINC54451692
REMARK  5 active torsions:
REMARK  status: ('A' for Active; 'I' for Inactive)
REMARK    1  A    between atoms: C_1  and  C_2
REMARK    2  A    between atoms: C_5  and  C_20
REMARK    3  A    between atoms: C_6  and  O_8
REMARK    4  A    between atoms: O_8  and  C_9
REMARK    5  A    between atoms: C_9  and  C_11
REMARK                            x       y       z     vdW  Elec       q    Type
REMARK                         _______ _______ _______ _____ _____    ______ ____
ROOT
ATOM      1  C   UNL     1       0.282   1.486  -0.010  0.00  0.00    +0.044 C 
ATOM      2  C   UNL     1       0.145  -0.015  -0.009  0.00  0.00    -0.047 A 
ATOM      3  C   UNL     1       0.004  -0.694  -1.208  0.00  0.00    +0.004 A 
ATOM      4  C   UNL     1      -0.122  -2.067  -1.219  0.00  0.00    +0.017 A 
ATOM      5  C   UNL     1      -0.107  -2.777  -0.017  0.00  0.00    +0.079 A 
ATOM      6  C   UNL     1       0.036  -2.086   1.194  0.00  0.00    +0.144 A 
ATOM      7  C   UNL     1       0.167  -0.706   1.186  0.00  0.00    +0.050 A 
ENDROOT
BRANCH   5   8
ATOM      8  C   UNL     1      -0.242  -4.246  -0.021  0.00  0.00    +0.245 C 
ATOM      9  O   UNL     1      -0.229  -4.861   1.027  0.00  0.00    -0.270 OA
ATOM     10  N   UNL     1      -0.380  -4.907  -1.188  0.00  0.00    -0.325 N 
ATOM     11  H   UNL     1      -0.390  -4.416  -2.025  0.00  0.00    +0.145 HD
ATOM     12  H   UNL     1      -0.469  -5.873  -1.191  0.00  0.00    +0.145 HD
ENDBRANCH   5   8
BRANCH   6  13
ATOM     13  O   UNL     1       0.052  -2.766   2.368  0.00  0.00    -0.422 OA
BRANCH  13  14
ATOM     14  C   UNL     1       1.232  -3.251   2.803  0.00  0.00    +0.346 C 
ATOM     15  O   UNL     1       2.255  -2.995   2.198  0.00  0.00    -0.244 OA
BRANCH  14  16
ATOM     16  C   UNL     1       1.283  -4.091   4.012  0.00  0.00    +0.077 A 
ATOM     17  C   UNL     1       0.094  -4.398   4.718  0.00  0.00    +0.042 A 
ATOM     18  C   UNL     1       0.170  -5.176   5.831  0.00  0.00    +0.106 A 
ATOM     19  C   UNL     1       1.424  -5.659   6.255  0.00  0.00    +0.267 A 
ATOM     20  O   UNL     1       1.498  -6.357   7.252  0.00  0.00    -0.266 OA
ATOM     21  N   UNL     1       2.541  -5.355   5.569  0.00  0.00    -0.327 N 
ATOM     22  H   UNL     1       3.396  -5.695   5.874  0.00  0.00    +0.168 HD
ATOM     23  C   UNL     1       2.489  -4.590   4.462  0.00  0.00    +0.101 A 
ATOM     24 CL   UNL     1      -1.266  -5.572   6.722  0.00  0.00    -0.078 Cl
ENDBRANCH  14  16
ENDBRANCH  13  14
ENDBRANCH   6  13
TORSDOF 4
