REMARK  Name = ZINC01173993
REMARK  6 active torsions:
REMARK  status: ('A' for Active; 'I' for Inactive)
REMARK    1  A    between atoms: C_1  and  C_2
REMARK    2  A    between atoms: C_4  and  C_9
REMARK    3  A    between atoms: C_13  and  N_18
REMARK    4  A    between atoms: C_19  and  C_21
REMARK    5  A    between atoms: C_25  and  N_28
REMARK    6  A    between atoms: C_26  and  C_27
REMARK                            x       y       z     vdW  Elec       q    Type
REMARK                         _______ _______ _______ _____ _____    ______ ____
ROOT
ATOM      1  C   UNL     1      -1.056   4.442  -1.486  0.00  0.00    +0.228 A 
ATOM      2  N   UNL     1       0.153   4.905  -1.295  0.00  0.00    -0.209 NA
ATOM      3  C   UNL     1       0.085   6.251  -1.126  0.00  0.00    +0.112 A 
ATOM      4  C   UNL     1       1.040   7.243  -0.893  0.00  0.00    +0.055 A 
ATOM      5  C   UNL     1       0.641   8.560  -0.764  0.00  0.00    +0.036 A 
ATOM      6  C   UNL     1      -0.706   8.900  -0.866  0.00  0.00    +0.027 A 
ATOM      7  C   UNL     1      -1.655   7.927  -1.096  0.00  0.00    +0.050 A 
ATOM      8  C   UNL     1      -1.272   6.601  -1.228  0.00  0.00    +0.156 A 
ATOM      9  O   UNL     1      -1.946   5.452  -1.457  0.00  0.00    -0.435 OA
ENDROOT
BRANCH   1  13
ATOM     10  C   UNL     1      -4.464   0.895  -2.322  0.00  0.00    +0.045 C 
ATOM     11  C   UNL     1      -3.031   1.310  -2.112  0.00  0.00    -0.036 A 
ATOM     12  C   UNL     1      -2.722   2.639  -1.904  0.00  0.00    +0.017 A 
ATOM     13  C   UNL     1      -1.394   3.021  -1.710  0.00  0.00    +0.037 A 
ATOM     14  C   UNL     1      -0.385   2.056  -1.728  0.00  0.00    +0.014 A 
ATOM     15  C   UNL     1      -0.707   0.731  -1.936  0.00  0.00    +0.016 A 
ATOM     16  C   UNL     1      -2.026   0.357  -2.128  0.00  0.00    +0.021 A 
ATOM     17 BR   UNL     1      -2.458  -1.461  -2.413  0.00  0.00    -0.050 Br
ENDBRANCH   1  13
BRANCH   5  18
ATOM     18  N   UNL     1       1.596   9.558  -0.529  0.00  0.00    -0.281 N 
ATOM     19  C   UNL     1       1.453  10.773  -1.093  0.00  0.00    +0.249 C 
ATOM     20  O   UNL     1       0.446  11.038  -1.721  0.00  0.00    -0.270 OA
ATOM     21  H   UNL     1       2.360   9.374   0.039  0.00  0.00    +0.155 HD
BRANCH  19  22
ATOM     22  C   UNL     1       2.521  11.785  -0.950  0.00  0.00    +0.042 A 
ATOM     23  C   UNL     1       3.615  11.536  -0.119  0.00  0.00    +0.013 A 
ATOM     24  C   UNL     1       4.608  12.485   0.011  0.00  0.00    +0.003 A 
ATOM     25  C   UNL     1       4.522  13.681  -0.680  0.00  0.00    +0.033 A 
ATOM     26  C   UNL     1       3.441  13.933  -1.506  0.00  0.00    +0.130 A 
ATOM     27  C   UNL     1       2.443  12.991  -1.649  0.00  0.00    -0.008 A 
ATOM     28  C   UNL     1       1.269  13.265  -2.553  0.00  0.00    +0.047 C 
BRANCH  26  29
ATOM     29  N   UNL     1       3.357  15.214  -2.241  0.00  0.00    +0.057 N 
ATOM     30  O   UNL     1       4.294  15.992  -2.220  0.00  0.00    -0.126 OA
ATOM     31  O   UNL     1       2.350  15.492  -2.869  0.00  0.00    -0.126 OA
ENDBRANCH  26  29
ENDBRANCH  19  22
ENDBRANCH   5  18
TORSDOF 4
