REMARK  Name = ZINC38620724
REMARK  9 active torsions:
REMARK  status: ('A' for Active; 'I' for Inactive)
REMARK    1  A    between atoms: C_1  and  C_2
REMARK    2  A    between atoms: C_3  and  C_29
REMARK    3  A    between atoms: N_6  and  C_24
REMARK    4  A    between atoms: C_8  and  C_9
REMARK    5  A    between atoms: C_9  and  C_11
REMARK    6  A    between atoms: C_24  and  C_25
REMARK    7  A    between atoms: C_25  and  C_26
REMARK    8  A    between atoms: C_26  and  O_27
REMARK    9  A    between atoms: O_27  and  C_28
REMARK                            x       y       z     vdW  Elec       q    Type
REMARK                         _______ _______ _______ _____ _____    ______ ____
ROOT
ATOM      1  C   UNL     1      -0.725   1.671   0.313  0.00  0.00    +0.046 C 
ATOM      2  C   UNL     1      -0.451   0.205   0.098  0.00  0.00    -0.012 A 
ATOM      3  C   UNL     1      -0.652  -0.376  -1.150  0.00  0.00    +0.120 A 
ATOM      4  C   UNL     1      -0.374  -1.804  -1.316  0.00  0.00    +0.272 A 
ATOM      5  O   UNL     1      -0.542  -2.337  -2.398  0.00  0.00    -0.266 OA
ATOM      6  N   UNL     1       0.067  -2.526  -0.269  0.00  0.00    -0.274 N 
ATOM      7  C   UNL     1       0.261  -1.955   0.944  0.00  0.00    +0.265 A 
ATOM      8  C   UNL     1       0.016  -0.596   1.153  0.00  0.00    +0.092 A 
ATOM      9  O   UNL     1       0.703  -2.711   1.967  0.00  0.00    -0.267 OA
ENDROOT
BRANCH   8  10
ATOM     10  C   UNL     1       0.243  -0.004   2.481  0.00  0.00    +0.207 C 
ATOM     11  O   UNL     1      -0.444  -0.347   3.426  0.00  0.00    -0.286 OA
BRANCH  10  12
ATOM     12  C   UNL     1       1.297   1.000   2.666  0.00  0.00    +0.079 A 
ATOM     13  C   UNL     1       1.623   1.691   3.794  0.00  0.00    +0.068 A 
ATOM     14  C   UNL     1       2.678   2.621   3.766  0.00  0.00    +0.027 A 
ATOM     15  C   UNL     1       3.331   2.760   2.518  0.00  0.00    +0.024 A 
ATOM     16  S   UNL     1       2.472   1.612   1.471  0.00  0.00    -0.083 S 
ATOM     17  C   UNL     1       4.383   3.631   2.333  0.00  0.00    +0.035 A 
ATOM     18  C   UNL     1       4.825   4.401   3.392  0.00  0.00    +0.043 A 
ATOM     19  C   UNL     1       4.202   4.285   4.629  0.00  0.00    +0.040 A 
ATOM     20  C   UNL     1       3.164   3.430   4.827  0.00  0.00    +0.052 A 
ATOM     21 CL   UNL     1       2.424   3.327   6.394  0.00  0.00    -0.083 Cl
ATOM     22 CL   UNL     1       6.149   5.503   3.179  0.00  0.00    -0.083 Cl
ATOM     23 CL   UNL     1       0.737   1.425   5.263  0.00  0.00    -0.082 Cl
ENDBRANCH  10  12
ENDBRANCH   8  10
BRANCH   3  24
ATOM     24  C   UNL     1      -1.123   0.407  -2.252  0.00  0.00    +0.105 C 
ATOM     25  N   UNL     1      -1.496   1.029  -3.126  0.00  0.00    -0.191 NA
ENDBRANCH   3  24
BRANCH   6  26
ATOM     26  C   UNL     1       0.343  -3.954  -0.445  0.00  0.00    +0.131 C 
BRANCH  26  27
ATOM     27  C   UNL     1       1.801  -4.144  -0.868  0.00  0.00    +0.050 C 
BRANCH  27  28
ATOM     28  C   UNL     1       2.089  -5.635  -1.052  0.00  0.00    +0.161 C 
BRANCH  28  29
ATOM     29  O   UNL     1       3.450  -5.812  -1.447  0.00  0.00    -0.383 OA
ATOM     30  C   UNL     1       3.825  -7.177  -1.647  0.00  0.00    +0.193 C 
ENDBRANCH  28  29
ENDBRANCH  27  28
ENDBRANCH  26  27
ENDBRANCH   6  26
TORSDOF 7
