REMARK  Name = ZINC12530550
REMARK  9 active torsions:
REMARK  status: ('A' for Active; 'I' for Inactive)
REMARK    1  A    between atoms: C_1  and  N_2
REMARK    2  A    between atoms: C_3  and  N_37
REMARK    3  A    between atoms: C_4  and  C_11
REMARK    4  A    between atoms: N_7  and  C_10
REMARK    5  A    between atoms: C_11  and  C_13
REMARK    6  A    between atoms: C_13  and  O_14
REMARK    7  A    between atoms: O_14  and  C_15
REMARK    8  A    between atoms: C_15  and  C_17
REMARK    9  A    between atoms: C_30  and  C_31
REMARK                            x       y       z     vdW  Elec       q    Type
REMARK                         _______ _______ _______ _____ _____    ______ ____
ROOT
ATOM      1  C   UNL     1       5.480  -5.990   1.016  0.00  0.00    +0.073 A 
ATOM      2  C   UNL     1       5.076  -6.872   2.111  0.00  0.00    +0.015 A 
ATOM      3  C   UNL     1       4.597  -6.365   3.322  0.00  0.00    +0.011 A 
ATOM      4  C   UNL     1       4.231  -7.225   4.316  0.00  0.00    +0.001 A 
ATOM      5  C   UNL     1       4.330  -8.603   4.137  0.00  0.00    +0.002 A 
ATOM      6  C   UNL     1       4.793  -9.130   2.971  0.00  0.00    +0.028 A 
ATOM      7  C   UNL     1       5.179  -8.273   1.922  0.00  0.00    +0.072 A 
ATOM      8  N   UNL     1       5.636  -8.759   0.771  0.00  0.00    -0.247 NA
ATOM      9  C   UNL     1       6.011  -7.985  -0.242  0.00  0.00    +0.072 A 
ATOM     10  C   UNL     1       5.939  -6.585  -0.151  0.00  0.00    -0.007 A 
ATOM     11  C   UNL     1       6.430  -5.964  -1.436  0.00  0.00    +0.043 C 
ATOM     12  C   UNL     1       6.813  -7.129  -2.358  0.00  0.00    +0.042 C 
ATOM     13  C   UNL     1       6.533  -8.381  -1.565  0.00  0.00    -0.021 C 
ATOM     14  C   UNL     1       6.724  -9.641  -1.991  0.00  0.00    +0.013 C 
ENDROOT
BRANCH  14  15
ATOM     15  C   UNL     1       7.290  -9.889  -3.328  0.00  0.00    -0.025 A 
ATOM     16  C   UNL     1       6.863  -9.133  -4.423  0.00  0.00    +0.008 A 
ATOM     17  C   UNL     1       7.402  -9.367  -5.671  0.00  0.00    +0.001 A 
ATOM     18  C   UNL     1       8.355 -10.356  -5.842  0.00  0.00    +0.000 A 
ATOM     19  C   UNL     1       8.779 -11.112  -4.764  0.00  0.00    +0.001 A 
ATOM     20  C   UNL     1       8.254 -10.886  -3.509  0.00  0.00    +0.008 A 
ENDBRANCH  14  15
BRANCH   1  21
ATOM     21  C   UNL     1       5.398  -4.520   1.145  0.00  0.00    +0.341 C 
ATOM     22  O   UNL     1       6.344  -3.894   1.578  0.00  0.00    -0.245 OA
BRANCH  21  23
ATOM     23  O   UNL     1       4.272  -3.874   0.783  0.00  0.00    -0.453 OA
BRANCH  23  24
ATOM     24  C   UNL     1       4.262  -2.430   0.938  0.00  0.00    +0.312 C 
BRANCH  24  25
ATOM     25  C   UNL     1       2.931  -1.886   0.485  0.00  0.00    +0.209 C 
ATOM     26  O   UNL     1       2.075  -2.642   0.073  0.00  0.00    -0.288 OA
BRANCH  25  30
ATOM     27  C   UNL     1      -0.060   1.938  -0.148  0.00  0.00    +0.155 C 
ATOM     28  N   UNL     1       1.236   1.378   0.242  0.00  0.00    -0.284 N 
ATOM     29  C   UNL     1       1.431   0.028   0.171  0.00  0.00    +0.116 A 
ATOM     30  C   UNL     1       2.681  -0.499   0.541  0.00  0.00    +0.123 A 
ATOM     31  C   UNL     1       3.717   0.441   0.989  0.00  0.00    +0.269 A 
ATOM     32  O   UNL     1       4.817   0.041   1.321  0.00  0.00    -0.267 OA
ATOM     33  N   UNL     1       3.423   1.758   1.023  0.00  0.00    -0.263 N 
ATOM     34  C   UNL     1       2.211   2.203   0.657  0.00  0.00    +0.333 A 
ATOM     35  O   UNL     1       1.987   3.397   0.702  0.00  0.00    -0.246 OA
ATOM     36  C   UNL     1       4.441   2.714   1.466  0.00  0.00    +0.157 C 
BRANCH  29  37
ATOM     37  N   UNL     1       0.432  -0.793  -0.252  0.00  0.00    -0.344 N 
ATOM     38  H   UNL     1      -0.467  -0.446  -0.363  0.00  0.00    +0.144 HD
ATOM     39  H   UNL     1       0.619  -1.726  -0.442  0.00  0.00    +0.144 HD
ENDBRANCH  29  37
ENDBRANCH  25  30
ENDBRANCH  24  25
ENDBRANCH  23  24
ENDBRANCH  21  23
ENDBRANCH   1  21
TORSDOF 7
