REMARK  Name = ZINC36500633
REMARK  16 active torsions:
REMARK  status: ('A' for Active; 'I' for Inactive)
REMARK    1  A    between atoms: C_1  and  C_2
REMARK    2  A    between atoms: C_2  and  C_3
REMARK    3  A    between atoms: C_3  and  C_4
REMARK    4  A    between atoms: C_4  and  C_5
REMARK    5  A    between atoms: C_5  and  C_6
REMARK    6  A    between atoms: C_6  and  C_8
REMARK    7  A    between atoms: C_6  and  N_22
REMARK    8  A    between atoms: N_10  and  C_11
REMARK    9  A    between atoms: C_11  and  S_12
REMARK   10  A    between atoms: S_12  and  C_15
REMARK   11  A    between atoms: C_18  and  C_21
REMARK   12  A    between atoms: N_22  and  C_23
REMARK   13  A    between atoms: C_23  and  C_24
REMARK   14  A    between atoms: C_29  and  C_31
REMARK   15  A    between atoms: C_32  and  O_38
REMARK   16  A    between atoms: C_36  and  O_37
REMARK                            x       y       z     vdW  Elec       q    Type
REMARK                         _______ _______ _______ _____ _____    ______ ____
ROOT
ATOM      1  C   UNL     1      -2.500  -3.877  -0.501  0.00  0.00    +0.163 C 
ENDROOT
BRANCH   1   2
ATOM      2  C   UNL     1      -3.679  -4.549  -1.156  0.00  0.00    +0.235 C 
ATOM      3  O   UNL     1      -4.227  -5.483  -0.608  0.00  0.00    -0.274 OA
ATOM      4  N   UNL     1      -4.126  -4.113  -2.350  0.00  0.00    -0.295 N 
ATOM      5  H   UNL     1      -3.688  -3.367  -2.789  0.00  0.00    +0.150 HD
BRANCH   4   6
ATOM      6  C   UNL     1      -5.272  -4.767  -2.987  0.00  0.00    +0.278 C 
BRANCH   6   7
ATOM      7  S   UNL     1      -6.789  -3.861  -2.576  0.00  0.00    +0.013 S 
ATOM      8  O   UNL     1      -7.903  -4.446  -3.238  0.00  0.00    -0.168 OA
ATOM      9  O   UNL     1      -6.835  -3.591  -1.182  0.00  0.00    -0.168 OA
BRANCH   7  10
ATOM     10  C   UNL     1      -6.594  -2.283  -3.334  0.00  0.00    +0.090 A 
ATOM     11  C   UNL     1      -5.995  -1.250  -2.637  0.00  0.00    +0.027 A 
ATOM     12  C   UNL     1      -5.841  -0.012  -3.231  0.00  0.00    +0.005 A 
ATOM     13  C   UNL     1      -6.287   0.194  -4.524  0.00  0.00    -0.050 A 
ATOM     14  C   UNL     1      -6.885  -0.838  -5.221  0.00  0.00    +0.005 A 
ATOM     15  C   UNL     1      -7.035  -2.078  -4.628  0.00  0.00    +0.027 A 
ATOM     16  C   UNL     1      -6.121   1.545  -5.171  0.00  0.00    +0.044 C 
ENDBRANCH   7  10
ENDBRANCH   6   7
ENDBRANCH   4   6
ENDBRANCH   1   2
BRANCH   1  17
ATOM     17  N   UNL     1      -1.973  -4.741   0.558  0.00  0.00    -0.278 N 
ATOM     18  C   UNL     1      -2.722  -5.007   1.646  0.00  0.00    +0.255 C 
ATOM     19  O   UNL     1      -3.837  -4.531   1.748  0.00  0.00    -0.270 OA
BRANCH  18  20
ATOM     20  C   UNL     1      -2.192  -5.875   2.711  0.00  0.00    +0.119 A 
ATOM     21  C   UNL     1      -1.477  -5.321   3.783  0.00  0.00    +0.133 A 
ATOM     22  C   UNL     1      -0.983  -6.146   4.780  0.00  0.00    +0.046 A 
ATOM     23  C   UNL     1      -1.192  -7.511   4.721  0.00  0.00    +0.007 A 
ATOM     24  C   UNL     1      -1.895  -8.068   3.668  0.00  0.00    +0.046 A 
ATOM     25  C   UNL     1      -2.403  -7.261   2.664  0.00  0.00    +0.133 A 
BRANCH  25  26
ATOM     26  O   UNL     1      -3.097  -7.809   1.635  0.00  0.00    -0.506 OA
ATOM     27  H   UNL     1      -2.547  -8.066   0.883  0.00  0.00    +0.292 HD
ENDBRANCH  25  26
BRANCH  21  28
ATOM     28  O   UNL     1      -1.270  -3.981   3.844  0.00  0.00    -0.506 OA
ATOM     29  H   UNL     1      -1.963  -3.497   4.313  0.00  0.00    +0.292 HD
ENDBRANCH  21  28
ENDBRANCH  18  20
BRANCH  17  30
ATOM     30  C   UNL     1      -0.630  -5.314   0.436  0.00  0.00    +0.183 C 
BRANCH  30  31
ATOM     31  C   UNL     1       0.390  -4.310   0.907  0.00  0.00    +0.122 A 
ATOM     32  C   UNL     1       0.934  -4.258   2.136  0.00  0.00    +0.046 A 
ATOM     33  C   UNL     1       1.834  -3.168   2.140  0.00  0.00    +0.041 A 
ATOM     34  C   UNL     1       1.787  -2.619   0.913  0.00  0.00    +0.195 A 
ATOM     35  O   UNL     1       0.915  -3.318   0.169  0.00  0.00    -0.466 OA
ENDBRANCH  30  31
ENDBRANCH  17  30
ENDBRANCH   1  17
BRANCH   1  36
ATOM     36  C   UNL     1      -2.944  -2.543   0.102  0.00  0.00    +0.032 C 
BRANCH  36  37
ATOM     37  C   UNL     1      -1.725  -1.804   0.657  0.00  0.00    +0.002 C 
BRANCH  37  38
ATOM     38  C   UNL     1      -2.169  -0.469   1.260  0.00  0.00    -0.000 C 
BRANCH  38  40
ATOM     39  C   UNL     1      -1.393   1.605   2.418  0.00  0.00    +0.004 C 
ATOM     40  C   UNL     1      -0.950   0.270   1.815  0.00  0.00    -0.003 C 
ENDBRANCH  38  40
ENDBRANCH  37  38
ENDBRANCH  36  37
ENDBRANCH   1  36
TORSDOF 14
