REMARK  Name = ZINC52860437
REMARK  3 active torsions:
REMARK  status: ('A' for Active; 'I' for Inactive)
REMARK    1  A    between atoms: C_3  and  S_11
REMARK    2  A    between atoms: C_4  and  C_8
REMARK    3  A    between atoms: S_11  and  C_12
REMARK                            x       y       z     vdW  Elec       q    Type
REMARK                         _______ _______ _______ _____ _____    ______ ____
ROOT
ATOM      1  C   UNL     1      -0.005   1.366  -0.165  0.00  0.00    +0.021 A 
ATOM      2  C   UNL     1       1.176   2.077  -0.093  0.00  0.00    +0.017 A 
ATOM      3  C   UNL     1       2.384   1.406   0.051  0.00  0.00    +0.026 A 
ATOM      4  C   UNL     1       2.397   0.005   0.123  0.00  0.00    +0.027 A 
ATOM      5  C   UNL     1       1.194  -0.701   0.050  0.00  0.00    +0.032 A 
ATOM      6  C   UNL     1       0.004  -0.018  -0.093  0.00  0.00    +0.042 A 
ATOM      7 CL   UNL     1      -1.490  -0.897  -0.184  0.00  0.00    -0.084 Cl
ENDROOT
BRANCH   4   8
ATOM      8  C   UNL     1       3.674  -0.719   0.276  0.00  0.00    +0.095 C 
ATOM      9  N   UNL     1       4.480  -0.440   1.300  0.00  0.00    -0.387 N 
ATOM     10  N   UNL     1       4.021  -1.653  -0.611  0.00  0.00    -0.345 N 
ATOM     11  H   UNL     1       4.196   0.184   1.985  0.00  0.00    +0.157 HD
ATOM     12  H   UNL     1       3.434  -1.856  -1.356  0.00  0.00    +0.144 HD
ATOM     13  H   UNL     1       4.860  -2.128  -0.511  0.00  0.00    +0.144 HD
ATOM     14  H   UNL     1       5.352  -0.862   1.360  0.00  0.00    +0.157 HD
ENDBRANCH   4   8
BRANCH   3  15
ATOM     15  S   UNL     1       3.894   2.311   0.141  0.00  0.00    -0.049 S 
BRANCH  15  16
ATOM     16  C   UNL     1       4.613   2.100  -1.454  0.00  0.00    +0.196 A 
ATOM     17  N   UNL     1       4.018   1.304  -2.331  0.00  0.00    -0.230 NA
ATOM     18  C   UNL     1       4.529   1.122  -3.539  0.00  0.00    +0.119 A 
ATOM     19  C   UNL     1       5.699   1.773  -3.884  0.00  0.00    +0.092 A 
ATOM     20  C   UNL     1       6.301   2.603  -2.940  0.00  0.00    +0.274 A 
ATOM     21  N   UNL     1       5.732   2.745  -1.749  0.00  0.00    -0.183 NA
ATOM     22  O   UNL     1       7.448   3.261  -3.235  0.00  0.00    -0.266 OA
ENDBRANCH  15  16
ENDBRANCH   3  15
TORSDOF 3
