REMARK  Name = ZINC38964765
REMARK  6 active torsions:
REMARK  status: ('A' for Active; 'I' for Inactive)
REMARK    1  A    between atoms: C_1  and  C_2
REMARK    2  A    between atoms: C_8  and  C_34
REMARK    3  A    between atoms: C_15  and  C_20
REMARK    4  A    between atoms: C_20  and  S_21
REMARK    5  A    between atoms: S_21  and  C_22
REMARK    6  A    between atoms: N_27  and  C_28
REMARK                            x       y       z     vdW  Elec       q    Type
REMARK                         _______ _______ _______ _____ _____    ______ ____
ROOT
ATOM      1  C   UNL     1      -0.974   0.984   0.371  0.00  0.00    +0.044 C 
ATOM      2  C   UNL     1      -1.008  -0.513   0.198  0.00  0.00    -0.050 A 
ATOM      3  C   UNL     1      -0.902  -1.059  -1.079  0.00  0.00    +0.005 A 
ATOM      4  C   UNL     1      -0.929  -2.408  -1.272  0.00  0.00    +0.029 A 
ATOM      5  C   UNL     1      -1.066  -3.262  -0.168  0.00  0.00    +0.076 A 
ATOM      6  C   UNL     1      -1.173  -2.705   1.133  0.00  0.00    +0.022 A 
ATOM      7  C   UNL     1      -1.136  -1.312   1.294  0.00  0.00    +0.015 A 
ATOM      8  C   UNL     1      -1.309  -3.580   2.226  0.00  0.00    +0.051 A 
ATOM      9  N   UNL     1      -1.330  -4.876   1.993  0.00  0.00    -0.219 NA
ATOM     10  C   UNL     1      -1.226  -5.364   0.759  0.00  0.00    +0.222 A 
ATOM     11  N   UNL     1      -1.097  -4.594  -0.302  0.00  0.00    -0.214 NA
ATOM     12  N   UNL     1      -1.255  -6.740   0.584  0.00  0.00    -0.254 N 
ATOM     13  C   UNL     1      -1.028  -7.278  -0.658  0.00  0.00    +0.202 A 
ATOM     14  N   UNL     1      -0.712  -6.483  -1.660  0.00  0.00    -0.220 NA
ATOM     15  C   UNL     1      -0.483  -6.963  -2.881  0.00  0.00    +0.060 A 
ATOM     16  C   UNL     1      -0.574  -8.304  -3.116  0.00  0.00    +0.094 A 
ATOM     17  C   UNL     1      -0.910  -9.160  -2.052  0.00  0.00    +0.253 A 
ATOM     18  N   UNL     1      -1.127  -8.624  -0.832  0.00  0.00    -0.295 N 
ATOM     19  O   UNL     1      -1.000 -10.364  -2.227  0.00  0.00    -0.268 OA
ATOM     20  C   UNL     1      -1.427  -3.047   3.630  0.00  0.00    +0.066 C 
ATOM     21  H   UNL     1      -1.436  -7.322   1.339  0.00  0.00    +0.158 HD
ATOM     22  H   UNL     1      -1.356  -9.195  -0.083  0.00  0.00    +0.172 HD
ENDROOT
BRANCH  15  23
ATOM     23  C   UNL     1      -0.124  -6.024  -4.003  0.00  0.00    +0.127 C 
BRANCH  23  24
ATOM     24  S   UNL     1       1.597  -5.484  -3.813  0.00  0.00    -0.117 S 
BRANCH  24  25
ATOM     25  C   UNL     1       1.836  -4.296  -5.163  0.00  0.00    +0.202 C 
ATOM     26  N   UNL     1       0.910  -3.147  -5.005  0.00  0.00    -0.320 NA
ATOM     27  N   UNL     1       0.492  -2.876  -6.391  0.00  0.00    +0.411 N 
ATOM     28  N   UNL     1       0.425  -4.220  -6.981  0.00  0.00    -0.265 NA
ATOM     29  N   UNL     1       1.488  -4.916  -6.453  0.00  0.00    -0.254 N 
ATOM     30  H   UNL     1       0.119  -3.397  -4.431  0.00  0.00    +0.106 HD
ATOM     31  H   UNL     1      -0.414  -2.432  -6.410  0.00  0.00    -0.031 HD
ATOM     32  H   UNL     1       0.485  -4.177  -7.987  0.00  0.00    +0.125 HD
ATOM     33  H   UNL     1       1.179  -2.311  -6.867  0.00  0.00    -0.031 HD
BRANCH  29  34
ATOM     34  C   UNL     1       2.125  -6.015  -7.035  0.00  0.00    +0.045 A 
ATOM     35  C   UNL     1       3.272  -6.542  -6.457  0.00  0.00    +0.024 A 
ATOM     36  C   UNL     1       3.899  -7.629  -7.035  0.00  0.00    +0.002 A 
ATOM     37  C   UNL     1       3.385  -8.192  -8.189  0.00  0.00    +0.000 A 
ATOM     38  C   UNL     1       2.243  -7.669  -8.767  0.00  0.00    +0.002 A 
ATOM     39  C   UNL     1       1.608  -6.586  -8.191  0.00  0.00    +0.024 A 
ENDBRANCH  29  34
ENDBRANCH  24  25
ENDBRANCH  23  24
ENDBRANCH  15  23
TORSDOF 4
