REMARK  Name = ZINC57796837
REMARK  5 active torsions:
REMARK  status: ('A' for Active; 'I' for Inactive)
REMARK    1  A    between atoms: C_1  and  C_2
REMARK    2  A    between atoms: C_3  and  C_12
REMARK    3  A    between atoms: C_12  and  N_13
REMARK    4  A    between atoms: C_20  and  C_24
REMARK    5  A    between atoms: C_20  and  O_31
REMARK                            x       y       z     vdW  Elec       q    Type
REMARK                         _______ _______ _______ _____ _____    ______ ____
ROOT
ATOM      1  N   UNL     1      -3.153   0.107  -0.832  0.00  0.00    +0.383 N 
ATOM      2  C   UNL     1      -2.313   0.803  -1.826  0.00  0.00    -0.075 C 
ATOM      3  C   UNL     1      -3.178   1.942  -2.432  0.00  0.00    -0.023 C 
ATOM      4  C   UNL     1      -2.902   3.190  -1.591  0.00  0.00    +0.002 C 
ATOM      5  C   UNL     1      -3.980   4.247  -1.810  0.00  0.00    +0.003 C 
ATOM      6  C   UNL     1      -5.323   3.672  -1.345  0.00  0.00    +0.040 C 
ATOM      7  C   UNL     1      -5.667   2.484  -2.242  0.00  0.00    +0.092 C 
ATOM      8  C   UNL     1      -4.604   1.409  -2.200  0.00  0.00    +0.010 C 
ATOM      9  C   UNL     1      -4.492   0.745  -0.816  0.00  0.00    -0.072 C 
ATOM     10  H   UNL     1      -3.243  -0.865  -1.087  0.00  0.00    -0.081 HD
ENDROOT
BRANCH   7  11
ATOM     11  C   UNL     1      -6.980   1.895  -1.794  0.00  0.00    -0.016 A 
ATOM     12  C   UNL     1      -7.267   1.791  -0.446  0.00  0.00    +0.009 A 
ATOM     13  C   UNL     1      -8.471   1.251  -0.035  0.00  0.00    +0.039 A 
ATOM     14  C   UNL     1      -9.390   0.814  -0.973  0.00  0.00    +0.123 A 
ATOM     15  C   UNL     1      -9.101   0.918  -2.324  0.00  0.00    +0.039 A 
ATOM     16  C   UNL     1      -7.899   1.463  -2.733  0.00  0.00    +0.009 A 
ATOM     17  F   UNL     1     -10.567   0.285  -0.572  0.00  0.00    -0.205 F 
ENDBRANCH   7  11
BRANCH   7  18
ATOM     18  O   UNL     1      -5.799   2.941  -3.590  0.00  0.00    -0.384 OA
ATOM     19  H   UNL     1      -6.489   3.607  -3.714  0.00  0.00    +0.211 HD
ENDBRANCH   7  18
BRANCH   1  20
ATOM     20  C   UNL     1      -2.538   0.216   0.498  0.00  0.00    -0.036 C 
BRANCH  20  23
ATOM     21  C   UNL     1      -0.076   1.661   0.799  0.00  0.00    +0.064 C 
ATOM     22  C   UNL     1      -0.062   0.162   0.645  0.00  0.00    +0.024 A 
ATOM     23  C   UNL     1      -1.221  -0.516   0.503  0.00  0.00    +0.019 A 
ATOM     24  C   UNL     1      -1.183  -1.924   0.360  0.00  0.00    +0.256 A 
ATOM     25  O   UNL     1      -2.215  -2.557   0.230  0.00  0.00    -0.267 OA
ATOM     26  N   UNL     1       0.008  -2.557   0.369  0.00  0.00    -0.275 N 
ATOM     27  H   UNL     1       0.043  -3.522   0.271  0.00  0.00    +0.173 HD
ATOM     28  C   UNL     1       1.148  -1.857   0.512  0.00  0.00    +0.327 A 
ATOM     29  O   UNL     1       2.214  -2.441   0.518  0.00  0.00    -0.247 OA
ATOM     30  N   UNL     1       1.125  -0.518   0.644  0.00  0.00    -0.312 N 
ATOM     31  H   UNL     1       1.958  -0.030   0.742  0.00  0.00    +0.170 HD
ENDBRANCH  20  23
ENDBRANCH   1  20
TORSDOF 4
