REMARK  Name = ZINC39593267
REMARK  5 active torsions:
REMARK  status: ('A' for Active; 'I' for Inactive)
REMARK    1  A    between atoms: C_3  and  C_9
REMARK    2  A    between atoms: C_4  and  O_8
REMARK    3  A    between atoms: C_6  and  O_7
REMARK    4  A    between atoms: N_10  and  N_11
REMARK    5  A    between atoms: C_12  and  C_18
REMARK                            x       y       z     vdW  Elec       q    Type
REMARK                         _______ _______ _______ _____ _____    ______ ____
ROOT
ATOM      1  N   UNL     1       5.984   2.255   0.062  0.00  0.00    -0.175 N 
ATOM      2  C   UNL     1       7.347   1.696   0.055  0.00  0.00    +0.230 C 
ATOM      3  N   UNL     1       8.216   2.879   0.182  0.00  0.00    -0.242 N 
ATOM      4  N   UNL     1       7.359   3.985   0.250  0.00  0.00    -0.160 NA
ATOM      5  C   UNL     1       6.121   3.628   0.178  0.00  0.00    +0.206 C 
ATOM      6  S   UNL     1       4.766   4.754   0.225  0.00  0.00    -0.011 SA
ATOM      7  H   UNL     1       9.185   2.890   0.212  0.00  0.00    +0.170 HD
ENDROOT
BRANCH   2   8
ATOM      8  C   UNL     1       7.620   0.964  -1.260  0.00  0.00    +0.197 C 
ATOM      9  C   UNL     1       8.998   0.335  -1.248  0.00  0.00    -0.017 C 
ATOM     10  C   UNL     1       9.650   0.927  -2.248  0.00  0.00    +0.065 C 
ATOM     11  C   UNL     1      11.061   0.374  -2.341  0.00  0.00    +0.057 C 
ATOM     12  C   UNL     1      11.309  -0.326  -0.987  0.00  0.00    +0.011 C 
ATOM     13  C   UNL     1       9.869  -0.674  -0.546  0.00  0.00    +0.035 C 
ATOM     14  N   UNL     1       8.838   1.833  -2.858  0.00  0.00    -0.158 NA
ATOM     15  N   UNL     1       7.702   1.917  -2.381  0.00  0.00    -0.176 NA
ENDBRANCH   2   8
BRANCH   1  17
ATOM     16  C   UNL     1       4.803   0.239  -0.034  0.00  0.00    +0.142 C 
ATOM     17  N   UNL     1       4.785   1.538  -0.036  0.00  0.00    -0.184 NA
BRANCH  16  20
ATOM     18  C   UNL     1       2.405  -2.613  -0.469  0.00  0.00    +0.046 A 
ATOM     19  C   UNL     1       3.573  -1.911  -0.259  0.00  0.00    +0.016 A 
ATOM     20  C   UNL     1       3.557  -0.515  -0.260  0.00  0.00    +0.036 A 
ATOM     21  C   UNL     1       2.351   0.167  -0.476  0.00  0.00    +0.129 A 
ATOM     22  C   UNL     1       1.185  -0.548  -0.686  0.00  0.00    +0.091 A 
ATOM     23  C   UNL     1       1.212  -1.936  -0.683  0.00  0.00    +0.120 A 
BRANCH  23  24
ATOM     24  O   UNL     1       0.065  -2.635  -0.890  0.00  0.00    -0.507 OA
ATOM     25  H   UNL     1      -0.423  -2.838  -0.081  0.00  0.00    +0.292 HD
ENDBRANCH  23  24
BRANCH  21  26
ATOM     26  O   UNL     1       2.326   1.525  -0.478  0.00  0.00    -0.506 OA
ATOM     27  H   UNL     1       2.476   1.920  -1.348  0.00  0.00    +0.292 HD
ENDBRANCH  21  26
ENDBRANCH  16  20
ENDBRANCH   1  17
TORSDOF 5
