REMARK  Name = ZINC66343423
REMARK  7 active torsions:
REMARK  status: ('A' for Active; 'I' for Inactive)
REMARK    1  A    between atoms: C_6  and  N_7
REMARK    2  A    between atoms: C_10  and  C_13
REMARK    3  A    between atoms: C_13  and  N_14
REMARK    4  A    between atoms: N_17  and  N_18
REMARK    5  A    between atoms: N_18  and  C_19
REMARK    6  A    between atoms: C_19  and  N_21
REMARK    7  A    between atoms: N_21  and  C_22
REMARK                            x       y       z     vdW  Elec       q    Type
REMARK                         _______ _______ _______ _____ _____    ______ ____
ROOT
ATOM      1  N   UNL     1      -4.597  -4.037  -0.688  0.00  0.00    -0.298 N 
ATOM      2  C   UNL     1      -5.272  -5.169  -0.409  0.00  0.00    +0.316 C 
ATOM      3  O   UNL     1      -4.773  -6.013   0.310  0.00  0.00    -0.251 OA
ATOM      4  N   UNL     1      -6.500  -5.367  -0.928  0.00  0.00    -0.219 N 
ATOM      5  H   UNL     1      -4.995  -3.364  -1.262  0.00  0.00    +0.150 HD
ATOM      6  H   UNL     1      -6.986  -6.182  -0.727  0.00  0.00    +0.174 HD
ENDROOT
BRANCH   4   7
ATOM      7  N   UNL     1      -7.075  -4.395  -1.757  0.00  0.00    -0.245 N 
ATOM      8  H   UNL     1      -6.589  -3.580  -1.958  0.00  0.00    +0.172 HD
BRANCH   7   9
ATOM      9  C   UNL     1      -8.303  -4.593  -2.275  0.00  0.00    +0.147 C 
ATOM     10  S   UNL     1      -9.006  -3.405  -3.288  0.00  0.00    -0.017 S 
BRANCH   9  11
ATOM     11  N   UNL     1      -8.978  -5.725  -1.996  0.00  0.00    -0.323 N 
ATOM     12  H   UNL     1      -8.580  -6.398  -1.422  0.00  0.00    +0.148 HD
BRANCH  11  13
ATOM     13  C   UNL     1     -10.313  -5.940  -2.560  0.00  0.00    +0.072 C 
ATOM     14  C   UNL     1     -11.384  -5.331  -1.630  0.00  0.00    +0.022 C 
ATOM     15  C   UNL     1     -12.567  -6.327  -1.710  0.00  0.00    +0.002 C 
ATOM     16  C   UNL     1     -11.854  -7.701  -1.767  0.00  0.00    +0.002 C 
ATOM     17  C   UNL     1     -10.613  -7.447  -2.647  0.00  0.00    +0.022 C 
ENDBRANCH  11  13
ENDBRANCH   9  11
ENDBRANCH   7   9
ENDBRANCH   4   7
BRANCH   1  18
ATOM     18  C   UNL     1      -3.262  -3.822  -0.125  0.00  0.00    +0.111 C 
BRANCH  18  22
ATOM     19  N   UNL     1      -1.198  -0.721   0.010  0.00  0.00    -0.330 N 
ATOM     20  C   UNL     1      -2.546  -0.134   0.020  0.00  0.00    +0.105 C 
ATOM     21  C   UNL     1      -3.555  -1.302  -0.002  0.00  0.00    +0.025 C 
ATOM     22  C   UNL     1      -2.722  -2.469  -0.594  0.00  0.00    +0.025 C 
ATOM     23  C   UNL     1      -1.323  -2.190   0.003  0.00  0.00    +0.110 C 
BRANCH  19  29
ATOM     24  C   UNL     1      -0.017   1.385   0.010  0.00  0.00    +0.026 A 
ATOM     25  C   UNL     1       1.171   2.090   0.002  0.00  0.00    +0.040 A 
ATOM     26  C   UNL     1       2.379   1.414  -0.013  0.00  0.00    +0.124 A 
ATOM     27  C   UNL     1       2.400   0.030  -0.021  0.00  0.00    +0.040 A 
ATOM     28  C   UNL     1       1.215  -0.680  -0.014  0.00  0.00    +0.026 A 
ATOM     29  C   UNL     1       0.002  -0.004   0.002  0.00  0.00    +0.030 A 
ATOM     30  F   UNL     1       3.539   2.107  -0.020  0.00  0.00    -0.205 F 
ENDBRANCH  19  29
ENDBRANCH  18  22
ENDBRANCH   1  18
TORSDOF 7
