REMARK  Name = ZINC56941698
REMARK  8 active torsions:
REMARK  status: ('A' for Active; 'I' for Inactive)
REMARK    1  A    between atoms: C_1  and  C_2
REMARK    2  A    between atoms: C_2  and  C_4
REMARK    3  A    between atoms: C_2  and  N_12
REMARK    4  A    between atoms: N_15  and  N_16
REMARK    5  A    between atoms: C_17  and  C_19
REMARK    6  A    between atoms: C_19  and  O_20
REMARK    7  A    between atoms: O_20  and  C_21
REMARK    8  A    between atoms: C_24  and  C_27
REMARK                            x       y       z     vdW  Elec       q    Type
REMARK                         _______ _______ _______ _____ _____    ______ ____
ROOT
ATOM      1  N   UNL     1      -1.372  -0.511   0.012  0.00  0.00    -0.292 N 
ATOM      2  C   UNL     1      -2.029  -0.655   1.181  0.00  0.00    +0.316 C 
ATOM      3  O   UNL     1      -1.480  -0.364   2.226  0.00  0.00    -0.251 OA
ATOM      4  N   UNL     1      -3.293  -1.122   1.190  0.00  0.00    -0.218 N 
ATOM      5  H   UNL     1      -1.810  -0.743  -0.822  0.00  0.00    +0.151 HD
ATOM      6  H   UNL     1      -3.765  -1.225   2.031  0.00  0.00    +0.174 HD
ENDROOT
BRANCH   4   7
ATOM      7  N   UNL     1      -3.925  -1.457  -0.014  0.00  0.00    -0.230 N 
ATOM      8  C   UNL     1      -5.190  -1.923  -0.005  0.00  0.00    +0.267 C 
ATOM      9  O   UNL     1      -5.780  -2.053   1.047  0.00  0.00    -0.271 OA
ATOM     10  H   UNL     1      -3.453  -1.353  -0.855  0.00  0.00    +0.173 HD
BRANCH   8  11
ATOM     11  C   UNL     1      -5.870  -2.284  -1.300  0.00  0.00    +0.326 C 
BRANCH  11  12
ATOM     12  O   UNL     1      -7.193  -2.750  -1.030  0.00  0.00    -0.483 OA
BRANCH  12  13
ATOM     13  C   UNL     1      -7.947  -3.119  -2.097  0.00  0.00    +0.121 A 
ATOM     14  C   UNL     1      -7.418  -3.038  -3.380  0.00  0.00    +0.047 A 
ATOM     15  C   UNL     1      -8.179  -3.411  -4.466  0.00  0.00    +0.022 A 
ATOM     16  C   UNL     1      -9.484  -3.872  -4.276  0.00  0.00    +0.052 A 
ATOM     17  C   UNL     1     -10.012  -3.952  -2.984  0.00  0.00    +0.022 A 
ATOM     18  C   UNL     1      -9.243  -3.582  -1.904  0.00  0.00    +0.047 A 
BRANCH  16  19
ATOM     19  C   UNL     1     -10.279  -4.261  -5.402  0.00  0.00    +0.099 C 
ATOM     20  N   UNL     1     -10.910  -4.569  -6.295  0.00  0.00    -0.191 NA
ENDBRANCH  16  19
ENDBRANCH  12  13
ENDBRANCH  11  12
ENDBRANCH   8  11
ENDBRANCH   4   7
BRANCH   1  22
ATOM     21  C   UNL     1      -0.019   1.526   0.010  0.00  0.00    +0.033 C 
ATOM     22  C   UNL     1       0.002  -0.004   0.002  0.00  0.00    +0.102 C 
BRANCH  22  23
ATOM     23  C   UNL     1       0.707  -0.490  -1.238  0.00  0.00    -0.026 A 
ATOM     24  C   UNL     1       0.037  -0.521  -2.447  0.00  0.00    +0.008 A 
ATOM     25  C   UNL     1       0.682  -0.966  -3.585  0.00  0.00    +0.040 A 
ATOM     26  C   UNL     1       2.001  -1.381  -3.515  0.00  0.00    +0.142 A 
ATOM     27  C   UNL     1       2.673  -1.350  -2.303  0.00  0.00    +0.076 A 
ATOM     28  C   UNL     1       2.026  -0.899  -1.167  0.00  0.00    +0.028 A 
ATOM     29 CL   UNL     1       4.327  -1.869  -2.213  0.00  0.00    -0.081 Cl
ATOM     30  F   UNL     1       2.633  -1.817  -4.627  0.00  0.00    -0.204 F 
ENDBRANCH  22  23
ENDBRANCH   1  22
TORSDOF 7
