REMARK  Name = ZINC02867315
REMARK  6 active torsions:
REMARK  status: ('A' for Active; 'I' for Inactive)
REMARK    1  A    between atoms: C_1  and  C_2
REMARK    2  A    between atoms: C_2  and  C_3
REMARK    3  A    between atoms: C_3  and  S_4
REMARK    4  A    between atoms: S_4  and  C_5
REMARK    5  A    between atoms: C_8  and  O_9
REMARK    6  A    between atoms: C_19  and  C_21
REMARK                            x       y       z     vdW  Elec       q    Type
REMARK                         _______ _______ _______ _____ _____    ______ ____
ROOT
ATOM      1  C   UNL     1      -6.612   1.851  -1.041  0.00  0.00    +0.193 A 
ATOM      2  N   UNL     1      -6.369   1.396   0.219  0.00  0.00    -0.187 NA
ATOM      3  C   UNL     1      -5.120   1.192   0.700  0.00  0.00    +0.225 A 
ATOM      4  C   UNL     1      -4.046   1.486  -0.202  0.00  0.00    +0.073 A 
ATOM      5  C   UNL     1      -2.624   1.353   0.068  0.00  0.00    -0.020 A 
ATOM      6  C   UNL     1      -1.782   1.691  -0.935  0.00  0.00    -0.004 A 
ATOM      7  S   UNL     1      -2.831   2.195  -2.275  0.00  0.00    -0.073 S 
ATOM      8  C   UNL     1      -4.394   1.954  -1.490  0.00  0.00    +0.117 A 
ATOM      9  N   UNL     1      -5.643   2.132  -1.901  0.00  0.00    -0.214 NA
ATOM     10  C   UNL     1      -0.285   1.647  -0.916  0.00  0.00    +0.043 C 
ATOM     11  C   UNL     1       0.162   0.808   0.289  0.00  0.00    +0.006 C 
ATOM     12  C   UNL     1      -0.608   1.274   1.528  0.00  0.00    +0.008 C 
ATOM     13  C   UNL     1      -2.079   0.863   1.407  0.00  0.00    +0.018 C 
ATOM     14  C   UNL     1      -2.883   1.488   2.548  0.00  0.00    +0.012 C 
ENDROOT
BRANCH   3  16
ATOM     15  H   UNL     1      -3.937   0.701   1.988  0.00  0.00    +0.294 HD
ATOM     16  O   UNL     1      -4.921   0.783   1.831  0.00  0.00    -0.492 OA
ENDBRANCH   3  16
BRANCH   1  17
ATOM     17  S   UNL     1      -8.284   2.075  -1.550  0.00  0.00    -0.086 S 
BRANCH  17  18
ATOM     18  C   UNL     1      -8.022   2.668  -3.240  0.00  0.00    +0.077 C 
BRANCH  18  20
ATOM     19  C   UNL     1      -9.152   3.440  -5.330  0.00  0.00    +0.004 C 
ATOM     20  C   UNL     1      -9.374   2.939  -3.902  0.00  0.00    +0.008 C 
ENDBRANCH  18  20
ENDBRANCH  17  18
ENDBRANCH   1  17
TORSDOF 4
