REMARK  Name = ZINC52886328
REMARK  6 active torsions:
REMARK  status: ('A' for Active; 'I' for Inactive)
REMARK    1  A    between atoms: C_1  and  C_2
REMARK    2  A    between atoms: C_3  and  C_20
REMARK    3  A    between atoms: C_7  and  N_19
REMARK    4  A    between atoms: C_9  and  C_11
REMARK    5  A    between atoms: C_11  and  N_12
REMARK    6  A    between atoms: N_15  and  C_18
REMARK                            x       y       z     vdW  Elec       q    Type
REMARK                         _______ _______ _______ _____ _____    ______ ____
ROOT
ATOM      1  C   UNL     1      -1.596   1.384   0.669  0.00  0.00    +0.045 C 
ATOM      2  C   UNL     1      -1.424  -0.111   0.597  0.00  0.00    -0.028 A 
ATOM      3  C   UNL     1      -2.079  -0.826  -0.330  0.00  0.00    -0.008 A 
ATOM      4  S   UNL     1      -1.557  -2.500  -0.011  0.00  0.00    -0.074 S 
ATOM      5  C   UNL     1      -0.472  -2.195   1.358  0.00  0.00    +0.114 A 
ATOM      6  C   UNL     1      -0.541  -0.794   1.526  0.00  0.00    +0.050 A 
ATOM      7  C   UNL     1       0.255  -0.267   2.579  0.00  0.00    +0.128 A 
ATOM      8  N   UNL     1       0.991  -1.091   3.307  0.00  0.00    -0.215 NA
ATOM      9  C   UNL     1       1.012  -2.394   3.089  0.00  0.00    +0.150 A 
ATOM     10  N   UNL     1       0.286  -2.944   2.134  0.00  0.00    -0.223 NA
ATOM     11  C   UNL     1      -3.032  -0.331  -1.388  0.00  0.00    +0.052 C 
ENDROOT
BRANCH   7  12
ATOM     12  N   UNL     1       0.262   1.092   2.839  0.00  0.00    -0.343 N 
ATOM     13  H   UNL     1       0.110   1.724   2.119  0.00  0.00    +0.144 HD
ATOM     14  H   UNL     1       0.418   1.412   3.741  0.00  0.00    +0.144 HD
ENDBRANCH   7  12
BRANCH   9  15
ATOM     15  C   UNL     1       1.873  -3.273   3.958  0.00  0.00    +0.185 C 
BRANCH  15  16
ATOM     16  N   UNL     1       1.100  -3.721   5.119  0.00  0.00    -0.277 N 
ATOM     17  C   UNL     1       1.008  -3.016   6.406  0.00  0.00    +0.129 C 
ATOM     18  C   UNL     1       0.082  -3.911   7.252  0.00  0.00    +0.128 C 
ATOM     19  N   UNL     1      -0.250  -5.026   6.352  0.00  0.00    -0.287 N 
ATOM     20  C   UNL     1       0.359  -4.836   5.174  0.00  0.00    +0.305 C 
ATOM     21  O   UNL     1       0.252  -5.608   4.241  0.00  0.00    -0.252 OA
ATOM     22  C   UNL     1      -1.114  -6.160   6.688  0.00  0.00    +0.133 C 
ENDBRANCH  15  16
ENDBRANCH   9  15
TORSDOF 3
