REMARK  Name = ZINC25760701
REMARK  4 active torsions:
REMARK  status: ('A' for Active; 'I' for Inactive)
REMARK    1  A    between atoms: C_6  and  C_7
REMARK    2  A    between atoms: C_7  and  C_12
REMARK    3  A    between atoms: N_14  and  C_15
REMARK    4  A    between atoms: C_15  and  C_16
REMARK                            x       y       z     vdW  Elec       q    Type
REMARK                         _______ _______ _______ _____ _____    ______ ____
ROOT
ATOM      1  C   UNL     1       4.586  -0.247   1.083  0.00  0.00    +0.224 C 
ATOM      2  O   UNL     1       5.046  -1.050   1.868  0.00  0.00    -0.275 OA
ATOM      3  N   UNL     1       4.859   1.065   1.223  0.00  0.00    -0.310 N 
ATOM      4  H   UNL     1       4.378   1.801   0.563  0.00  0.00    +0.149 HD
ENDROOT
BRANCH   1   5
ATOM      5  C   UNL     1       3.709  -0.718  -0.048  0.00  0.00    +0.072 C 
ATOM      6  C   UNL     1       4.273  -0.224  -1.396  0.00  0.00    +0.021 C 
ATOM      7  C   UNL     1       5.116  -1.415  -1.915  0.00  0.00    +0.001 C 
ATOM      8  C   UNL     1       4.270  -2.642  -1.493  0.00  0.00    +0.001 C 
ATOM      9  C   UNL     1       3.707  -2.255  -0.110  0.00  0.00    +0.021 C 
BRANCH   5  15
ATOM     10  C   UNL     1       1.356  -0.414  -0.842  0.00  0.00    +0.008 A 
ATOM     11  C   UNL     1       0.066   0.055  -0.673  0.00  0.00    +0.050 A 
ATOM     12  C   UNL     1      -0.279   0.734   0.486  0.00  0.00    +0.162 A 
ATOM     13  C   UNL     1       0.674   0.940   1.477  0.00  0.00    +0.162 A 
ATOM     14  C   UNL     1       1.966   0.468   1.300  0.00  0.00    +0.054 A 
ATOM     15  C   UNL     1       2.304  -0.207   0.142  0.00  0.00    -0.029 A 
ATOM     16  O   UNL     1       0.354   1.596   2.625  0.00  0.00    -0.485 OA
ATOM     17  C   UNL     1      -0.845   2.379   2.606  0.00  0.00    +0.270 C 
ATOM     18  C   UNL     1      -1.958   1.539   1.965  0.00  0.00    +0.270 C 
ATOM     19  O   UNL     1      -1.550   1.197   0.635  0.00  0.00    -0.485 OA
ENDBRANCH   5  15
ENDBRANCH   1   5
BRANCH   3  20
ATOM     20  C   UNL     1       5.798   1.512   2.255  0.00  0.00    +0.139 C 
BRANCH  20  21
ATOM     21  C   UNL     1       5.927   3.012   2.202  0.00  0.00    -0.026 A 
ATOM     22  C   UNL     1       5.086   3.824   2.952  0.00  0.00    +0.023 A 
ATOM     23  C   UNL     1       5.231   5.195   2.881  0.00  0.00    +0.084 A 
ATOM     24  N   UNL     1       6.155   5.740   2.112  0.00  0.00    -0.350 N 
ATOM     25  C   UNL     1       6.975   5.000   1.382  0.00  0.00    +0.099 A 
ATOM     26  C   UNL     1       6.890   3.611   1.409  0.00  0.00    +0.047 A 
ATOM     27  N   UNL     1       7.934   5.615   0.587  0.00  0.00    -0.312 N 
ATOM     28  C   UNL     1       9.283   5.134   0.920  0.00  0.00    +0.134 C 
ATOM     29  C   UNL     1      10.300   5.791  -0.018  0.00  0.00    +0.178 C 
ATOM     30  O   UNL     1      10.190   7.213   0.090  0.00  0.00    -0.377 OA
ATOM     31  C   UNL     1       8.890   7.716  -0.228  0.00  0.00    +0.178 C 
ATOM     32  C   UNL     1       7.859   7.079   0.708  0.00  0.00    +0.134 C 
ATOM     33  H   UNL     1       6.257   6.834   2.066  0.00  0.00    +0.166 HD
ENDBRANCH  20  21
ENDBRANCH   3  20
TORSDOF 4
