REMARK  Name = ZINC37022432
REMARK  5 active torsions:
REMARK  status: ('A' for Active; 'I' for Inactive)
REMARK    1  A    between atoms: C_3  and  C_6
REMARK    2  A    between atoms: C_8  and  C_11
REMARK    3  A    between atoms: C_11  and  S_12
REMARK    4  A    between atoms: S_12  and  C_13
REMARK    5  A    between atoms: C_19  and  N_21
REMARK                            x       y       z     vdW  Elec       q    Type
REMARK                         _______ _______ _______ _____ _____    ______ ____
ROOT
ATOM      1  S   UNL     1       7.835   0.812  -1.792  0.00  0.00    -0.080 S 
ENDROOT
BRANCH   1   2
ATOM      2  C   UNL     1       9.464   0.154  -1.649  0.00  0.00    +0.171 A 
ATOM      3  N   UNL     1      10.174  -0.122  -2.778  0.00  0.00    -0.302 N 
ATOM      4  H   UNL     1       9.781   0.045  -3.649  0.00  0.00    +0.171 HD
ATOM      5  C   UNL     1      11.422  -0.626  -2.688  0.00  0.00    +0.254 A 
ATOM      6  O   UNL     1      12.065  -0.875  -3.695  0.00  0.00    -0.268 OA
ATOM      7  C   UNL     1      11.966  -0.858  -1.421  0.00  0.00    +0.113 A 
ATOM      8  C   UNL     1      11.202  -0.560  -0.301  0.00  0.00    +0.124 A 
ATOM      9  N   UNL     1       9.972  -0.057  -0.452  0.00  0.00    -0.209 NA
BRANCH   8  10
ATOM     10  N   UNL     1      11.711  -0.777   0.964  0.00  0.00    -0.343 N 
ATOM     11  H   UNL     1      12.605  -1.139   1.071  0.00  0.00    +0.144 HD
ATOM     12  H   UNL     1      11.176  -0.569   1.745  0.00  0.00    +0.144 HD
ENDBRANCH   8  10
ENDBRANCH   1   2
BRANCH   1  13
ATOM     13  C   UNL     1       7.295   1.023  -0.073  0.00  0.00    +0.157 C 
BRANCH  13  16
ATOM     14  C   UNL     1       3.728   1.669  -0.025  0.00  0.00    +0.265 A 
ATOM     15  N   UNL     1       4.774   0.868  -0.045  0.00  0.00    -0.191 NA
ATOM     16  C   UNL     1       5.897   1.587  -0.051  0.00  0.00    +0.182 A 
ATOM     17  N   UNL     1       5.595   2.854  -0.036  0.00  0.00    -0.060 NA
ATOM     18  O   UNL     1       4.178   2.938  -0.024  0.00  0.00    -0.332 OA
BRANCH  14  21
ATOM     19  C   UNL     1      -0.016   1.350   0.009  0.00  0.00    +0.008 A 
ATOM     20  C   UNL     1       1.178   2.035   0.002  0.00  0.00    +0.021 A 
ATOM     21  C   UNL     1       2.320   1.252  -0.013  0.00  0.00    +0.077 A 
ATOM     22  S   UNL     1       1.636  -0.394  -0.016  0.00  0.00    -0.092 S 
ATOM     23  C   UNL     1       0.002  -0.004   0.002  0.00  0.00    +0.046 A 
ENDBRANCH  14  21
ENDBRANCH  13  16
ENDBRANCH   1  13
TORSDOF 5
