REMARK  Name = ZINC33171650
REMARK  9 active torsions:
REMARK  status: ('A' for Active; 'I' for Inactive)
REMARK    1  A    between atoms: C_1  and  C_2
REMARK    2  A    between atoms: N_6  and  C_13
REMARK    3  A    between atoms: N_10  and  C_12
REMARK    4  A    between atoms: C_13  and  C_14
REMARK    5  A    between atoms: N_16  and  C_17
REMARK    6  A    between atoms: C_17  and  C_18
REMARK    7  A    between atoms: C_18  and  C_19
REMARK    8  A    between atoms: C_19  and  C_20
REMARK    9  A    between atoms: C_19  and  C_21
REMARK                            x       y       z     vdW  Elec       q    Type
REMARK                         _______ _______ _______ _____ _____    ______ ____
ROOT
ATOM      1  C   UNL     1      -2.478  -0.758   0.021  0.00  0.00    +0.068 C 
ATOM      2  C   UNL     1      -0.990  -1.000   0.006  0.00  0.00    +0.068 A 
ATOM      3  C   UNL     1       0.002  -0.004   0.002  0.00  0.00    +0.029 A 
ATOM      4  C   UNL     1      -0.018   1.459   0.010  0.00  0.00    +0.030 A 
ATOM      5  C   UNL     1       1.151   2.127   0.003  0.00  0.00    +0.090 A 
ATOM      6  N   UNL     1       2.346   1.466  -0.013  0.00  0.00    -0.305 N 
ATOM      7  C   UNL     1       2.421   0.122  -0.021  0.00  0.00    +0.277 A 
ATOM      8  O   UNL     1       3.510  -0.425  -0.034  0.00  0.00    -0.265 OA
ATOM      9  C   UNL     1       1.243  -0.655  -0.013  0.00  0.00    +0.133 A 
ATOM     10  N   UNL     1       0.983  -1.997  -0.018  0.00  0.00    -0.261 N 
ATOM     11  N   UNL     1      -0.408  -2.169  -0.006  0.00  0.00    -0.175 NA
ATOM     12  C   UNL     1       1.982  -3.068  -0.034  0.00  0.00    +0.173 C 
ENDROOT
BRANCH   6  13
ATOM     13  C   UNL     1       3.586   2.245  -0.021  0.00  0.00    +0.220 C 
BRANCH  13  14
ATOM     14  C   UNL     1       3.998   2.520  -1.444  0.00  0.00    +0.233 C 
ATOM     15  O   UNL     1       3.321   2.106  -2.361  0.00  0.00    -0.274 OA
ATOM     16  N   UNL     1       5.117   3.227  -1.698  0.00  0.00    -0.314 N 
ATOM     17  H   UNL     1       5.731   3.602  -0.865  0.00  0.00    +0.149 HD
BRANCH  16  18
ATOM     18  C   UNL     1       5.517   3.494  -3.081  0.00  0.00    +0.104 C 
BRANCH  18  19
ATOM     19  C   UNL     1       6.812   4.308  -3.090  0.00  0.00    +0.022 C 
BRANCH  19  20
ATOM     20  C   UNL     1       7.230   4.587  -4.535  0.00  0.00    -0.016 C 
ATOM     21  C   UNL     1       8.454   5.505  -4.544  0.00  0.00    +0.007 C 
ATOM     22  C   UNL     1       7.576   3.268  -5.229  0.00  0.00    +0.007 C 
ENDBRANCH  19  20
ENDBRANCH  18  19
ENDBRANCH  16  18
ENDBRANCH  13  14
ENDBRANCH   6  13
TORSDOF 5
