REMARK  Name = ZINC24216736
REMARK  11 active torsions:
REMARK  status: ('A' for Active; 'I' for Inactive)
REMARK    1  A    between atoms: C_1  and  C_2
REMARK    2  A    between atoms: C_2  and  O_3
REMARK    3  A    between atoms: O_3  and  C_4
REMARK    4  A    between atoms: C_6  and  C_14
REMARK    5  A    between atoms: C_9  and  O_10
REMARK    6  A    between atoms: O_10  and  C_11
REMARK    7  A    between atoms: C_14  and  N_15
REMARK    8  A    between atoms: N_15  and  C_16
REMARK    9  A    between atoms: N_15  and  C_29
REMARK   10  A    between atoms: C_16  and  C_17
REMARK   11  A    between atoms: N_22  and  C_23
REMARK                            x       y       z     vdW  Elec       q    Type
REMARK                         _______ _______ _______ _____ _____    ______ ____
ROOT
ATOM      1  N   UNL     1       3.918  -0.001   3.788  0.00  0.00    +0.390 N 
ATOM      2  H   UNL     1       3.830   0.921   3.196  0.00  0.00    -0.080 HD
ENDROOT
BRANCH   1   3
ATOM      3  C   UNL     1       3.809   0.361   5.207  0.00  0.00    -0.068 C 
ATOM      4  C   UNL     1       5.044   0.153   6.086  0.00  0.00    -0.017 C 
ATOM      5  C   UNL     1       3.837  -0.776   6.231  0.00  0.00    -0.017 C 
ENDBRANCH   1   3
BRANCH   1   6
ATOM      6  C   UNL     1       2.827  -0.900   3.388  0.00  0.00    -0.042 C 
BRANCH   6   9
ATOM      7  C   UNL     1      -0.166   1.204   2.445  0.00  0.00    +0.162 A 
ATOM      8  C   UNL     1       1.040   0.526   2.371  0.00  0.00    +0.051 A 
ATOM      9  C   UNL     1       1.514  -0.164   3.471  0.00  0.00    -0.060 A 
ATOM     10  C   UNL     1       0.788  -0.179   4.647  0.00  0.00    +0.005 A 
ATOM     11  C   UNL     1      -0.416   0.495   4.728  0.00  0.00    +0.050 A 
ATOM     12  C   UNL     1      -0.895   1.193   3.631  0.00  0.00    +0.168 A 
BRANCH   7  13
ATOM     13  O   UNL     1      -0.635   1.882   1.364  0.00  0.00    -0.489 OA
BRANCH  13  15
ATOM     14  C   UNL     1      -0.515   2.667  -0.919  0.00  0.00    +0.048 C 
ATOM     15  C   UNL     1       0.169   1.854   0.182  0.00  0.00    +0.226 C 
ENDBRANCH  13  15
ENDBRANCH   7  13
BRANCH  12  16
ATOM     16  O   UNL     1      -2.077   1.861   3.710  0.00  0.00    -0.431 OA
BRANCH  16  17
ATOM     17  C   UNL     1      -2.770   1.807   4.959  0.00  0.00    +0.541 C 
ATOM     18  F   UNL     1      -3.069   0.476   5.268  0.00  0.00    -0.166 F 
ATOM     19  F   UNL     1      -1.963   2.349   5.965  0.00  0.00    -0.166 F 
ENDBRANCH  16  17
ENDBRANCH  12  16
ENDBRANCH   6   9
ENDBRANCH   1   6
BRANCH   1  20
ATOM     20  C   UNL     1       5.227  -0.601   3.496  0.00  0.00    +0.020 C 
BRANCH  20  21
ATOM     21  C   UNL     1       6.284   0.473   3.501  0.00  0.00    +0.204 C 
ATOM     22  O   UNL     1       5.982   1.620   3.752  0.00  0.00    -0.277 OA
ATOM     23  N   UNL     1       7.565   0.159   3.226  0.00  0.00    -0.242 N 
ATOM     24  C   UNL     1       8.511   1.119   3.230  0.00  0.00    +0.306 C 
ATOM     25  O   UNL     1       8.208   2.269   3.482  0.00  0.00    -0.252 OA
ATOM     26  N   UNL     1       9.792   0.805   2.955  0.00  0.00    -0.296 N 
ATOM     27  H   UNL     1       7.840  -0.882   2.998  0.00  0.00    +0.159 HD
ATOM     28  H   UNL     1      10.066  -0.236   2.727  0.00  0.00    +0.151 HD
BRANCH  26  29
ATOM     29  C   UNL     1      10.820   1.849   2.959  0.00  0.00    +0.074 C 
ATOM     30  C   UNL     1      10.850   2.540   1.595  0.00  0.00    +0.022 C 
ATOM     31  C   UNL     1      11.923   3.631   1.599  0.00  0.00    +0.002 C 
ATOM     32  C   UNL     1      13.289   3.001   1.883  0.00  0.00    +0.000 C 
ATOM     33  C   UNL     1      13.258   2.310   3.247  0.00  0.00    +0.002 C 
ATOM     34  C   UNL     1      12.185   1.219   3.242  0.00  0.00    +0.022 C 
ENDBRANCH  26  29
ENDBRANCH  20  21
ENDBRANCH   1  20
TORSDOF 10
