REMARK  Name = ZINC66784886
REMARK  6 active torsions:
REMARK  status: ('A' for Active; 'I' for Inactive)
REMARK    1  A    between atoms: C_5  and  C_7
REMARK    2  A    between atoms: C_7  and  C_8
REMARK    3  A    between atoms: N_10  and  N_11
REMARK    4  A    between atoms: C_12  and  C_14
REMARK    5  A    between atoms: C_15  and  C_16
REMARK    6  A    between atoms: C_20  and  N_22
REMARK                            x       y       z     vdW  Elec       q    Type
REMARK                         _______ _______ _______ _____ _____    ______ ____
ROOT
ATOM      1  N   UNL     1       1.548  -4.494   2.938  0.00  0.00    -0.231 N 
ATOM      2  C   UNL     1       1.590  -5.820   3.176  0.00  0.00    +0.253 C 
ATOM      3  O   UNL     1       1.511  -6.606   2.251  0.00  0.00    -0.269 OA
ATOM      4  H   UNL     1       1.611  -3.867   3.676  0.00  0.00    +0.173 HD
ENDROOT
BRANCH   1   7
ATOM      5  C   UNL     1       1.372  -2.695   1.389  0.00  0.00    +0.233 C 
ATOM      6  O   UNL     1       1.451  -1.911   2.311  0.00  0.00    -0.274 OA
ATOM      7  N   UNL     1       1.414  -4.021   1.627  0.00  0.00    -0.234 N 
ATOM      8  H   UNL     1       1.351  -4.648   0.889  0.00  0.00    +0.173 HD
BRANCH   5   9
ATOM      9  C   UNL     1       1.228  -2.186  -0.022  0.00  0.00    +0.135 C 
BRANCH   9  14
ATOM     10  C   UNL     1      -0.017   1.378   0.010  0.00  0.00    +0.000 A 
ATOM     11  C   UNL     1       1.171   2.087   0.002  0.00  0.00    +0.003 A 
ATOM     12  C   UNL     1       2.377   1.414  -0.013  0.00  0.00    +0.038 A 
ATOM     13  C   UNL     1       2.397   0.029  -0.021  0.00  0.00    +0.127 A 
ATOM     14  C   UNL     1       1.208  -0.679  -0.013  0.00  0.00    -0.003 A 
ATOM     15  C   UNL     1       0.002  -0.004   0.002  0.00  0.00    +0.007 A 
ATOM     16  F   UNL     1       3.577  -0.630  -0.036  0.00  0.00    -0.205 F 
ENDBRANCH   9  14
ENDBRANCH   5   9
ENDBRANCH   1   7
BRANCH   2  17
ATOM     17  C   UNL     1       1.730  -6.314   4.547  0.00  0.00    +0.069 C 
ATOM     18  C   UNL     1       1.771  -7.641   4.784  0.00  0.00    +0.013 C 
BRANCH  18  19
ATOM     19  C   UNL     1       1.912  -8.138   6.162  0.00  0.00    -0.023 A 
ATOM     20  C   UNL     1       1.998  -7.236   7.229  0.00  0.00    +0.009 A 
ATOM     21  C   UNL     1       2.130  -7.709   8.517  0.00  0.00    +0.023 A 
ATOM     22  C   UNL     1       2.178  -9.073   8.756  0.00  0.00    +0.071 A 
ATOM     23  C   UNL     1       2.094  -9.971   7.705  0.00  0.00    +0.145 A 
ATOM     24  C   UNL     1       1.956  -9.513   6.412  0.00  0.00    +0.042 A 
ATOM     25 CL   UNL     1       2.344  -9.659  10.382  0.00  0.00    -0.081 Cl
BRANCH  23  26
ATOM     26  N   UNL     1       2.147 -11.426   7.971  0.00  0.00    +0.058 N 
ATOM     27  O   UNL     1       2.075 -12.211   7.055  0.00  0.00    -0.126 OA
ATOM     28  O   UNL     1       2.264 -11.829   9.105  0.00  0.00    -0.126 OA
ENDBRANCH  23  26
ENDBRANCH  18  19
ENDBRANCH   2  17
TORSDOF 6
