REMARK  Name = ZINC19715965
REMARK  9 active torsions:
REMARK  status: ('A' for Active; 'I' for Inactive)
REMARK    1  A    between atoms: C_1  and  N_2
REMARK    2  A    between atoms: C_4  and  S_11
REMARK    3  A    between atoms: N_7  and  C_10
REMARK    4  A    between atoms: S_11  and  N_14
REMARK    5  A    between atoms: N_14  and  C_15
REMARK    6  A    between atoms: C_15  and  C_17
REMARK    7  A    between atoms: C_15  and  C_25
REMARK    8  A    between atoms: C_17  and  C_18
REMARK    9  A    between atoms: C_18  and  N_19
REMARK                            x       y       z     vdW  Elec       q    Type
REMARK                         _______ _______ _______ _____ _____    ______ ____
ROOT
ATOM      1  C   UNL     1       1.417   2.055  -0.000  0.00  0.00    +0.105 C 
ENDROOT
BRANCH   1   2
ATOM      2  C   UNL     1       1.397   3.558  -0.116  0.00  0.00    -0.029 A 
ATOM      3  C   UNL     1       1.150   4.334   1.001  0.00  0.00    +0.005 A 
ATOM      4  C   UNL     1       1.136   5.712   0.896  0.00  0.00    +0.000 A 
ATOM      5  C   UNL     1       1.360   6.314  -0.328  0.00  0.00    +0.000 A 
ATOM      6  C   UNL     1       1.602   5.538  -1.446  0.00  0.00    +0.000 A 
ATOM      7  C   UNL     1       1.620   4.160  -1.340  0.00  0.00    +0.005 A 
ENDBRANCH   1   2
BRANCH   1   8
ATOM      8  N   UNL     1       2.089   1.670   1.243  0.00  0.00    -0.182 NA
ATOM      9  H   UNL     1       1.571   1.787   2.207  0.00  0.00    +0.149 HD
BRANCH   8  10
ATOM     10  S   UNL     1       3.702   1.295   1.230  0.00  0.00    +0.066 S 
ATOM     11  O   UNL     1       4.059   0.994   2.572  0.00  0.00    -0.153 OA
ATOM     12  O   UNL     1       3.897   0.375   0.165  0.00  0.00    -0.153 OA
BRANCH  10  16
ATOM     13  C   UNL     1       6.348   4.204  -2.102  0.00  0.00    +0.153 C 
ATOM     14  N   UNL     1       5.776   4.050  -0.762  0.00  0.00    -0.301 N 
ATOM     15  C   UNL     1       5.106   2.902  -0.439  0.00  0.00    +0.124 A 
ATOM     16  C   UNL     1       4.574   2.763   0.795  0.00  0.00    +0.186 A 
ATOM     17  C   UNL     1       4.733   3.809   1.735  0.00  0.00    +0.283 A 
ATOM     18  O   UNL     1       4.267   3.704   2.855  0.00  0.00    -0.265 OA
ATOM     19  N   UNL     1       5.405   4.923   1.379  0.00  0.00    -0.262 N 
ATOM     20  C   UNL     1       5.920   5.037   0.141  0.00  0.00    +0.332 A 
ATOM     21  O   UNL     1       6.523   6.047  -0.166  0.00  0.00    -0.246 OA
ATOM     22  C   UNL     1       5.574   6.012   2.344  0.00  0.00    +0.157 C 
ENDBRANCH  10  16
ENDBRANCH   8  10
ENDBRANCH   1   8
BRANCH   1  23
ATOM     23  C   UNL     1      -0.019   1.526   0.010  0.00  0.00    +0.006 C 
BRANCH  23  24
ATOM     24  C   UNL     1       0.002  -0.004   0.002  0.00  0.00    -0.077 C 
BRANCH  24  25
ATOM     25  N   UNL     1      -1.376  -0.512   0.012  0.00  0.00    +0.380 N 
ATOM     26  C   UNL     1      -2.052  -0.174   1.271  0.00  0.00    -0.079 C 
ATOM     27  C   UNL     1      -3.523  -0.589   1.189  0.00  0.00    -0.019 C 
ATOM     28  C   UNL     1      -3.609  -2.096   0.931  0.00  0.00    -0.004 C 
ATOM     29  C   UNL     1      -2.856  -2.429  -0.360  0.00  0.00    -0.019 C 
ATOM     30  C   UNL     1      -1.405  -1.960  -0.233  0.00  0.00    -0.079 C 
ATOM     31  H   UNL     1      -1.925  -0.023  -0.805  0.00  0.00    -0.082 HD
ENDBRANCH  24  25
ENDBRANCH  23  24
ENDBRANCH   1  23
TORSDOF 7
