REMARK  Name = ZINC26068268
REMARK  11 active torsions:
REMARK  status: ('A' for Active; 'I' for Inactive)
REMARK    1  A    between atoms: C_1  and  C_2
REMARK    2  A    between atoms: C_3  and  C_24
REMARK    3  A    between atoms: C_5  and  C_23
REMARK    4  A    between atoms: C_6  and  C_7
REMARK    5  A    between atoms: N_9  and  C_10
REMARK    6  A    between atoms: C_10  and  C_11
REMARK    7  A    between atoms: C_11  and  C_13
REMARK    8  A    between atoms: C_11  and  N_17
REMARK    9  A    between atoms: C_13  and  C_14
REMARK   10  A    between atoms: C_14  and  C_15
REMARK   11  A    between atoms: C_14  and  C_16
REMARK                            x       y       z     vdW  Elec       q    Type
REMARK                         _______ _______ _______ _____ _____    ______ ____
ROOT
ATOM      1  C   UNL     1      -0.160  -3.849   1.049  0.00  0.00    +0.248 C 
ATOM      2  O   UNL     1      -1.146  -4.536   1.239  0.00  0.00    -0.270 OA
ATOM      3  N   UNL     1       1.034  -4.232   1.545  0.00  0.00    -0.310 N 
ATOM      4  H   UNL     1       1.925  -3.611   1.373  0.00  0.00    +0.149 HD
ENDROOT
BRANCH   1  10
ATOM      5  C   UNL     1      -0.801  -0.872   2.237  0.00  0.00    +0.048 C 
ATOM      6  C   UNL     1      -0.558  -1.255   0.799  0.00  0.00    +0.003 A 
ATOM      7  C   UNL     1      -0.559  -0.438  -0.265  0.00  0.00    +0.106 A 
ATOM      8  O   UNL     1      -0.308  -1.157  -1.371  0.00  0.00    -0.464 OA
ATOM      9  C   UNL     1      -0.127  -2.446  -1.070  0.00  0.00    +0.115 A 
ATOM     10  C   UNL     1      -0.271  -2.599   0.278  0.00  0.00    +0.080 A 
ATOM     11  C   UNL     1       0.177  -3.546  -2.055  0.00  0.00    +0.087 C 
ATOM     12  C   UNL     1      -0.809   1.048  -0.227  0.00  0.00    +0.086 C 
ENDBRANCH   1  10
BRANCH   3  13
ATOM     13  C   UNL     1       1.143  -5.476   2.312  0.00  0.00    +0.123 C 
BRANCH  13  14
ATOM     14  C   UNL     1       2.613  -5.739   2.648  0.00  0.00    +0.074 C 
BRANCH  14  15
ATOM     15  N   UNL     1       3.400  -5.773   1.408  0.00  0.00    -0.294 NA
ATOM     16  C   UNL     1       3.013  -6.916   0.569  0.00  0.00    +0.113 C 
ATOM     17  C   UNL     1       3.813  -6.878  -0.736  0.00  0.00    +0.175 C 
ATOM     18  O   UNL     1       5.211  -6.878  -0.432  0.00  0.00    -0.377 OA
ATOM     19  C   UNL     1       5.622  -5.778   0.383  0.00  0.00    +0.175 C 
ATOM     20  C   UNL     1       4.840  -5.804   1.699  0.00  0.00    +0.113 C 
ENDBRANCH  14  15
BRANCH  14  21
ATOM     21  C   UNL     1       2.738  -7.084   3.367  0.00  0.00    +0.023 C 
BRANCH  21  22
ATOM     22  C   UNL     1       2.040  -7.002   4.726  0.00  0.00    -0.016 C 
ATOM     23  C   UNL     1       2.037  -8.384   5.383  0.00  0.00    +0.007 C 
ATOM     24  C   UNL     1       2.786  -6.012   5.624  0.00  0.00    +0.007 C 
ENDBRANCH  21  22
ENDBRANCH  14  21
ENDBRANCH  13  14
ENDBRANCH   3  13
TORSDOF 6
