REMARK  Name = ZINC19145482
REMARK  6 active torsions:
REMARK  status: ('A' for Active; 'I' for Inactive)
REMARK    1  A    between atoms: N_3  and  C_6
REMARK    2  A    between atoms: C_6  and  C_7
REMARK    3  A    between atoms: C_7  and  C_8
REMARK    4  A    between atoms: N_14  and  C_15
REMARK    5  A    between atoms: C_15  and  C_16
REMARK    6  A    between atoms: C_17  and  C_24
REMARK                            x       y       z     vdW  Elec       q    Type
REMARK                         _______ _______ _______ _____ _____    ______ ____
ROOT
ATOM      1  C   UNL     1       0.188   1.327  -0.193  0.00  0.00    -0.021 C 
ENDROOT
BRANCH   1   2
ATOM      2  C   UNL     1       1.639   1.683  -0.391  0.00  0.00    +0.040 A 
ATOM      3  C   UNL     1       2.543   1.944   0.592  0.00  0.00    +0.146 A 
ATOM      4  N   UNL     1       3.734   2.217  -0.000  0.00  0.00    -0.216 NA
ATOM      5  C   UNL     1       3.583   2.143  -1.288  0.00  0.00    +0.178 A 
ATOM      6  N   UNL     1       2.289   1.811  -1.605  0.00  0.00    -0.299 N 
ATOM      7  C   UNL     1       1.986   1.696  -2.945  0.00  0.00    +0.100 A 
ATOM      8  C   UNL     1       2.916   1.901  -3.875  0.00  0.00    +0.067 A 
ATOM      9  S   UNL     1       4.351   2.288  -2.885  0.00  0.00    -0.058 S 
BRANCH   3  10
ATOM     10  C   UNL     1       2.277   1.927   2.041  0.00  0.00    +0.267 C 
ATOM     11  O   UNL     1       1.164   1.662   2.453  0.00  0.00    -0.268 OA
ATOM     12  N   UNL     1       3.269   2.205   2.911  0.00  0.00    -0.296 N 
ATOM     13  C   UNL     1       4.656   2.534   2.552  0.00  0.00    +0.108 C 
ATOM     14  C   UNL     1       5.431   2.750   3.869  0.00  0.00    +0.020 C 
ATOM     15  C   UNL     1       4.579   1.969   4.904  0.00  0.00    +0.020 C 
ATOM     16  C   UNL     1       3.143   2.224   4.380  0.00  0.00    +0.108 C 
ENDBRANCH   3  10
ENDBRANCH   1   2
BRANCH   1  22
ATOM     17  C   UNL     1      -1.361  -0.531  -0.103  0.00  0.00    -0.066 C 
ATOM     18  C   UNL     1      -1.461  -2.058  -0.141  0.00  0.00    -0.015 C 
ATOM     19  C   UNL     1      -0.758  -2.642   1.087  0.00  0.00    -0.003 C 
ATOM     20  C   UNL     1       0.700  -2.171   1.103  0.00  0.00    -0.019 C 
ATOM     21  C   UNL     1       0.737  -0.642   1.105  0.00  0.00    -0.078 C 
ATOM     22  N   UNL     1       0.052  -0.132  -0.090  0.00  0.00    +0.385 N 
ATOM     23  H   UNL     1       0.535  -0.582  -0.971  0.00  0.00    -0.081 HD
BRANCH  17  24
ATOM     24  C   UNL     1      -2.045   0.056  -1.339  0.00  0.00    +0.006 C 
BRANCH  24  25
ATOM     25  C   UNL     1      -3.530  -0.312  -1.323  0.00  0.00    +0.121 C 
BRANCH  25  28
ATOM     26  C   UNL     1      -4.929   0.272  -4.594  0.00  0.00    +0.101 A 
ATOM     27  C   UNL     1      -4.284  -0.532  -3.728  0.00  0.00    +0.104 A 
ATOM     28  N   UNL     1      -4.165   0.163  -2.555  0.00  0.00    -0.338 N 
ATOM     29  C   UNL     1      -4.746   1.368  -2.744  0.00  0.00    +0.173 A 
ATOM     30  N   UNL     1      -5.195   1.428  -3.968  0.00  0.00    -0.352 N 
ATOM     31  H   UNL     1      -5.718   2.235  -4.502  0.00  0.00    +0.166 HD
ENDBRANCH  25  28
ENDBRANCH  24  25
ENDBRANCH  17  24
ENDBRANCH   1  22
TORSDOF 6
