REMARK  Name = ZINC36275098
REMARK  12 active torsions:
REMARK  status: ('A' for Active; 'I' for Inactive)
REMARK    1  A    between atoms: C_1  and  C_2
REMARK    2  A    between atoms: C_6  and  N_9
REMARK    3  A    between atoms: C_7  and  C_8
REMARK    4  A    between atoms: N_9  and  S_10
REMARK    5  A    between atoms: S_10  and  C_13
REMARK    6  A    between atoms: C_16  and  C_19
REMARK    7  A    between atoms: C_19  and  O_21
REMARK    8  A    between atoms: O_21  and  C_22
REMARK    9  A    between atoms: C_22  and  C_24
REMARK   10  A    between atoms: C_22  and  C_25
REMARK   11  A    between atoms: N_27  and  C_28
REMARK   12  A    between atoms: C_32  and  N_34
REMARK                            x       y       z     vdW  Elec       q    Type
REMARK                         _______ _______ _______ _____ _____    ______ ____
ROOT
ATOM      1  C   UNL     1       2.452  -3.218   1.825  0.00  0.00    +0.109 A 
ATOM      2  C   UNL     1       3.137  -3.349   0.631  0.00  0.00    +0.029 A 
ATOM      3  C   UNL     1       4.515  -3.289   0.612  0.00  0.00    +0.017 A 
ATOM      4  C   UNL     1       5.218  -3.095   1.803  0.00  0.00    +0.059 A 
ATOM      5  C   UNL     1       4.520  -2.964   3.005  0.00  0.00    +0.017 A 
ATOM      6  C   UNL     1       3.142  -3.020   3.008  0.00  0.00    +0.029 A 
ENDROOT
BRANCH   1   7
ATOM      7  S   UNL     1       0.692  -3.296   1.840  0.00  0.00    +0.072 S 
ATOM      8  O   UNL     1       0.313  -3.685   3.153  0.00  0.00    -0.150 OA
ATOM      9  O   UNL     1       0.308  -4.032   0.687  0.00  0.00    -0.150 OA
BRANCH   7  10
ATOM     10  N   UNL     1       0.131  -1.752   1.623  0.00  0.00    -0.216 N 
ATOM     11  H   UNL     1      -0.420  -1.337   2.304  0.00  0.00    +0.174 HD
BRANCH  10  17
ATOM     12  C   UNL     1       1.233   2.500  -0.580  0.00  0.00    +0.044 C 
ATOM     13  C   UNL     1       0.993   1.014  -0.638  0.00  0.00    -0.046 A 
ATOM     14  C   UNL     1       1.092   0.344  -1.844  0.00  0.00    +0.004 A 
ATOM     15  C   UNL     1       0.872  -1.020  -1.901  0.00  0.00    +0.002 A 
ATOM     16  C   UNL     1       0.553  -1.718  -0.753  0.00  0.00    +0.025 A 
ATOM     17  C   UNL     1       0.454  -1.049   0.460  0.00  0.00    +0.051 A 
ATOM     18  C   UNL     1       0.680   0.321   0.515  0.00  0.00    -0.025 A 
ATOM     19  C   UNL     1       0.579   1.050   1.830  0.00  0.00    +0.046 C 
ENDBRANCH  10  17
ENDBRANCH   7  10
ENDBRANCH   1   7
BRANCH   4  20
ATOM     20  C   UNL     1       6.694  -3.031   1.791  0.00  0.00    +0.340 C 
ATOM     21  O   UNL     1       7.299  -3.146   0.744  0.00  0.00    -0.245 OA
BRANCH  20  22
ATOM     22  O   UNL     1       7.369  -2.844   2.942  0.00  0.00    -0.449 OA
BRANCH  22  23
ATOM     23  C   UNL     1       8.795  -2.791   2.856  0.00  0.00    +0.259 C 
ATOM     24  C   UNL     1       9.368  -4.200   3.020  0.00  0.00    +0.062 C 
BRANCH  23  25
ATOM     25  C   UNL     1       9.331  -1.901   3.947  0.00  0.00    +0.258 C 
ATOM     26  O   UNL     1       8.578  -1.437   4.777  0.00  0.00    -0.271 OA
ATOM     27  N   UNL     1      10.648  -1.620   4.001  0.00  0.00    -0.282 N 
ATOM     28  H   UNL     1      11.239  -1.928   3.296  0.00  0.00    +0.155 HD
BRANCH  27  29
ATOM     29  C   UNL     1      11.163  -0.885   5.075  0.00  0.00    +0.036 A 
ATOM     30  C   UNL     1      12.232  -0.020   4.877  0.00  0.00    +0.023 A 
ATOM     31  C   UNL     1      12.738   0.704   5.938  0.00  0.00    +0.004 A 
ATOM     32  C   UNL     1      12.182   0.569   7.197  0.00  0.00    +0.033 A 
ATOM     33  C   UNL     1      11.118  -0.291   7.397  0.00  0.00    +0.128 A 
ATOM     34  C   UNL     1      10.603  -1.014   6.339  0.00  0.00    +0.056 A 
BRANCH  33  35
ATOM     35  N   UNL     1      10.527  -0.433   8.747  0.00  0.00    +0.056 N 
ATOM     36  O   UNL     1      10.973   0.203   9.673  0.00  0.00    -0.126 OA
ATOM     37  O   UNL     1       9.596  -1.185   8.923  0.00  0.00    -0.126 OA
ENDBRANCH  33  35
ENDBRANCH  27  29
ENDBRANCH  23  25
ENDBRANCH  22  23
ENDBRANCH  20  22
ENDBRANCH   4  20
TORSDOF 9
