REMARK  Name = ZINC17164313
REMARK  15 active torsions:
REMARK  status: ('A' for Active; 'I' for Inactive)
REMARK    1  A    between atoms: C_1  and  C_2
REMARK    2  A    between atoms: C_3  and  C_31
REMARK    3  A    between atoms: N_4  and  C_25
REMARK    4  A    between atoms: C_5  and  N_9
REMARK    5  A    between atoms: C_6  and  C_7
REMARK    6  A    between atoms: C_10  and  C_12
REMARK    7  A    between atoms: C_12  and  S_13
REMARK    8  A    between atoms: S_13  and  C_14
REMARK    9  A    between atoms: C_16  and  C_24
REMARK   10  A    between atoms: C_17  and  C_23
REMARK   11  A    between atoms: N_18  and  C_19
REMARK   12  A    between atoms: C_19  and  C_20
REMARK   13  A    between atoms: C_20  and  C_21
REMARK   14  A    between atoms: C_20  and  C_22
REMARK   15  A    between atoms: C_25  and  C_26
REMARK                            x       y       z     vdW  Elec       q    Type
REMARK                         _______ _______ _______ _____ _____    ______ ____
ROOT
ATOM      1  N   UNL     1       0.056  -3.346   1.432  0.00  0.00    -0.270 N 
ATOM      2  C   UNL     1       0.172  -4.543   0.823  0.00  0.00    +0.229 C 
ATOM      3  O   UNL     1       0.350  -4.598  -0.376  0.00  0.00    -0.275 OA
ATOM      4  H   UNL     1       0.000  -3.298   2.399  0.00  0.00    +0.156 HD
ENDROOT
BRANCH   1   9
ATOM      5  C   UNL     1      -0.694  -0.015  -2.293  0.00  0.00    +0.047 C 
ATOM      6  C   UNL     1      -0.307  -0.655  -0.985  0.00  0.00    -0.011 A 
ATOM      7  C   UNL     1       0.264  -0.047   0.068  0.00  0.00    +0.022 A 
ATOM      8  N   UNL     1       0.460  -0.961   1.067  0.00  0.00    -0.324 N 
ATOM      9  C   UNL     1       0.017  -2.184   0.677  0.00  0.00    +0.124 A 
ATOM     10  C   UNL     1      -0.487  -2.063  -0.611  0.00  0.00    +0.095 A 
ATOM     11  C   UNL     1       0.632   1.413   0.137  0.00  0.00    +0.064 C 
BRANCH  10  12
ATOM     12  C   UNL     1      -1.063  -3.101  -1.412  0.00  0.00    +0.103 C 
ATOM     13  N   UNL     1      -1.520  -3.924  -2.047  0.00  0.00    -0.191 NA
ENDBRANCH  10  12
BRANCH   8  14
ATOM     14  C   UNL     1       1.062  -0.664   2.370  0.00  0.00    +0.197 C 
BRANCH  14  15
ATOM     15  C   UNL     1       0.002  -0.146   3.307  0.00  0.00    +0.124 A 
ATOM     16  C   UNL     1      -0.756  -0.895   4.128  0.00  0.00    +0.046 A 
ATOM     17  C   UNL     1      -1.611  -0.006   4.820  0.00  0.00    +0.041 A 
ATOM     18  C   UNL     1      -1.325   1.232   4.379  0.00  0.00    +0.195 A 
ATOM     19  O   UNL     1      -0.343   1.142   3.467  0.00  0.00    -0.466 OA
ENDBRANCH  14  15
ENDBRANCH   8  14
ENDBRANCH   1   9
BRANCH   2  20
ATOM     20  C   UNL     1       0.081  -5.812   1.630  0.00  0.00    +0.173 C 
BRANCH  20  21
ATOM     21  S   UNL     1       0.274  -7.243   0.532  0.00  0.00    -0.080 S 
BRANCH  21  22
ATOM     22  C   UNL     1       0.145  -8.629   1.611  0.00  0.00    +0.148 A 
ATOM     23  N   UNL     1      -0.053  -8.577   2.908  0.00  0.00    -0.338 N 
ATOM     24  C   UNL     1      -0.097  -9.826   3.401  0.00  0.00    +0.034 A 
ATOM     25  C   UNL     1       0.078 -10.688   2.386  0.00  0.00    +0.037 A 
ATOM     26  N   UNL     1       0.228  -9.937   1.242  0.00  0.00    -0.324 N 
ATOM     27  C   UNL     1       0.102 -12.192   2.480  0.00  0.00    +0.065 C 
ATOM     28  C   UNL     1      -0.307 -10.197   4.847  0.00  0.00    +0.065 C 
ATOM     29  H   UNL     1      -0.152  -7.765   3.429  0.00  0.00    +0.168 HD
BRANCH  26  30
ATOM     30  C   UNL     1       0.439 -10.447  -0.115  0.00  0.00    +0.127 C 
BRANCH  30  31
ATOM     31  C   UNL     1       1.939 -10.594  -0.376  0.00  0.00    +0.003 C 
ATOM     32  C   UNL     1       2.516 -11.664   0.553  0.00  0.00    +0.009 C 
ATOM     33  C   UNL     1       2.165 -11.008  -1.832  0.00  0.00    +0.009 C 
ENDBRANCH  30  31
ENDBRANCH  26  30
ENDBRANCH  21  22
ENDBRANCH  20  21
ENDBRANCH   2  20
TORSDOF 9
