REMARK  Name = ZINC24509417
REMARK  6 active torsions:
REMARK  status: ('A' for Active; 'I' for Inactive)
REMARK    1  A    between atoms: C_8  and  C_13
REMARK    2  A    between atoms: C_13  and  O_15
REMARK    3  A    between atoms: O_15  and  C_16
REMARK    4  A    between atoms: C_16  and  C_17
REMARK    5  A    between atoms: N_22  and  C_23
REMARK    6  A    between atoms: C_23  and  C_24
REMARK                            x       y       z     vdW  Elec       q    Type
REMARK                         _______ _______ _______ _____ _____    ______ ____
ROOT
ATOM      1  O   UNL     1       3.598  -2.100  -0.043  0.00  0.00    -0.451 OA
ENDROOT
BRANCH   1   2
ATOM      2  C   UNL     1       3.639  -0.752  -0.037  0.00  0.00    +0.356 C 
ATOM      3  O   UNL     1       4.710  -0.177  -0.044  0.00  0.00    -0.243 OA
BRANCH   2  11
ATOM      4  C   UNL     1       0.031   4.242   0.025  0.00  0.00    +0.001 A 
ATOM      5  C   UNL     1      -1.179   3.561   0.033  0.00  0.00    +0.001 A 
ATOM      6  C   UNL     1      -1.212   2.183   0.031  0.00  0.00    +0.014 A 
ATOM      7  C   UNL     1      -0.018   1.466   0.010  0.00  0.00    +0.046 A 
ATOM      8  C   UNL     1       1.215   2.158   0.002  0.00  0.00    -0.011 A 
ATOM      9  C   UNL     1       1.225   3.554   0.010  0.00  0.00    +0.009 A 
ATOM     10  C   UNL     1       2.453   1.379  -0.014  0.00  0.00    +0.041 A 
ATOM     11  C   UNL     1       2.387   0.023  -0.021  0.00  0.00    +0.128 A 
ATOM     12  N   UNL     1       1.184  -0.650  -0.013  0.00  0.00    -0.316 N 
ATOM     13  H   UNL     1       1.170  -1.750  -0.018  0.00  0.00    +0.169 HD
ATOM     14  C   UNL     1       0.002  -0.004   0.002  0.00  0.00    +0.257 A 
ATOM     15  O   UNL     1      -1.041  -0.632   0.009  0.00  0.00    -0.267 OA
ENDBRANCH   2  11
ENDBRANCH   1   2
BRANCH   1  16
ATOM     16  C   UNL     1       4.870  -2.798  -0.059  0.00  0.00    +0.328 C 
BRANCH  16  17
ATOM     17  C   UNL     1       4.627  -4.285  -0.065  0.00  0.00    +0.258 C 
ATOM     18  O   UNL     1       3.493  -4.714  -0.057  0.00  0.00    -0.272 OA
ATOM     19  N   UNL     1       5.670  -5.139  -0.080  0.00  0.00    -0.237 N 
ATOM     20  C   UNL     1       5.452  -6.469  -0.085  0.00  0.00    +0.306 C 
ATOM     21  O   UNL     1       4.315  -6.899  -0.076  0.00  0.00    -0.252 OA
ATOM     22  N   UNL     1       6.495  -7.323  -0.099  0.00  0.00    -0.294 N 
ATOM     23  H   UNL     1       6.699  -4.750  -0.087  0.00  0.00    +0.159 HD
ATOM     24  H   UNL     1       7.524  -6.934  -0.107  0.00  0.00    +0.151 HD
BRANCH  22  25
ATOM     25  C   UNL     1       6.258  -8.768  -0.105  0.00  0.00    +0.148 C 
BRANCH  25  26
ATOM     26  C   UNL     1       7.579  -9.494  -0.121  0.00  0.00    +0.007 A 
ATOM     27  C   UNL     1       8.340  -9.905   0.922  0.00  0.00    +0.013 A 
ATOM     28  C   UNL     1       9.529 -10.563   0.667  0.00  0.00    +0.008 A 
ATOM     29  C   UNL     1       9.903 -10.768  -0.620  0.00  0.00    +0.045 A 
ATOM     30  S   UNL     1       8.552 -10.027  -1.520  0.00  0.00    -0.100 S 
ENDBRANCH  25  26
ENDBRANCH  22  25
ENDBRANCH  16  17
ENDBRANCH   1  16
TORSDOF 6
