REMARK  Name = ZINC04598789
REMARK  3 active torsions:
REMARK  status: ('A' for Active; 'I' for Inactive)
REMARK    1  A    between atoms: C_5  and  N_7
REMARK    2  A    between atoms: C_8  and  C_10
REMARK    3  A    between atoms: C_10  and  C_11
REMARK                            x       y       z     vdW  Elec       q    Type
REMARK                         _______ _______ _______ _____ _____    ______ ____
ROOT
ATOM      1  N   UNL     1       1.237  -2.080  -0.021  0.00  0.00    -0.285 N 
ATOM      2  C   UNL     1       0.086  -2.773   0.088  0.00  0.00    +0.219 C 
ATOM      3  O   UNL     1      -0.976  -2.187   0.102  0.00  0.00    -0.275 OA
ATOM      4  H   UNL     1       2.080  -2.551  -0.113  0.00  0.00    +0.155 HD
ENDROOT
BRANCH   1   9
ATOM      5  C   UNL     1       0.154   1.372   0.637  0.00  0.00    +0.002 A 
ATOM      6  C   UNL     1       1.174   2.086   0.035  0.00  0.00    +0.001 A 
ATOM      7  C   UNL     1       2.215   1.421  -0.586  0.00  0.00    +0.016 A 
ATOM      8  C   UNL     1       2.239   0.039  -0.607  0.00  0.00    +0.035 A 
ATOM      9  C   UNL     1       1.216  -0.681  -0.002  0.00  0.00    +0.047 A 
ATOM     10  C   UNL     1       0.172  -0.009   0.620  0.00  0.00    +0.024 A 
ATOM     11  I   UNL     1       3.816  -0.969  -1.548  0.00  0.00    -0.042 I 
ENDBRANCH   1   9
BRANCH   2  12
ATOM     12  C   UNL     1       0.119  -4.276   0.194  0.00  0.00    +0.120 C 
BRANCH  12  13
ATOM     13  C   UNL     1      -1.310  -4.810   0.306  0.00  0.00    +0.149 C 
ATOM     14  C   UNL     1      -1.326  -6.328   0.386  0.00  0.00    +0.232 C 
ATOM     15  O   UNL     1      -0.909  -7.024  -0.515  0.00  0.00    -0.274 OA
ATOM     16  N   UNL     1      -1.823  -6.842   1.498  0.00  0.00    -0.264 N 
ATOM     17  C   UNL     1      -2.300  -6.055   2.528  0.00  0.00    +0.153 C 
ATOM     18  N   UNL     1      -2.809  -6.439   3.664  0.00  0.00    -0.280 NA
ATOM     19  S   UNL     1      -2.054  -4.386   1.936  0.00  0.00    -0.078 S 
ATOM     20  H   UNL     1      -1.854  -7.807   1.594  0.00  0.00    +0.157 HD
ATOM     21  H   UNL     1      -2.888  -7.385   3.865  0.00  0.00    +0.189 HD
ENDBRANCH  12  13
ENDBRANCH   2  12
TORSDOF 3
