REMARK  Name = ZINC21209963
REMARK  5 active torsions:
REMARK  status: ('A' for Active; 'I' for Inactive)
REMARK    1  A    between atoms: C_4  and  C_7
REMARK    2  A    between atoms: C_7  and  C_8
REMARK    3  A    between atoms: N_12  and  C_16
REMARK    4  A    between atoms: C_16  and  C_17
REMARK    5  A    between atoms: C_20  and  C_22
REMARK                            x       y       z     vdW  Elec       q    Type
REMARK                         _______ _______ _______ _____ _____    ______ ____
ROOT
ATOM      1  C   UNL     1      -0.013   1.086   0.008  0.00  0.00    +0.165 C 
ATOM      2  C   UNL     1      -0.589   1.604   1.311  0.00  0.00    +0.244 C 
ATOM      3  O   UNL     1      -1.704   1.413   1.746  0.00  0.00    -0.273 OA
ATOM      4  N   UNL     1       0.397   2.323   1.884  0.00  0.00    -0.218 N 
ATOM      5  C   UNL     1       1.504   2.330   1.133  0.00  0.00    +0.310 C 
ATOM      6  O   UNL     1       2.526   2.911   1.441  0.00  0.00    -0.252 OA
ATOM      7  N   UNL     1       1.359   1.623  -0.002  0.00  0.00    -0.287 N 
ATOM      8  H   UNL     1       2.029   1.404  -0.847  0.00  0.00    +0.151 HD
ENDROOT
BRANCH   1   9
ATOM      9  C   UNL     1      -0.808   1.618  -1.186  0.00  0.00    +0.067 C 
BRANCH   9  13
ATOM     10  C   UNL     1       0.758  -0.042  -4.796  0.00  0.00    +0.000 A 
ATOM     11  C   UNL     1      -0.254  -0.695  -4.117  0.00  0.00    +0.000 A 
ATOM     12  C   UNL     1      -0.760  -0.157  -2.949  0.00  0.00    +0.004 A 
ATOM     13  C   UNL     1      -0.255   1.032  -2.459  0.00  0.00    -0.045 A 
ATOM     14  C   UNL     1       0.753   1.688  -3.141  0.00  0.00    +0.004 A 
ATOM     15  C   UNL     1       1.264   1.148  -4.306  0.00  0.00    +0.000 A 
ENDBRANCH   9  13
ENDBRANCH   1   9
BRANCH   4  16
ATOM     16  C   UNL     1       0.271   3.011   3.171  0.00  0.00    +0.176 C 
BRANCH  16  17
ATOM     17  C   UNL     1      -0.233   4.413   2.944  0.00  0.00    +0.098 A 
ATOM     18  C   UNL     1      -1.516   4.812   3.002  0.00  0.00    +0.222 A 
ATOM     19  O   UNL     1      -1.536   6.135   2.741  0.00  0.00    -0.443 OA
ATOM     20  C   UNL     1      -0.270   6.526   2.520  0.00  0.00    +0.227 A 
ATOM     21  N   UNL     1       0.517   5.483   2.643  0.00  0.00    -0.212 NA
BRANCH  20  22
ATOM     22  C   UNL     1       0.164   7.901   2.192  0.00  0.00    +0.037 A 
ATOM     23  C   UNL     1       1.516   8.180   1.988  0.00  0.00    +0.013 A 
ATOM     24  C   UNL     1       1.914   9.463   1.677  0.00  0.00    +0.001 A 
ATOM     25  C   UNL     1       0.976  10.476   1.577  0.00  0.00    +0.000 A 
ATOM     26  C   UNL     1      -0.365  10.207   1.782  0.00  0.00    +0.001 A 
ATOM     27  C   UNL     1      -0.777   8.927   2.089  0.00  0.00    +0.013 A 
ENDBRANCH  20  22
ENDBRANCH  16  17
ENDBRANCH   4  16
TORSDOF 5
