REMARK  Name = ZINC14473181
REMARK  8 active torsions:
REMARK  status: ('A' for Active; 'I' for Inactive)
REMARK    1  A    between atoms: C_1  and  C_2
REMARK    2  A    between atoms: C_2  and  C_3
REMARK    3  A    between atoms: C_2  and  C_4
REMARK    4  A    between atoms: C_4  and  C_5
REMARK    5  A    between atoms: C_5  and  O_6
REMARK    6  A    between atoms: O_6  and  C_7
REMARK    7  A    between atoms: C_20  and  C_23
REMARK    8  A    between atoms: C_25  and  N_30
REMARK                            x       y       z     vdW  Elec       q    Type
REMARK                         _______ _______ _______ _____ _____    ______ ____
ROOT
ATOM      1  C   UNL     1       1.209  -0.687  -0.029  0.00  0.00    +0.121 A 
ATOM      2  C   UNL     1       2.402   0.021  -0.052  0.00  0.00    +0.047 A 
ATOM      3  C   UNL     1       2.389   1.400  -0.035  0.00  0.00    +0.027 A 
ATOM      4  C   UNL     1       1.185   2.091   0.002  0.00  0.00    +0.032 A 
ATOM      5  C   UNL     1      -0.017   1.374   0.010  0.00  0.00    -0.016 A 
ATOM      6  C   UNL     1       0.002  -0.004   0.002  0.00  0.00    +0.051 A 
ATOM      7  C   UNL     1      -1.275   2.150   0.004  0.00  0.00    +0.049 C 
ATOM      8  C   UNL     1      -2.542   1.599   0.550  0.00  0.00    -0.023 C 
ATOM      9  C   UNL     1      -3.266   2.601   1.034  0.00  0.00    -0.030 C 
ATOM     10  C   UNL     1      -2.507   3.920   0.874  0.00  0.00    +0.033 C 
ATOM     11  C   UNL     1      -1.050   3.437   0.852  0.00  0.00    +0.029 C 
ATOM     12  C   UNL     1      -0.057   4.273   0.066  0.00  0.00    +0.106 C 
ATOM     13  N   UNL     1       1.200   3.493   0.052  0.00  0.00    -0.336 N 
ATOM     14  H   UNL     1       2.050   3.959   0.079  0.00  0.00    +0.147 HD
ENDROOT
BRANCH  12  15
ATOM     15  C   UNL     1      -0.553   4.484  -1.341  0.00  0.00    -0.007 A 
ATOM     16  C   UNL     1      -0.192   3.602  -2.342  0.00  0.00    +0.039 A 
ATOM     17  C   UNL     1      -0.651   3.792  -3.631  0.00  0.00    +0.127 A 
ATOM     18  C   UNL     1      -1.463   4.872  -3.924  0.00  0.00    +0.034 A 
ATOM     19  C   UNL     1      -1.821   5.759  -2.926  0.00  0.00    +0.022 A 
ATOM     20  C   UNL     1      -1.365   5.565  -1.633  0.00  0.00    +0.046 A 
ATOM     21 CL   UNL     1      -1.814   6.678  -0.379  0.00  0.00    -0.083 Cl
BRANCH  17  22
ATOM     22  N   UNL     1      -0.268   2.843  -4.701  0.00  0.00    +0.056 N 
ATOM     23  O   UNL     1      -0.668   3.014  -5.838  0.00  0.00    -0.126 OA
ATOM     24  O   UNL     1       0.448   1.892  -4.443  0.00  0.00    -0.126 OA
ENDBRANCH  17  22
ENDBRANCH  12  15
BRANCH   1  25
ATOM     25  O   UNL     1       1.222  -2.047  -0.038  0.00  0.00    -0.492 OA
BRANCH  25  26
ATOM     26  C   UNL     1       2.502  -2.682  -0.070  0.00  0.00    +0.229 C 
BRANCH  26  27
ATOM     27  C   UNL     1       2.317  -4.201  -0.076  0.00  0.00    +0.044 C 
BRANCH  27  29
ATOM     28  C   UNL     1       4.443  -4.571   1.182  0.00  0.00    +0.007 C 
ATOM     29  C   UNL     1       3.686  -4.882  -0.111  0.00  0.00    -0.014 C 
ATOM     30  C   UNL     1       3.501  -6.395  -0.241  0.00  0.00    +0.007 C 
ENDBRANCH  27  29
ENDBRANCH  26  27
ENDBRANCH  25  26
ENDBRANCH   1  25
TORSDOF 6
