REMARK  Name = ZINC09315913
REMARK  6 active torsions:
REMARK  status: ('A' for Active; 'I' for Inactive)
REMARK    1  A    between atoms: C_2  and  C_3
REMARK    2  A    between atoms: C_3  and  N_4
REMARK    3  A    between atoms: C_8  and  C_10
REMARK    4  A    between atoms: C_10  and  N_11
REMARK    5  A    between atoms: N_11  and  C_12
REMARK    6  A    between atoms: C_17  and  C_18
REMARK                            x       y       z     vdW  Elec       q    Type
REMARK                         _______ _______ _______ _____ _____    ______ ____
ROOT
ATOM      1  N   UNL     1       8.387   1.377  -0.072  0.00  0.00    -0.296 N 
ATOM      2  C   UNL     1       7.125   0.902  -0.063  0.00  0.00    +0.306 C 
ATOM      3  O   UNL     1       6.927  -0.297  -0.068  0.00  0.00    -0.252 OA
ATOM      4  N   UNL     1       6.084   1.757  -0.048  0.00  0.00    -0.239 N 
ATOM      5  C   UNL     1       4.822   1.282  -0.038  0.00  0.00    +0.237 C 
ATOM      6  O   UNL     1       4.625   0.086  -0.043  0.00  0.00    -0.274 OA
ATOM      7  H   UNL     1       8.545   2.334  -0.069  0.00  0.00    +0.151 HD
ATOM      8  H   UNL     1       6.242   2.714  -0.044  0.00  0.00    +0.159 HD
ENDROOT
BRANCH   1   9
ATOM      9  C   UNL     1       9.519   0.447  -0.089  0.00  0.00    +0.132 C 
BRANCH   9  11
ATOM     10  C   UNL     1      11.715   1.004   0.822  0.00  0.00    +0.005 C 
ATOM     11  C   UNL     1      10.809   1.227  -0.097  0.00  0.00    -0.016 C 
ENDBRANCH   9  11
ENDBRANCH   1   9
BRANCH   5  12
ATOM     12  C   UNL     1       3.657   2.238  -0.021  0.00  0.00    +0.198 C 
BRANCH  12  13
ATOM     13  N   UNL     1       2.404   1.480  -0.013  0.00  0.00    -0.334 N 
ATOM     14  H   UNL     1       2.423   0.510  -0.019  0.00  0.00    +0.147 HD
BRANCH  13  15
ATOM     15  C   UNL     1       1.186   2.150   0.002  0.00  0.00    +0.045 A 
ATOM     16  C   UNL     1       1.154   3.539   0.010  0.00  0.00    +0.024 A 
ATOM     17  C   UNL     1      -0.056   4.202   0.025  0.00  0.00    +0.002 A 
ATOM     18  C   UNL     1      -1.246   3.492   0.032  0.00  0.00    +0.001 A 
ATOM     19  C   UNL     1      -1.234   2.114   0.019  0.00  0.00    +0.021 A 
ATOM     20  C   UNL     1      -0.017   1.428   0.010  0.00  0.00    +0.073 A 
BRANCH  20  21
ATOM     21  C   UNL     1       0.002  -0.004   0.002  0.00  0.00    +0.101 C 
ATOM     22  N   UNL     1       0.018  -1.140  -0.004  0.00  0.00    -0.191 NA
ENDBRANCH  20  21
ENDBRANCH  13  15
ENDBRANCH  12  13
ENDBRANCH   5  12
TORSDOF 6
