REMARK  Name = ZINC35877469
REMARK  7 active torsions:
REMARK  status: ('A' for Active; 'I' for Inactive)
REMARK    1  A    between atoms: C_1  and  C_2
REMARK    2  A    between atoms: C_2  and  C_4
REMARK    3  A    between atoms: C_2  and  O_32
REMARK    4  A    between atoms: C_7  and  C_20
REMARK    5  A    between atoms: N_22  and  C_23
REMARK    6  A    between atoms: C_28  and  O_29
REMARK    7  A    between atoms: O_29  and  C_30
REMARK                            x       y       z     vdW  Elec       q    Type
REMARK                         _______ _______ _______ _____ _____    ______ ____
ROOT
ATOM      1  C   UNL     1       0.876  -0.129   1.365  0.00  0.00    -0.040 C 
ATOM      2  C   UNL     1       2.394   0.174   1.279  0.00  0.00    -0.001 C 
ATOM      3  C   UNL     1       3.021  -0.950   2.139  0.00  0.00    +0.076 C 
ATOM      4  C   UNL     1       1.966  -2.062   2.163  0.00  0.00    +0.049 C 
ATOM      5  N   UNL     1       0.819  -1.615   1.353  0.00  0.00    +0.395 N 
ATOM      6  C   UNL     1       2.530  -3.356   1.642  0.00  0.00    -0.028 A 
ATOM      7  C   UNL     1       3.080  -3.730   0.436  0.00  0.00    +0.004 A 
ATOM      8  C   UNL     1       3.523  -5.027   0.251  0.00  0.00    +0.000 A 
ATOM      9  C   UNL     1       3.412  -5.946   1.279  0.00  0.00    +0.002 A 
ATOM     10  C   UNL     1       2.862  -5.575   2.488  0.00  0.00    +0.023 A 
ATOM     11  C   UNL     1       2.414  -4.271   2.683  0.00  0.00    +0.036 A 
ATOM     12  N   UNL     1       1.831  -3.663   3.797  0.00  0.00    -0.286 N 
ATOM     13  C   UNL     1       1.539  -2.369   3.575  0.00  0.00    +0.211 C 
ATOM     14  O   UNL     1       1.029  -1.597   4.360  0.00  0.00    -0.277 OA
ATOM     15  H   UNL     1      -0.046  -1.933   1.764  0.00  0.00    -0.083 HD
ATOM     16  H   UNL     1       1.657  -4.122   4.634  0.00  0.00    +0.155 HD
ATOM     17  H   UNL     1       0.905  -1.960   0.409  0.00  0.00    -0.083 HD
ENDROOT
BRANCH   3  18
ATOM     18  C   UNL     1       4.295  -1.446   1.505  0.00  0.00    +0.220 C 
ATOM     19  O   UNL     1       4.482  -1.289   0.317  0.00  0.00    -0.275 OA
ATOM     20  N   UNL     1       5.226  -2.065   2.258  0.00  0.00    -0.282 N 
ATOM     21  H   UNL     1       5.043  -2.264   3.189  0.00  0.00    +0.155 HD
BRANCH  20  22
ATOM     22  C   UNL     1       6.458  -2.422   1.695  0.00  0.00    +0.077 A 
ATOM     23  C   UNL     1       6.895  -1.807   0.530  0.00  0.00    +0.047 A 
ATOM     24  C   UNL     1       8.112  -2.161  -0.023  0.00  0.00    +0.043 A 
ATOM     25  C   UNL     1       8.896  -3.128   0.582  0.00  0.00    +0.024 A 
ATOM     26  C   UNL     1       8.466  -3.744   1.742  0.00  0.00    +0.049 A 
ATOM     27  C   UNL     1       7.251  -3.391   2.306  0.00  0.00    +0.141 A 
ATOM     28 CL   UNL     1       8.658  -1.391  -1.480  0.00  0.00    -0.083 Cl
BRANCH  27  29
ATOM     29  O   UNL     1       6.830  -3.993   3.450  0.00  0.00    -0.493 OA
ATOM     30  C   UNL     1       7.694  -4.977   4.021  0.00  0.00    +0.277 C 
ENDBRANCH  27  29
ENDBRANCH  20  22
ENDBRANCH   3  18
BRANCH   1  32
ATOM     31  C   UNL     1       0.159   1.977   0.228  0.00  0.00    +0.036 C 
ATOM     32  C   UNL     1       0.141   0.449   0.154  0.00  0.00    +0.098 C 
BRANCH  32  33
ATOM     33  O   UNL     1       0.791   0.023  -1.046  0.00  0.00    -0.394 OA
ATOM     34  H   UNL     1       1.715   0.302  -1.113  0.00  0.00    +0.210 HD
ENDBRANCH  32  33
ENDBRANCH   1  32
TORSDOF 5
