REMARK  Name = ZINC60343238
REMARK  9 active torsions:
REMARK  status: ('A' for Active; 'I' for Inactive)
REMARK    1  A    between atoms: C_1  and  C_2
REMARK    2  A    between atoms: C_3  and  O_30
REMARK    3  A    between atoms: C_12  and  C_13
REMARK    4  A    between atoms: C_13  and  N_14
REMARK    5  A    between atoms: N_14  and  C_15
REMARK    6  A    between atoms: N_14  and  C_23
REMARK    7  A    between atoms: C_15  and  C_16
REMARK    8  A    between atoms: C_20  and  O_22
REMARK    9  A    between atoms: C_26  and  O_29
REMARK                            x       y       z     vdW  Elec       q    Type
REMARK                         _______ _______ _______ _____ _____    ______ ____
ROOT
ATOM      1  N   UNL     1      -1.290  -4.829   2.478  0.00  0.00    +0.387 N 
ATOM      2  H   UNL     1      -1.875  -4.698   1.666  0.00  0.00    -0.080 HD
ENDROOT
BRANCH   1   3
ATOM      3  C   UNL     1      -0.972  -6.256   2.626  0.00  0.00    -0.068 C 
ATOM      4  C   UNL     1      -0.232  -6.746   1.380  0.00  0.00    -0.013 C 
ATOM      5  C   UNL     1       0.099  -8.231   1.535  0.00  0.00    +0.030 C 
ATOM      6  C   UNL     1      -1.196  -9.028   1.705  0.00  0.00    +0.114 C 
ATOM      7  C   UNL     1      -1.936  -8.538   2.951  0.00  0.00    +0.030 C 
ATOM      8  C   UNL     1      -2.268  -7.052   2.796  0.00  0.00    -0.013 C 
BRANCH   6   9
ATOM      9  O   UNL     1      -0.886 -10.415   1.849  0.00  0.00    -0.392 OA
ATOM     10  H   UNL     1      -1.662 -10.982   1.962  0.00  0.00    +0.210 HD
ENDBRANCH   6   9
ENDBRANCH   1   3
BRANCH   1  11
ATOM     11  C   UNL     1      -0.047  -4.064   2.314  0.00  0.00    -0.041 C 
BRANCH  11  23
ATOM     12  C   UNL     1      -1.452   0.765  -1.560  0.00  0.00    +0.051 C 
ATOM     13  C   UNL     1      -1.123  -0.655  -1.177  0.00  0.00    +0.034 A 
ATOM     14  C   UNL     1      -1.037  -1.636  -2.152  0.00  0.00    +0.123 A 
ATOM     15  C   UNL     1      -0.735  -2.951  -1.808  0.00  0.00    +0.046 A 
ATOM     16  C   UNL     1      -0.519  -3.293  -0.504  0.00  0.00    +0.015 A 
ATOM     17  C   UNL     1      -0.602  -2.316   0.493  0.00  0.00    +0.019 A 
ATOM     18  C   UNL     1      -0.901  -0.984   0.151  0.00  0.00    +0.146 A 
ATOM     19  O   UNL     1      -0.975  -0.042   1.117  0.00  0.00    -0.422 OA
ATOM     20  C   UNL     1      -0.763  -0.344   2.407  0.00  0.00    +0.337 A 
ATOM     21  O   UNL     1      -0.841   0.538   3.244  0.00  0.00    -0.245 OA
ATOM     22  C   UNL     1      -0.453  -1.656   2.820  0.00  0.00    +0.094 A 
ATOM     23  C   UNL     1      -0.376  -2.653   1.900  0.00  0.00    -0.046 A 
BRANCH  14  24
ATOM     24  O   UNL     1      -1.249  -1.312  -3.453  0.00  0.00    -0.506 OA
ATOM     25  H   UNL     1      -0.450  -1.045  -3.928  0.00  0.00    +0.292 HD
ENDBRANCH  14  24
ENDBRANCH  11  23
ENDBRANCH   1  11
BRANCH   1  26
ATOM     26  C   UNL     1      -2.001  -4.359   3.674  0.00  0.00    -0.042 C 
BRANCH  26  27
ATOM     27  C   UNL     1      -1.212  -4.728   4.904  0.00  0.00    -0.060 A 
ATOM     28  C   UNL     1      -1.522  -5.879   5.604  0.00  0.00    +0.002 A 
ATOM     29  C   UNL     1      -0.800  -6.220   6.733  0.00  0.00    +0.004 A 
ATOM     30  C   UNL     1       0.233  -5.410   7.165  0.00  0.00    +0.045 A 
ATOM     31  C   UNL     1       0.545  -4.255   6.465  0.00  0.00    +0.117 A 
ATOM     32  C   UNL     1      -0.177  -3.918   5.329  0.00  0.00    +0.047 A 
BRANCH  31  33
ATOM     33  O   UNL     1       1.561  -3.456   6.887  0.00  0.00    -0.507 OA
ATOM     34  H   UNL     1       2.422  -3.682   6.509  0.00  0.00    +0.292 HD
ENDBRANCH  31  33
ENDBRANCH  26  27
ENDBRANCH   1  26
TORSDOF 8
