REMARK  Name = ZINC03496020
REMARK  7 active torsions:
REMARK  status: ('A' for Active; 'I' for Inactive)
REMARK    1  A    between atoms: C_1  and  C_2
REMARK    2  A    between atoms: C_2  and  N_3
REMARK    3  A    between atoms: C_7  and  C_9
REMARK    4  A    between atoms: C_9  and  C_11
REMARK    5  A    between atoms: C_9  and  S_12
REMARK    6  A    between atoms: S_12  and  C_13
REMARK    7  A    between atoms: C_24  and  C_26
REMARK                            x       y       z     vdW  Elec       q    Type
REMARK                         _______ _______ _______ _____ _____    ______ ____
ROOT
ATOM      1  C   UNL     1       0.191   4.406   0.025  0.00  0.00    +0.197 A 
ATOM      2  N   UNL     1       0.771   5.586   0.025  0.00  0.00    -0.122 NA
ATOM      3  N   UNL     1       2.050   5.453   0.011  0.00  0.00    -0.129 NA
ATOM      4  C   UNL     1       2.366   4.171   0.001  0.00  0.00    +0.162 A 
ATOM      5  N   UNL     1       1.182   3.469   0.010  0.00  0.00    -0.270 N 
ATOM      6  C   UNL     1       1.177   2.085   0.002  0.00  0.00    +0.058 A 
ATOM      7  C   UNL     1      -0.017   1.375   0.010  0.00  0.00    +0.027 A 
ATOM      8  C   UNL     1       0.002  -0.004   0.002  0.00  0.00    +0.002 A 
ATOM      9  C   UNL     1       1.205  -0.694  -0.014  0.00  0.00    +0.001 A 
ATOM     10  C   UNL     1       2.400  -0.010  -0.022  0.00  0.00    +0.010 A 
ATOM     11  C   UNL     1       2.398   1.388  -0.014  0.00  0.00    +0.002 A 
ATOM     12  C   UNL     1       3.654   2.144  -0.023  0.00  0.00    -0.038 A 
ATOM     13  C   UNL     1       3.610   3.495  -0.015  0.00  0.00    +0.052 A 
ATOM     14  C   UNL     1       4.978   1.424  -0.041  0.00  0.00    +0.044 C 
ENDROOT
BRANCH   1  15
ATOM     15  S   UNL     1      -1.543   4.095   0.041  0.00  0.00    -0.073 S 
BRANCH  15  16
ATOM     16  C   UNL     1      -2.168   5.793   0.057  0.00  0.00    +0.137 C 
ATOM     17  C   UNL     1      -1.758   6.475   1.364  0.00  0.00    +0.029 C 
BRANCH  16  22
ATOM     18  N   UNL     1      -6.317   7.896  -1.156  0.00  0.00    -0.299 N 
ATOM     19  C   UNL     1      -5.666   6.829  -0.652  0.00  0.00    +0.306 C 
ATOM     20  O   UNL     1      -6.291   5.854  -0.285  0.00  0.00    -0.252 OA
ATOM     21  N   UNL     1      -4.322   6.844  -0.555  0.00  0.00    -0.239 N 
ATOM     22  C   UNL     1      -3.671   5.777  -0.052  0.00  0.00    +0.233 C 
ATOM     23  O   UNL     1      -4.295   4.803   0.314  0.00  0.00    -0.274 OA
ATOM     24  H   UNL     1      -5.818   8.675  -1.449  0.00  0.00    +0.150 HD
ATOM     25  H   UNL     1      -3.823   7.623  -0.848  0.00  0.00    +0.159 HD
BRANCH  18  27
ATOM     26  C   UNL     1      -8.261   9.203  -1.861  0.00  0.00    +0.024 C 
ATOM     27  C   UNL     1      -7.778   7.880  -1.261  0.00  0.00    +0.102 C 
ENDBRANCH  18  27
ENDBRANCH  16  22
ENDBRANCH  15  16
ENDBRANCH   1  15
TORSDOF 4
