REMARK  Name = ZINC20566442
REMARK  4 active torsions:
REMARK  status: ('A' for Active; 'I' for Inactive)
REMARK    1  A    between atoms: C_3  and  N_9
REMARK    2  A    between atoms: N_9  and  S_10
REMARK    3  A    between atoms: S_10  and  C_13
REMARK    4  A    between atoms: C_18  and  N_19
REMARK                            x       y       z     vdW  Elec       q    Type
REMARK                         _______ _______ _______ _____ _____    ______ ____
ROOT
ATOM      1  S   UNL     1      -0.136   1.607   0.129  0.00  0.00    +0.074 S 
ATOM      2  O   UNL     1      -0.085   0.196   0.292  0.00  0.00    -0.150 OA
ATOM      3  O   UNL     1       1.029   2.420   0.153  0.00  0.00    -0.150 OA
ENDROOT
BRANCH   1   4
ATOM      4  C   UNL     1      -1.205   2.220   1.388  0.00  0.00    +0.129 A 
ATOM      5  C   UNL     1      -1.745   1.354   2.319  0.00  0.00    +0.032 A 
ATOM      6  C   UNL     1      -2.583   1.834   3.308  0.00  0.00    +0.022 A 
ATOM      7  C   UNL     1      -2.884   3.184   3.369  0.00  0.00    +0.043 A 
ATOM      8  C   UNL     1      -2.347   4.055   2.441  0.00  0.00    +0.044 A 
ATOM      9  C   UNL     1      -1.500   3.576   1.450  0.00  0.00    +0.053 A 
ATOM     10 CL   UNL     1      -3.937   3.782   4.613  0.00  0.00    -0.083 Cl
BRANCH   9  11
ATOM     11  N   UNL     1      -0.950   4.455   0.513  0.00  0.00    -0.356 N 
ATOM     12  H   UNL     1      -1.185   5.529   0.563  0.00  0.00    +0.142 HD
ATOM     13  H   UNL     1      -0.283   4.074  -0.274  0.00  0.00    +0.142 HD
ENDBRANCH   9  11
ENDBRANCH   1   4
BRANCH   1  14
ATOM     14  N   UNL     1      -0.880   1.888  -1.324  0.00  0.00    -0.215 N 
ATOM     15  H   UNL     1      -0.453   2.618  -2.028  0.00  0.00    +0.174 HD
BRANCH  14  18
ATOM     16  C   UNL     1      -4.103   0.152  -0.992  0.00  0.00    +0.003 A 
ATOM     17  C   UNL     1      -2.948   0.834  -0.662  0.00  0.00    +0.026 A 
ATOM     18  C   UNL     1      -2.049   1.199  -1.656  0.00  0.00    +0.068 A 
ATOM     19  C   UNL     1      -2.318   0.881  -2.982  0.00  0.00    +0.082 A 
ATOM     20  C   UNL     1      -3.474   0.194  -3.306  0.00  0.00    +0.061 A 
ATOM     21  C   UNL     1      -4.366  -0.168  -2.311  0.00  0.00    +0.021 A 
ATOM     22 CL   UNL     1      -3.808  -0.210  -4.960  0.00  0.00    -0.082 Cl
ATOM     23 CL   UNL     1      -1.202   1.341  -4.230  0.00  0.00    -0.080 Cl
ENDBRANCH  14  18
ENDBRANCH   1  14
TORSDOF 4
