REMARK  Name = ZINC38079415
REMARK  6 active torsions:
REMARK  status: ('A' for Active; 'I' for Inactive)
REMARK    1  A    between atoms: C_6  and  N_7
REMARK    2  A    between atoms: N_7  and  C_8
REMARK    3  A    between atoms: C_8  and  C_9
REMARK    4  A    between atoms: C_9  and  O_10
REMARK    5  A    between atoms: O_10  and  C_11
REMARK    6  A    between atoms: C_14  and  N_17
REMARK                            x       y       z     vdW  Elec       q    Type
REMARK                         _______ _______ _______ _____ _____    ______ ____
ROOT
ATOM      1  C   UNL     1      -2.610  -2.716   0.013  0.00  0.00    +0.247 C 
ENDROOT
BRANCH   1   2
ATOM      2  C   UNL     1      -1.176  -2.185   0.002  0.00  0.00    +0.142 C 
BRANCH   2   3
ATOM      3  N   UNL     1      -1.197  -0.720   0.010  0.00  0.00    -0.341 N 
ATOM      4  H   UNL     1      -2.044  -0.248   0.021  0.00  0.00    +0.146 HD
BRANCH   3  10
ATOM      5  C   UNL     1      -0.017   1.385   0.010  0.00  0.00    +0.024 A 
ATOM      6  C   UNL     1       1.171   2.090   0.002  0.00  0.00    +0.016 A 
ATOM      7  C   UNL     1       2.378   1.415  -0.013  0.00  0.00    +0.013 A 
ATOM      8  C   UNL     1       2.400   0.032  -0.022  0.00  0.00    +0.016 A 
ATOM      9  C   UNL     1       1.216  -0.679  -0.014  0.00  0.00    +0.024 A 
ATOM     10  C   UNL     1       0.002  -0.004   0.002  0.00  0.00    +0.027 A 
ATOM     11  I   UNL     1       4.176   2.489  -0.026  0.00  0.00    -0.044 I 
ENDBRANCH   3  10
ENDBRANCH   2   3
ENDBRANCH   1   2
BRANCH   1  12
ATOM     12  O   UNL     1      -3.267  -2.341  -1.199  0.00  0.00    -0.490 OA
BRANCH  12  13
ATOM     13  C   UNL     1      -4.558  -2.738  -1.350  0.00  0.00    +0.121 A 
ATOM     14  C   UNL     1      -5.182  -3.468  -0.349  0.00  0.00    +0.048 A 
ATOM     15  C   UNL     1      -6.495  -3.869  -0.504  0.00  0.00    +0.036 A 
ATOM     16  C   UNL     1      -7.187  -3.544  -1.656  0.00  0.00    +0.126 A 
ATOM     17  C   UNL     1      -6.567  -2.817  -2.656  0.00  0.00    +0.036 A 
ATOM     18  C   UNL     1      -5.256  -2.408  -2.503  0.00  0.00    +0.048 A 
BRANCH  16  19
ATOM     19  N   UNL     1      -8.593  -3.975  -1.820  0.00  0.00    +0.056 N 
ATOM     20  O   UNL     1      -9.136  -4.611  -0.947  0.00  0.00    -0.126 OA
ATOM     21  O   UNL     1      -9.199  -3.692  -2.827  0.00  0.00    -0.126 OA
ENDBRANCH  16  19
ENDBRANCH  12  13
ENDBRANCH   1  12
TORSDOF 6
