REMARK  Name = ZINC12358923
REMARK  12 active torsions:
REMARK  status: ('A' for Active; 'I' for Inactive)
REMARK    1  A    between atoms: C_1  and  C_2
REMARK    2  A    between atoms: C_11  and  O_13
REMARK    3  A    between atoms: O_13  and  C_14
REMARK    4  A    between atoms: C_14  and  C_29
REMARK    5  A    between atoms: C_15  and  C_27
REMARK    6  A    between atoms: C_15  and  O_28
REMARK    7  A    between atoms: C_16  and  C_25
REMARK    8  A    between atoms: C_16  and  O_26
REMARK    9  A    between atoms: C_17  and  C_23
REMARK   10  A    between atoms: C_17  and  O_24
REMARK   11  A    between atoms: C_18  and  C_21
REMARK   12  A    between atoms: C_21  and  O_22
REMARK                            x       y       z     vdW  Elec       q    Type
REMARK                         _______ _______ _______ _____ _____    ______ ____
ROOT
ATOM      1  C   UNL     1       1.752   2.696  -0.249  0.00  0.00    +0.242 C 
ATOM      2  C   UNL     1       2.337   1.977  -1.467  0.00  0.00    +0.159 C 
ATOM      3  C   UNL     1       2.207   0.464  -1.267  0.00  0.00    +0.128 C 
ATOM      4  C   UNL     1       0.734   0.115  -1.039  0.00  0.00    +0.123 C 
ATOM      5  C   UNL     1       0.210   0.906   0.162  0.00  0.00    +0.182 C 
ATOM      6  O   UNL     1       0.389   2.304  -0.075  0.00  0.00    -0.329 OA
ATOM      7  C   UNL     1      -0.077   0.479  -2.284  0.00  0.00    +0.047 C 
ATOM      8  C   UNL     1       3.030   0.033  -0.051  0.00  0.00    +0.047 C 
ATOM      9  C   UNL     1       3.814   2.347  -1.618  0.00  0.00    +0.051 C 
ATOM     10  C   UNL     1       1.824   4.209  -0.467  0.00  0.00    +0.092 C 
ENDROOT
BRANCH   4  11
ATOM     11  O   UNL     1       0.609  -1.285  -0.779  0.00  0.00    -0.383 OA
ATOM     12  H   UNL     1      -0.300  -1.576  -0.621  0.00  0.00    +0.210 HD
ENDBRANCH   4  11
BRANCH   3  13
ATOM     13  O   UNL     1       2.685  -0.215  -2.431  0.00  0.00    -0.383 OA
ATOM     14  H   UNL     1       2.625  -1.178  -2.376  0.00  0.00    +0.210 HD
ENDBRANCH   3  13
BRANCH   2  15
ATOM     15  O   UNL     1       1.624   2.367  -2.642  0.00  0.00    -0.379 OA
ATOM     16  H   UNL     1       1.664   3.314  -2.830  0.00  0.00    +0.211 HD
ENDBRANCH   2  15
BRANCH   1  17
ATOM     17  O   UNL     1       2.501   2.347   0.917  0.00  0.00    -0.458 OA
BRANCH  17  28
ATOM     18  C   UNL     1      -0.645   5.098   5.899  0.00  0.00    +0.045 C 
ATOM     19  C   UNL     1       0.645   4.326   5.802  0.00  0.00    -0.033 A 
ATOM     20  C   UNL     1       1.400   4.086   6.906  0.00  0.00    +0.096 A 
ATOM     21  C   UNL     1       2.604   3.361   6.789  0.00  0.00    +0.337 A 
ATOM     22  O   UNL     1       3.271   3.153   7.787  0.00  0.00    -0.245 OA
ATOM     23  O   UNL     1       3.033   2.893   5.606  0.00  0.00    -0.422 OA
ATOM     24  C   UNL     1       2.331   3.097   4.471  0.00  0.00    +0.143 A 
ATOM     25  C   UNL     1       1.120   3.813   4.515  0.00  0.00    +0.021 A 
ATOM     26  C   UNL     1       0.389   4.025   3.341  0.00  0.00    +0.015 A 
ATOM     27  C   UNL     1       0.857   3.541   2.154  0.00  0.00    +0.046 A 
ATOM     28  C   UNL     1       2.052   2.827   2.105  0.00  0.00    +0.128 A 
ATOM     29  C   UNL     1       2.788   2.607   3.257  0.00  0.00    +0.092 A 
ENDBRANCH  17  28
ENDBRANCH   1  17
BRANCH   5  30
ATOM     30  C   UNL     1      -1.278   0.609   0.360  0.00  0.00    +0.190 C 
BRANCH  30  31
ATOM     31  O   UNL     1      -1.739   1.256   1.548  0.00  0.00    -0.392 OA
ATOM     32  H   UNL     1      -2.677   1.111   1.736  0.00  0.00    +0.210 HD
ENDBRANCH  30  31
ENDBRANCH   5  30
TORSDOF 7
