REMARK  Name = ZINC04227434
REMARK  5 active torsions:
REMARK  status: ('A' for Active; 'I' for Inactive)
REMARK    1  A    between atoms: C_1  and  C_2
REMARK    2  A    between atoms: C_6  and  C_16
REMARK    3  A    between atoms: C_7  and  O_8
REMARK    4  A    between atoms: O_8  and  C_9
REMARK    5  A    between atoms: C_9  and  C_10
REMARK                            x       y       z     vdW  Elec       q    Type
REMARK                         _______ _______ _______ _____ _____    ______ ____
ROOT
ATOM      1  O   UNL     1       2.322   3.866   0.000  0.00  0.00    -0.485 OA
ENDROOT
BRANCH   1   8
ATOM      2  C   UNL     1       2.490   1.047  -0.017  0.00  0.00    +0.047 C 
ATOM      3  C   UNL     1       1.175   1.782   0.000  0.00  0.00    -0.007 A 
ATOM      4  C   UNL     1      -0.013   1.076   0.008  0.00  0.00    +0.022 A 
ATOM      5  C   UNL     1      -1.220   1.751   0.017  0.00  0.00    +0.019 A 
ATOM      6  C   UNL     1      -1.242   3.134   0.031  0.00  0.00    +0.022 A 
ATOM      7  C   UNL     1      -0.057   3.844   0.023  0.00  0.00    -0.007 A 
ATOM      8  C   UNL     1       1.155   3.169   0.008  0.00  0.00    +0.127 A 
ATOM      9  C   UNL     1      -0.081   5.351   0.031  0.00  0.00    +0.047 C 
ATOM     10 BR   UNL     1      -2.844   0.781   0.019  0.00  0.00    -0.050 Br
ENDBRANCH   1   8
BRANCH   1  11
ATOM     11  C   UNL     1       2.866   4.206  -1.277  0.00  0.00    +0.293 C 
BRANCH  11  12
ATOM     12  C   UNL     1       4.151   4.971  -1.088  0.00  0.00    +0.141 A 
ATOM     13  N   UNL     1       5.390   4.534  -0.992  0.00  0.00    -0.141 NA
ATOM     14  N   UNL     1       6.368   5.315  -0.834  0.00  0.00    -0.126 NA
ATOM     15  C   UNL     1       6.207   6.629  -0.755  0.00  0.00    +0.179 A 
ATOM     16  S   UNL     1       4.429   6.733  -0.938  0.00  0.00    -0.033 S 
ATOM     17  N   UNL     1       7.147   7.635  -0.585  0.00  0.00    -0.336 N 
ATOM     18  H   UNL     1       8.088   7.411  -0.504  0.00  0.00    +0.144 HD
ATOM     19  H   UNL     1       6.864   8.562  -0.546  0.00  0.00    +0.144 HD
ENDBRANCH  11  12
ENDBRANCH   1  11
TORSDOF 3
