REMARK  Name = ZINC41678525
REMARK  7 active torsions:
REMARK  status: ('A' for Active; 'I' for Inactive)
REMARK    1  A    between atoms: C_1  and  C_2
REMARK    2  A    between atoms: C_2  and  C_3
REMARK    3  A    between atoms: C_2  and  C_4
REMARK    4  A    between atoms: C_2  and  C_5
REMARK    5  A    between atoms: C_7  and  C_10
REMARK    6  A    between atoms: C_10  and  C_12
REMARK    7  A    between atoms: C_10  and  N_18
REMARK                            x       y       z     vdW  Elec       q    Type
REMARK                         _______ _______ _______ _____ _____    ______ ____
ROOT
ATOM      1  C   UNL     1       3.576  -0.751  -3.427  0.00  0.00    +0.035 C 
ENDROOT
BRANCH   1   2
ATOM      2  C   UNL     1       3.477   0.183  -4.606  0.00  0.00    -0.016 A 
ATOM      3  C   UNL     1       3.878   1.473  -4.708  0.00  0.00    +0.025 A 
ATOM      4  C   UNL     1       3.683   2.143  -5.902  0.00  0.00    +0.025 A 
ATOM      5  C   UNL     1       3.097   1.489  -6.935  0.00  0.00    +0.060 A 
ATOM      6  S   UNL     1       2.807  -0.127  -6.232  0.00  0.00    -0.102 S 
ATOM      7 BR   UNL     1       4.226   3.945  -6.091  0.00  0.00    -0.050 Br
ENDBRANCH   1   2
BRANCH   1  10
ATOM      8  C   UNL     1       0.707  -0.490  -1.238  0.00  0.00    +0.233 A 
ATOM      9  N   UNL     1       1.943  -0.232  -1.565  0.00  0.00    -0.197 NA
ATOM     10  C   UNL     1       2.243  -0.821  -2.728  0.00  0.00    +0.162 A 
ATOM     11  N   UNL     1       1.196  -1.464  -3.157  0.00  0.00    -0.063 NA
ATOM     12  O   UNL     1       0.175  -1.266  -2.191  0.00  0.00    -0.338 OA
BRANCH   8  14
ATOM     13  C   UNL     1      -0.019   1.526   0.010  0.00  0.00    +0.020 C 
ATOM     14  C   UNL     1       0.002  -0.004   0.002  0.00  0.00    +0.041 C 
ATOM     15  C   UNL     1       0.742  -0.511   1.242  0.00  0.00    +0.020 C 
ATOM     16  C   UNL     1      -1.433  -0.534   0.013  0.00  0.00    +0.020 C 
ENDBRANCH   8  14
ENDBRANCH   1  10
BRANCH   1  17
ATOM     17  N   UNL     1       3.954  -2.091  -3.895  0.00  0.00    +0.388 N 
ATOM     18  H   UNL     1       4.847  -2.045  -4.364  0.00  0.00    -0.089 HD
ATOM     19  H   UNL     1       4.021  -2.717  -3.106  0.00  0.00    -0.089 HD
ATOM     20  H   UNL     1       3.255  -2.433  -4.537  0.00  0.00    -0.089 HD
ENDBRANCH   1  17
TORSDOF 4
