REMARK  Name = ZINC38933955
REMARK  4 active torsions:
REMARK  status: ('A' for Active; 'I' for Inactive)
REMARK    1  A    between atoms: C_1  and  C_2
REMARK    2  A    between atoms: C_3  and  C_14
REMARK    3  A    between atoms: C_4  and  C_7
REMARK    4  A    between atoms: C_20  and  C_22
REMARK                            x       y       z     vdW  Elec       q    Type
REMARK                         _______ _______ _______ _____ _____    ______ ____
ROOT
ATOM      1  C   UNL     1      -2.502  -0.394   0.011  0.00  0.00    +0.257 C 
ATOM      2  O   UNL     1      -3.090  -0.214  -1.038  0.00  0.00    -0.270 OA
ATOM      3  N   UNL     1      -3.142  -0.206   1.183  0.00  0.00    -0.234 N 
ATOM      4  C   UNL     1      -4.469   0.193   1.191  0.00  0.00    +0.315 A 
ATOM      5  N   UNL     1      -5.218   0.416   0.138  0.00  0.00    -0.092 NA
ATOM      6  N   UNL     1      -6.395   0.770   0.516  0.00  0.00    -0.103 NA
ATOM      7  C   UNL     1      -6.445   0.787   1.829  0.00  0.00    +0.285 A 
ATOM      8  O   UNL     1      -5.226   0.417   2.282  0.00  0.00    -0.402 OA
ATOM      9  H   UNL     1      -2.674  -0.350   2.020  0.00  0.00    +0.160 HD
ENDROOT
BRANCH   1  12
ATOM     10  C   UNL     1      -0.018   1.503   0.010  0.00  0.00    +0.090 C 
ATOM     11  C   UNL     1       0.002  -0.004   0.002  0.00  0.00    +0.147 A 
ATOM     12  C   UNL     1      -1.093  -0.818   0.003  0.00  0.00    +0.106 A 
ATOM     13  C   UNL     1      -0.592  -2.201  -0.007  0.00  0.00    +0.127 A 
ATOM     14  N   UNL     1       0.715  -2.133  -0.013  0.00  0.00    -0.077 NA
ATOM     15  O   UNL     1       1.095  -0.772  -0.013  0.00  0.00    -0.359 OA
BRANCH  13  16
ATOM     16  C   UNL     1      -1.412  -3.437  -0.009  0.00  0.00    +0.023 A 
ATOM     17  C   UNL     1      -2.804  -3.354  -0.007  0.00  0.00    +0.011 A 
ATOM     18  C   UNL     1      -3.562  -4.507  -0.010  0.00  0.00    +0.001 A 
ATOM     19  C   UNL     1      -2.944  -5.745  -0.014  0.00  0.00    +0.001 A 
ATOM     20  C   UNL     1      -1.564  -5.835  -0.016  0.00  0.00    +0.020 A 
ATOM     21  C   UNL     1      -0.794  -4.687  -0.019  0.00  0.00    +0.050 A 
ATOM     22 CL   UNL     1       0.938  -4.802  -0.029  0.00  0.00    -0.083 Cl
ENDBRANCH  13  16
ENDBRANCH   1  12
BRANCH   7  23
ATOM     23  C   UNL     1      -7.610   1.139   2.652  0.00  0.00    +0.192 A 
ATOM     24  C   UNL     1      -8.839   1.502   2.187  0.00  0.00    +0.056 A 
ATOM     25  C   UNL     1      -9.643   1.748   3.315  0.00  0.00    +0.058 A 
ATOM     26  C   UNL     1      -8.877   1.526   4.404  0.00  0.00    +0.171 A 
ATOM     27  O   UNL     1      -7.652   1.154   4.000  0.00  0.00    -0.443 OA
ATOM     28 BR   UNL     1      -9.438   1.704   6.201  0.00  0.00    -0.008 Br
ENDBRANCH   7  23
TORSDOF 3
