REMARK  Name = ZINC03532928
REMARK  9 active torsions:
REMARK  status: ('A' for Active; 'I' for Inactive)
REMARK    1  A    between atoms: C_1  and  C_2
REMARK    2  A    between atoms: C_3  and  C_25
REMARK    3  A    between atoms: C_4  and  C_24
REMARK    4  A    between atoms: C_7  and  C_8
REMARK    5  A    between atoms: C_8  and  O_10
REMARK    6  A    between atoms: O_10  and  C_11
REMARK    7  A    between atoms: C_11  and  C_12
REMARK    8  A    between atoms: N_17  and  C_18
REMARK    9  A    between atoms: C_25  and  C_27
REMARK                            x       y       z     vdW  Elec       q    Type
REMARK                         _______ _______ _______ _____ _____    ______ ____
ROOT
ATOM      1  C   UNL     1      -4.854   0.964   1.010  0.00  0.00    +0.328 C 
ENDROOT
BRANCH   1   2
ATOM      2  C   UNL     1      -3.587   1.770   1.136  0.00  0.00    +0.258 C 
ATOM      3  O   UNL     1      -3.620   2.975   1.001  0.00  0.00    -0.272 OA
ATOM      4  N   UNL     1      -2.418   1.153   1.399  0.00  0.00    -0.237 N 
ATOM      5  C   UNL     1      -1.286   1.875   1.511  0.00  0.00    +0.306 C 
ATOM      6  O   UNL     1      -1.318   3.082   1.376  0.00  0.00    -0.252 OA
ATOM      7  N   UNL     1      -0.117   1.257   1.774  0.00  0.00    -0.296 N 
ATOM      8  H   UNL     1      -2.393   0.189   1.506  0.00  0.00    +0.159 HD
ATOM      9  H   UNL     1      -0.091   0.293   1.881  0.00  0.00    +0.151 HD
BRANCH   7  10
ATOM     10  C   UNL     1       1.116   2.041   1.890  0.00  0.00    +0.074 C 
ATOM     11  C   UNL     1       1.709   2.267   0.498  0.00  0.00    +0.022 C 
ATOM     12  C   UNL     1       2.996   3.085   0.619  0.00  0.00    +0.002 C 
ATOM     13  C   UNL     1       4.003   2.326   1.486  0.00  0.00    +0.000 C 
ATOM     14  C   UNL     1       3.410   2.100   2.878  0.00  0.00    +0.002 C 
ATOM     15  C   UNL     1       2.123   1.282   2.756  0.00  0.00    +0.022 C 
ENDBRANCH   7  10
ENDBRANCH   1   2
BRANCH   1  16
ATOM     16  O   UNL     1      -5.968   1.852   0.728  0.00  0.00    -0.451 OA
BRANCH  16  17
ATOM     17  C   UNL     1      -7.183   1.284   0.585  0.00  0.00    +0.356 C 
ATOM     18  O   UNL     1      -7.308   0.080   0.694  0.00  0.00    -0.243 OA
BRANCH  17  25
ATOM     19  C   UNL     1     -10.095   0.241   0.196  0.00  0.00    +0.047 C 
ATOM     20  C   UNL     1      -9.630   1.673   0.127  0.00  0.00    -0.008 A 
ATOM     21  C   UNL     1     -10.435   2.809  -0.124  0.00  0.00    +0.041 A 
ATOM     22  C   UNL     1      -9.597   3.913  -0.103  0.00  0.00    +0.024 A 
ATOM     23  N   UNL     1      -8.349   3.491   0.152  0.00  0.00    -0.352 N 
ATOM     24  H   UNL     1      -7.567   4.061   0.221  0.00  0.00    +0.166 HD
ATOM     25  C   UNL     1      -8.353   2.120   0.299  0.00  0.00    +0.128 A 
ATOM     26  C   UNL     1     -10.015   5.343  -0.328  0.00  0.00    +0.064 C 
BRANCH  21  27
ATOM     27  C   UNL     1     -11.881   2.817  -0.367  0.00  0.00    +0.162 C 
ATOM     28  O   UNL     1     -12.306   2.776  -1.503  0.00  0.00    -0.292 OA
ATOM     29  C   UNL     1     -12.840   2.876   0.794  0.00  0.00    +0.091 C 
ENDBRANCH  21  27
ENDBRANCH  17  25
ENDBRANCH  16  17
ENDBRANCH   1  16
TORSDOF 6
