REMARK  Name = ZINC55104662
REMARK  11 active torsions:
REMARK  status: ('A' for Active; 'I' for Inactive)
REMARK    1  A    between atoms: C_1  and  C_2
REMARK    2  A    between atoms: C_2  and  C_4
REMARK    3  A    between atoms: C_5  and  O_31
REMARK    4  A    between atoms: C_7  and  N_30
REMARK    5  A    between atoms: C_8  and  C_28
REMARK    6  A    between atoms: N_16  and  C_19
REMARK    7  A    between atoms: C_19  and  C_20
REMARK    8  A    between atoms: O_31  and  C_32
REMARK    9  A    between atoms: C_32  and  C_33
REMARK   10  A    between atoms: C_33  and  O_34
REMARK   11  A    between atoms: O_34  and  C_35
REMARK                            x       y       z     vdW  Elec       q    Type
REMARK                         _______ _______ _______ _____ _____    ______ ____
ROOT
ATOM      1  C   UNL     1      -1.378  -0.838  -0.628  0.00  0.00    +0.099 C 
ATOM      2  C   UNL     1      -1.458  -2.194  -0.704  0.00  0.00    +0.296 C 
ATOM      3  O   UNL     1      -2.631  -2.837  -0.592  0.00  0.00    -0.410 OA
ATOM      4  C   UNL     1      -3.788  -2.170  -0.759  0.00  0.00    +0.203 C 
ATOM      5  C   UNL     1      -3.847  -0.817  -0.687  0.00  0.00    +0.110 C 
ATOM      6  C   UNL     1      -2.611  -0.008  -0.411  0.00  0.00    +0.148 C 
ATOM      7  C   UNL     1      -2.636   0.542   0.993  0.00  0.00    -0.001 A 
ATOM      8  C   UNL     1      -2.669  -0.050   2.236  0.00  0.00    +0.007 A 
ATOM      9  C   UNL     1      -2.686   0.734   3.375  0.00  0.00    +0.000 A 
ATOM     10  C   UNL     1      -2.669   2.113   3.262  0.00  0.00    +0.002 A 
ATOM     11  C   UNL     1      -2.636   2.710   2.019  0.00  0.00    +0.024 A 
ATOM     12  C   UNL     1      -2.619   1.927   0.867  0.00  0.00    +0.041 A 
ATOM     13  N   UNL     1      -2.587   2.288  -0.481  0.00  0.00    -0.265 N 
ATOM     14  C   UNL     1      -2.581   1.217  -1.295  0.00  0.00    +0.241 C 
ATOM     15  O   UNL     1      -2.555   1.231  -2.507  0.00  0.00    -0.274 OA
ENDROOT
BRANCH   1  17
ATOM     16  C   UNL     1       1.084  -1.020  -1.106  0.00  0.00    +0.091 C 
ATOM     17  C   UNL     1      -0.137  -0.211  -0.748  0.00  0.00    +0.165 C 
ATOM     18  O   UNL     1      -0.040   0.987  -0.564  0.00  0.00    -0.292 OA
ENDBRANCH   1  17
BRANCH   4  19
ATOM     19  N   UNL     1      -4.937  -2.877  -1.010  0.00  0.00    -0.328 N 
ATOM     20  H   UNL     1      -4.909  -3.845  -1.065  0.00  0.00    +0.145 HD
ATOM     21  H   UNL     1      -5.777  -2.408  -1.133  0.00  0.00    +0.145 HD
ENDBRANCH   4  19
BRANCH   5  22
ATOM     22  C   UNL     1      -5.102  -0.153  -0.871  0.00  0.00    +0.102 C 
ATOM     23  N   UNL     1      -6.098   0.374  -1.017  0.00  0.00    -0.191 NA
ENDBRANCH   5  22
BRANCH  13  24
ATOM     24  C   UNL     1      -2.563   3.673  -0.955  0.00  0.00    +0.151 C 
BRANCH  24  25
ATOM     25  C   UNL     1      -3.955   4.092  -1.354  0.00  0.00    +0.007 A 
ATOM     26  C   UNL     1      -4.380   3.925  -2.660  0.00  0.00    +0.047 A 
ATOM     27  C   UNL     1      -5.658   4.310  -3.025  0.00  0.00    +0.020 A 
ATOM     28  C   UNL     1      -6.509   4.861  -2.086  0.00  0.00    +0.003 A 
ATOM     29  C   UNL     1      -6.085   5.028  -0.781  0.00  0.00    +0.020 A 
ATOM     30  C   UNL     1      -4.809   4.638  -0.413  0.00  0.00    +0.047 A 
ATOM     31 CL   UNL     1      -4.279   4.841   1.227  0.00  0.00    -0.083 Cl
ATOM     32 CL   UNL     1      -3.311   3.234  -3.840  0.00  0.00    -0.083 Cl
ENDBRANCH  24  25
ENDBRANCH  13  24
BRANCH   2  33
ATOM     33  O   UNL     1      -0.332  -2.909  -0.896  0.00  0.00    -0.461 OA
BRANCH  33  34
ATOM     34  C   UNL     1      -0.470  -4.330  -0.968  0.00  0.00    +0.260 C 
BRANCH  34  35
ATOM     35  C   UNL     1       0.904  -4.965  -1.188  0.00  0.00    +0.200 C 
BRANCH  35  36
ATOM     36  O   UNL     1       1.729  -4.723  -0.046  0.00  0.00    -0.380 OA
ATOM     37  C   UNL     1       3.041  -5.278  -0.150  0.00  0.00    +0.194 C 
ENDBRANCH  35  36
ENDBRANCH  34  35
ENDBRANCH  33  34
ENDBRANCH   2  33
TORSDOF 9
