REMARK  Name = ZINC52792007
REMARK  7 active torsions:
REMARK  status: ('A' for Active; 'I' for Inactive)
REMARK    1  A    between atoms: C_1  and  O_2
REMARK    2  A    between atoms: O_2  and  C_3
REMARK    3  A    between atoms: C_3  and  C_4
REMARK    4  A    between atoms: C_4  and  C_5
REMARK    5  A    between atoms: C_5  and  C_7
REMARK    6  A    between atoms: C_5  and  N_21
REMARK    7  A    between atoms: N_9  and  C_10
REMARK                            x       y       z     vdW  Elec       q    Type
REMARK                         _______ _______ _______ _____ _____    ______ ____
ROOT
ATOM      1  C   UNL     1      -2.404  -4.262  -0.121  0.00  0.00    +0.203 C 
ATOM      2  O   UNL     1      -2.490  -4.968   0.861  0.00  0.00    -0.277 OA
ATOM      3  N   UNL     1      -2.197  -4.815  -1.333  0.00  0.00    -0.286 N 
ATOM      4  H   UNL     1      -2.209  -4.259  -2.128  0.00  0.00    +0.155 HD
ENDROOT
BRANCH   3   5
ATOM      5  C   UNL     1      -1.967  -6.193  -1.444  0.00  0.00    +0.051 A 
ATOM      6  C   UNL     1      -1.445  -6.899  -0.369  0.00  0.00    +0.073 A 
ATOM      7  C   UNL     1      -1.218  -8.261  -0.479  0.00  0.00    +0.164 A 
ATOM      8  C   UNL     1      -1.514  -8.920  -1.667  0.00  0.00    +0.163 A 
ATOM      9  C   UNL     1      -2.033  -8.212  -2.740  0.00  0.00    +0.066 A 
ATOM     10  C   UNL     1      -2.265  -6.854  -2.629  0.00  0.00    +0.043 A 
ATOM     11 BR   UNL     1      -2.981  -5.894  -4.092  0.00  0.00    -0.048 Br
ATOM     12  O   UNL     1      -1.304 -10.260  -1.791  0.00  0.00    -0.485 OA
ATOM     13  C   UNL     1      -0.438 -10.868  -0.827  0.00  0.00    +0.270 C 
ATOM     14  C   UNL     1      -0.839 -10.364   0.566  0.00  0.00    +0.270 C 
ATOM     15  O   UNL     1      -0.702  -8.939   0.583  0.00  0.00    -0.485 OA
ENDBRANCH   3   5
BRANCH   1  16
ATOM     16  C   UNL     1      -2.528  -2.766   0.013  0.00  0.00    +0.015 C 
BRANCH  16  17
ATOM     17  N   UNL     1      -3.204  -2.443   1.276  0.00  0.00    +0.386 N 
ATOM     18  H   UNL     1      -3.288  -1.441   1.366  0.00  0.00    -0.089 HD
ATOM     19  H   UNL     1      -4.124  -2.858   1.281  0.00  0.00    -0.089 HD
ATOM     20  H   UNL     1      -2.667  -2.806   2.049  0.00  0.00    -0.089 HD
ENDBRANCH  16  17
BRANCH  16  21
ATOM     21  C   UNL     1      -1.134  -2.136   0.005  0.00  0.00    +0.021 C 
BRANCH  21  22
ATOM     22  C   UNL     1      -1.263  -0.612   0.016  0.00  0.00    +0.158 C 
BRANCH  22  24
ATOM     23  C   UNL     1       0.031   1.406   0.018  0.00  0.00    +0.193 C 
ATOM     24  O   UNL     1       0.039  -0.023   0.009  0.00  0.00    -0.383 OA
ENDBRANCH  22  24
ENDBRANCH  21  22
ENDBRANCH  16  21
ENDBRANCH   1  16
TORSDOF 6
