REMARK  Name = ZINC05667885
REMARK  8 active torsions:
REMARK  status: ('A' for Active; 'I' for Inactive)
REMARK    1  A    between atoms: C_4  and  C_7
REMARK    2  A    between atoms: C_12  and  O_18
REMARK    3  A    between atoms: O_18  and  C_19
REMARK    4  A    between atoms: C_21  and  O_34
REMARK    5  A    between atoms: C_23  and  O_33
REMARK    6  A    between atoms: C_25  and  O_32
REMARK    7  A    between atoms: C_27  and  C_30
REMARK    8  A    between atoms: C_30  and  O_31
REMARK                            x       y       z     vdW  Elec       q    Type
REMARK                         _______ _______ _______ _____ _____    ______ ____
ROOT
ATOM      1  C   UNL     1       2.481   1.071  -0.016  0.00  0.00    +0.064 A 
ATOM      2  C   UNL     1       2.730   0.073   0.871  0.00  0.00    +0.208 A 
ATOM      3  O   UNL     1       3.884  -0.600   0.890  0.00  0.00    -0.462 OA
ATOM      4  C   UNL     1       4.898  -0.353   0.038  0.00  0.00    +0.142 A 
ATOM      5  C   UNL     1       6.074  -1.089   0.108  0.00  0.00    +0.092 A 
ATOM      6  C   UNL     1       7.106  -0.824  -0.776  0.00  0.00    +0.128 A 
ATOM      7  C   UNL     1       6.977   0.177  -1.737  0.00  0.00    +0.047 A 
ATOM      8  C   UNL     1       5.828   0.910  -1.819  0.00  0.00    +0.019 A 
ATOM      9  C   UNL     1       4.778   0.654  -0.936  0.00  0.00    +0.065 A 
ATOM     10  C   UNL     1       3.521   1.420  -0.999  0.00  0.00    +0.200 A 
ATOM     11  O   UNL     1       3.351   2.303  -1.823  0.00  0.00    -0.286 OA
ENDROOT
BRANCH   1  15
ATOM     12  C   UNL     1      -1.236   3.134   0.031  0.00  0.00    +0.000 A 
ATOM     13  C   UNL     1      -1.216   1.751   0.017  0.00  0.00    +0.001 A 
ATOM     14  C   UNL     1      -0.013   1.076   0.008  0.00  0.00    +0.009 A 
ATOM     15  C   UNL     1       1.184   1.790   0.000  0.00  0.00    -0.011 A 
ATOM     16  C   UNL     1       1.158   3.184   0.008  0.00  0.00    +0.009 A 
ATOM     17  C   UNL     1      -0.052   3.848   0.023  0.00  0.00    +0.001 A 
ENDBRANCH   1  15
BRANCH   6  18
ATOM     18  O   UNL     1       8.254  -1.544  -0.705  0.00  0.00    -0.461 OA
BRANCH  18  19
ATOM     19  C   UNL     1       9.281  -1.222  -1.644  0.00  0.00    +0.339 C 
ATOM     20  C   UNL     1      10.534  -2.046  -1.334  0.00  0.00    +0.214 C 
ATOM     21  C   UNL     1      10.209  -3.534  -1.494  0.00  0.00    +0.180 C 
ATOM     22  C   UNL     1       9.686  -3.782  -2.913  0.00  0.00    +0.177 C 
ATOM     23  C   UNL     1       8.467  -2.890  -3.162  0.00  0.00    +0.179 C 
ATOM     24  O   UNL     1       8.830  -1.522  -2.966  0.00  0.00    -0.331 OA
BRANCH  22  25
ATOM     25  O   UNL     1      10.709  -3.467  -3.860  0.00  0.00    -0.386 OA
ATOM     26  H   UNL     1      11.513  -3.995  -3.760  0.00  0.00    +0.210 HD
ENDBRANCH  22  25
BRANCH  21  27
ATOM     27  O   UNL     1      11.391  -4.308  -1.278  0.00  0.00    -0.386 OA
ATOM     28  H   UNL     1      11.776  -4.199  -0.398  0.00  0.00    +0.210 HD
ENDBRANCH  21  27
BRANCH  20  29
ATOM     29  O   UNL     1      10.954  -1.790   0.008  0.00  0.00    -0.383 OA
ATOM     30  H   UNL     1      11.171  -0.864   0.182  0.00  0.00    +0.210 HD
ENDBRANCH  20  29
BRANCH  23  31
ATOM     31  C   UNL     1       7.975  -3.088  -4.597  0.00  0.00    +0.190 C 
BRANCH  31  32
ATOM     32  O   UNL     1       6.771  -2.345  -4.795  0.00  0.00    -0.392 OA
ATOM     33  H   UNL     1       6.401  -2.424  -5.685  0.00  0.00    +0.210 HD
ENDBRANCH  31  32
ENDBRANCH  23  31
ENDBRANCH  18  19
ENDBRANCH   6  18
TORSDOF 8
