REMARK  Name = ZINC41006315
REMARK  11 active torsions:
REMARK  status: ('A' for Active; 'I' for Inactive)
REMARK    1  A    between atoms: C_1  and  C_2
REMARK    2  A    between atoms: C_5  and  N_9
REMARK    3  A    between atoms: C_6  and  C_8
REMARK    4  A    between atoms: C_10  and  C_12
REMARK    5  A    between atoms: C_14  and  C_35
REMARK    6  A    between atoms: C_16  and  C_24
REMARK    7  A    between atoms: C_18  and  C_22
REMARK    8  A    between atoms: C_18  and  O_23
REMARK    9  A    between atoms: N_26  and  C_27
REMARK   10  A    between atoms: C_30  and  C_34
REMARK   11  A    between atoms: C_32  and  C_33
REMARK                            x       y       z     vdW  Elec       q    Type
REMARK                         _______ _______ _______ _____ _____    ______ ____
ROOT
ATOM      1  C   UNL     1      -0.435  -5.774  -1.174  0.00  0.00    +0.149 C 
ATOM      2  C   UNL     1      -0.280  -6.035  -2.676  0.00  0.00    +0.053 C 
ATOM      3  C   UNL     1       1.193  -5.902  -3.065  0.00  0.00    +0.115 C 
ATOM      4  C   UNL     1       2.017  -6.977  -2.354  0.00  0.00    +0.082 C 
ATOM      5  C   UNL     1       1.948  -6.751  -0.840  0.00  0.00    +0.110 C 
ATOM      6  C   UNL     1       0.491  -6.705  -0.422  0.00  0.00    +0.148 C 
ATOM      7  O   UNL     1       0.078  -7.391   0.482  0.00  0.00    -0.296 OA
ATOM      8  C   UNL     1       1.452  -8.358  -2.690  0.00  0.00    +0.042 C 
ENDROOT
BRANCH   2   9
ATOM      9  C   UNL     1      -1.097  -5.031  -3.447  0.00  0.00    -0.040 A 
ATOM     10  C   UNL     1      -2.455  -5.227  -3.615  0.00  0.00    +0.004 A 
ATOM     11  C   UNL     1      -3.206  -4.307  -4.322  0.00  0.00    +0.003 A 
ATOM     12  C   UNL     1      -2.599  -3.190  -4.864  0.00  0.00    +0.038 A 
ATOM     13  C   UNL     1      -1.239  -2.992  -4.697  0.00  0.00    +0.124 A 
ATOM     14  C   UNL     1      -0.489  -3.912  -3.983  0.00  0.00    +0.042 A 
ATOM     15  F   UNL     1      -0.644  -1.900  -5.226  0.00  0.00    -0.205 F 
ENDBRANCH   2   9
BRANCH   1  17
ATOM     16  N   UNL     1      -0.759  -3.660   0.068  0.00  0.00    -0.285 N 
ATOM     17  C   UNL     1      -0.073  -4.344  -0.869  0.00  0.00    +0.228 C 
ATOM     18  O   UNL     1       0.836  -3.808  -1.466  0.00  0.00    -0.275 OA
ATOM     19  H   UNL     1      -1.448  -4.105   0.586  0.00  0.00    +0.155 HD
BRANCH  16  24
ATOM     20  C   UNL     1       0.378   1.823   0.980  0.00  0.00    +0.044 C 
ATOM     21  C   UNL     1       0.076   0.366   0.738  0.00  0.00    -0.050 A 
ATOM     22  C   UNL     1       1.031  -0.450   0.159  0.00  0.00    +0.005 A 
ATOM     23  C   UNL     1       0.757  -1.785  -0.064  0.00  0.00    +0.024 A 
ATOM     24  C   UNL     1      -0.479  -2.308   0.294  0.00  0.00    +0.036 A 
ATOM     25  C   UNL     1      -1.435  -1.486   0.875  0.00  0.00    -0.029 A 
ATOM     26  C   UNL     1      -1.153  -0.153   1.100  0.00  0.00    +0.008 A 
ATOM     27  C   UNL     1      -2.777  -2.050   1.264  0.00  0.00    +0.045 C 
ENDBRANCH  16  24
ENDBRANCH   1  17
BRANCH   3  28
ATOM     28  C   UNL     1       1.334  -6.070  -4.556  0.00  0.00    +0.224 C 
ATOM     29  O   UNL     1       0.353  -6.276  -5.239  0.00  0.00    -0.275 OA
ATOM     30  N   UNL     1       2.551  -5.992  -5.131  0.00  0.00    -0.285 N 
ATOM     31  H   UNL     1       3.343  -5.898  -4.579  0.00  0.00    +0.155 HD
BRANCH  30  32
ATOM     32  C   UNL     1       2.671  -6.047  -6.524  0.00  0.00    +0.036 A 
ATOM     33  C   UNL     1       1.940  -6.978  -7.250  0.00  0.00    +0.024 A 
ATOM     34  C   UNL     1       2.062  -7.030  -8.624  0.00  0.00    +0.005 A 
ATOM     35  C   UNL     1       2.910  -6.155  -9.278  0.00  0.00    -0.050 A 
ATOM     36  C   UNL     1       3.639  -5.227  -8.559  0.00  0.00    +0.008 A 
ATOM     37  C   UNL     1       3.517  -5.166  -7.184  0.00  0.00    -0.029 A 
ATOM     38  C   UNL     1       4.307  -4.149  -6.401  0.00  0.00    +0.045 C 
ATOM     39  C   UNL     1       3.040  -6.214 -10.779  0.00  0.00    +0.044 C 
ENDBRANCH  30  32
ENDBRANCH   3  28
BRANCH   4  40
ATOM     40  O   UNL     1       3.377  -6.899  -2.786  0.00  0.00    -0.388 OA
ATOM     41  H   UNL     1       3.958  -7.553  -2.374  0.00  0.00    +0.210 HD
ENDBRANCH   4  40
TORSDOF 6
