REMARK  Name = ZINC21728805
REMARK  3 active torsions:
REMARK  status: ('A' for Active; 'I' for Inactive)
REMARK    1  A    between atoms: C_4  and  N_7
REMARK    2  A    between atoms: C_10  and  C_12
REMARK    3  A    between atoms: C_19  and  C_25
REMARK                            x       y       z     vdW  Elec       q    Type
REMARK                         _______ _______ _______ _____ _____    ______ ____
ROOT
ATOM      1  N   UNL     1       0.652   5.682  -0.391  0.00  0.00    -0.217 N 
ATOM      2  C   UNL     1       1.698   5.694   0.463  0.00  0.00    +0.133 A 
ATOM      3  C   UNL     1       2.032   4.396   0.732  0.00  0.00    +0.028 A 
ATOM      4  C   UNL     1       1.167   3.570   0.010  0.00  0.00    +0.099 A 
ATOM      5  N   UNL     1       0.339   4.342  -0.670  0.00  0.00    -0.164 NA
ATOM      6  C   UNL     1       3.151   4.029   1.673  0.00  0.00    +0.063 C 
ATOM      7  C   UNL     1       4.192   5.152   1.646  0.00  0.00    +0.109 C 
ATOM      8  C   UNL     1       3.536   6.503   1.690  0.00  0.00    +0.219 C 
ATOM      9  O   UNL     1       4.052   7.386   2.343  0.00  0.00    -0.275 OA
ATOM     10  N   UNL     1       2.391   6.766   1.026  0.00  0.00    -0.270 N 
ATOM     11  H   UNL     1       2.000   7.789   0.922  0.00  0.00    +0.156 HD
ENDROOT
BRANCH   6  12
ATOM     12  C   UNL     1       2.610   3.871   3.070  0.00  0.00    -0.036 A 
ATOM     13  C   UNL     1       1.995   4.939   3.696  0.00  0.00    +0.008 A 
ATOM     14  C   UNL     1       1.490   4.798   4.975  0.00  0.00    +0.050 A 
ATOM     15  C   UNL     1       1.612   3.588   5.638  0.00  0.00    +0.166 A 
ATOM     16  C   UNL     1       2.237   2.513   5.010  0.00  0.00    +0.167 A 
ATOM     17  C   UNL     1       2.734   2.660   3.725  0.00  0.00    +0.053 A 
ATOM     18  O   UNL     1       2.231   1.446   5.862  0.00  0.00    -0.453 OA
ATOM     19  C   UNL     1       1.963   1.997   7.165  0.00  0.00    +0.466 C 
ATOM     20  O   UNL     1       1.215   3.194   6.884  0.00  0.00    -0.453 OA
ENDBRANCH   6  12
BRANCH   4  21
ATOM     21  C   UNL     1       1.182   2.087   0.002  0.00  0.00    +0.003 A 
ATOM     22  C   UNL     1      -0.015   1.375   0.058  0.00  0.00    +0.011 A 
ATOM     23  C   UNL     1       0.004  -0.004   0.051  0.00  0.00    +0.020 A 
ATOM     24  C   UNL     1       1.209  -0.682  -0.013  0.00  0.00    +0.041 A 
ATOM     25  C   UNL     1       2.401   0.020  -0.069  0.00  0.00    +0.020 A 
ATOM     26  C   UNL     1       2.393   1.400  -0.061  0.00  0.00    +0.011 A 
ATOM     27 CL   UNL     1       1.226  -2.418  -0.023  0.00  0.00    -0.084 Cl
ENDBRANCH   4  21
BRANCH   1  31
ATOM     28  C   UNL     1      -1.295   9.029  -1.935  0.00  0.00    +0.000 A 
ATOM     29  C   UNL     1      -1.145   7.897  -2.715  0.00  0.00    +0.002 A 
ATOM     30  C   UNL     1      -0.500   6.786  -2.206  0.00  0.00    +0.028 A 
ATOM     31  C   UNL     1      -0.003   6.807  -0.910  0.00  0.00    +0.067 A 
ATOM     32  C   UNL     1      -0.160   7.943  -0.127  0.00  0.00    +0.028 A 
ATOM     33  C   UNL     1      -0.801   9.053  -0.643  0.00  0.00    +0.002 A 
ENDBRANCH   1  31
TORSDOF 3
