REMARK  Name = ZINC19220279
REMARK  8 active torsions:
REMARK  status: ('A' for Active; 'I' for Inactive)
REMARK    1  A    between atoms: C_1  and  C_2
REMARK    2  A    between atoms: C_2  and  C_3
REMARK    3  A    between atoms: C_2  and  C_4
REMARK    4  A    between atoms: C_6  and  C_10
REMARK    5  A    between atoms: N_7  and  C_9
REMARK    6  A    between atoms: N_12  and  C_13
REMARK    7  A    between atoms: C_13  and  C_14
REMARK    8  A    between atoms: C_14  and  C_15
REMARK                            x       y       z     vdW  Elec       q    Type
REMARK                         _______ _______ _______ _____ _____    ______ ____
ROOT
ATOM      1  C   UNL     1       1.150   1.659  -0.469  0.00  0.00    +0.262 C 
ATOM      2  O   UNL     1       0.100   1.046  -0.433  0.00  0.00    -0.269 OA
ATOM      3  N   UNL     1       1.145   2.997  -0.631  0.00  0.00    -0.310 N 
ATOM      4  H   UNL     1       2.087   3.562  -0.573  0.00  0.00    +0.149 HD
ENDROOT
BRANCH   1   7
ATOM      5  C   UNL     1       4.567   0.415  -0.150  0.00  0.00    +0.066 A 
ATOM      6  C   UNL     1       3.692   1.496  -0.275  0.00  0.00    +0.058 A 
ATOM      7  C   UNL     1       2.427   0.939  -0.335  0.00  0.00    +0.123 A 
ATOM      8  N   UNL     1       2.600  -0.412  -0.240  0.00  0.00    -0.262 N 
ATOM      9  N   UNL     1       3.852  -0.681  -0.140  0.00  0.00    -0.176 NA
ATOM     10  C   UNL     1       1.522  -1.405  -0.254  0.00  0.00    +0.173 C 
BRANCH   5  12
ATOM     11  C   UNL     1       6.673   0.567  -1.449  0.00  0.00    +0.014 C 
ATOM     12  C   UNL     1       6.068   0.496  -0.046  0.00  0.00    +0.033 C 
ATOM     13  C   UNL     1       6.458   1.748   0.742  0.00  0.00    +0.014 C 
ENDBRANCH   5  12
ENDBRANCH   1   7
BRANCH   3  14
ATOM     14  C   UNL     1      -0.116   3.699  -0.885  0.00  0.00    +0.110 C 
BRANCH  14  15
ATOM     15  C   UNL     1       0.154   5.199  -1.023  0.00  0.00    +0.074 C 
BRANCH  15  16
ATOM     16  C   UNL     1      -1.143   5.920  -1.284  0.00  0.00    +0.050 A 
ATOM     17  C   UNL     1      -1.543   6.942  -0.484  0.00  0.00    +0.070 A 
ATOM     18  S   UNL     1      -3.090   7.382  -1.264  0.00  0.00    -0.084 S 
ATOM     19  C   UNL     1      -3.050   6.193  -2.529  0.00  0.00    +0.156 A 
ATOM     20  N   UNL     1      -1.918   5.573  -2.290  0.00  0.00    -0.252 NA
ENDBRANCH  15  16
ENDBRANCH  14  15
ENDBRANCH   3  14
TORSDOF 5
