REMARK  Name = ZINC01790668
REMARK  5 active torsions:
REMARK  status: ('A' for Active; 'I' for Inactive)
REMARK    1  A    between atoms: C_3  and  C_8
REMARK    2  A    between atoms: C_5  and  O_7
REMARK    3  A    between atoms: N_9  and  N_10
REMARK    4  A    between atoms: C_11  and  C_13
REMARK    5  A    between atoms: C_14  and  C_26
REMARK                            x       y       z     vdW  Elec       q    Type
REMARK                         _______ _______ _______ _____ _____    ______ ____
ROOT
ATOM      1  C   UNL     1       5.615   1.442  -0.043  0.00  0.00    +0.177 A 
ATOM      2  C   UNL     1       4.305   1.923  -0.034  0.00  0.00    +0.115 A 
ATOM      3  N   UNL     1       3.496   0.819  -0.026  0.00  0.00    -0.187 N 
ATOM      4  N   UNL     1       4.341  -0.298  -0.041  0.00  0.00    -0.058 NA
ATOM      5  N   UNL     1       5.564   0.099  -0.050  0.00  0.00    -0.124 NA
ATOM      6  C   UNL     1       2.098   0.808  -0.014  0.00  0.00    +0.241 A 
ATOM      7  C   UNL     1       1.249  -0.387  -0.012  0.00  0.00    +0.206 A 
ATOM      8  N   UNL     1       0.002  -0.004   0.002  0.00  0.00    -0.032 NA
ATOM      9  O   UNL     1      -0.017   1.413   0.010  0.00  0.00    -0.239 OA
ATOM     10  N   UNL     1       1.327   1.859  -0.001  0.00  0.00    -0.027 NA
ATOM     11  N   UNL     1       1.697  -1.703  -0.023  0.00  0.00    -0.337 N 
ATOM     12  H   UNL     1       1.058  -2.433  -0.020  0.00  0.00    +0.144 HD
ATOM     13  H   UNL     1       2.648  -1.892  -0.032  0.00  0.00    +0.144 HD
ENDROOT
BRANCH   2  14
ATOM     14  C   UNL     1       3.881   3.329  -0.030  0.00  0.00    +0.040 A 
ATOM     15  C   UNL     1       4.359   4.383   0.729  0.00  0.00    +0.018 A 
ATOM     16  C   UNL     1       3.799   5.625   0.549  0.00  0.00    +0.008 A 
ATOM     17  C   UNL     1       2.793   5.777  -0.353  0.00  0.00    +0.046 A 
ATOM     18  S   UNL     1       2.609   4.123  -0.999  0.00  0.00    -0.095 S 
ENDBRANCH   2  14
BRANCH   1  20
ATOM     19  N   UNL     1       8.045   1.665  -0.064  0.00  0.00    -0.202 N 
ATOM     20  C   UNL     1       6.835   2.260  -0.049  0.00  0.00    +0.286 C 
ATOM     21  O   UNL     1       6.754   3.474  -0.041  0.00  0.00    -0.267 OA
ATOM     22  H   UNL     1       8.109   0.697  -0.071  0.00  0.00    +0.178 HD
BRANCH  19  24
ATOM     23  C   UNL     1      10.373   1.873  -0.085  0.00  0.00    +0.138 C 
ATOM     24  N   UNL     1       9.208   2.445  -0.071  0.00  0.00    -0.187 NA
BRANCH  23  27
ATOM     25  C   UNL     1      12.657   4.852  -0.089  0.00  0.00    +0.004 A 
ATOM     26  C   UNL     1      11.508   4.088  -0.083  0.00  0.00    +0.010 A 
ATOM     27  C   UNL     1      11.598   2.694  -0.092  0.00  0.00    -0.002 A 
ATOM     28  C   UNL     1      12.853   2.081  -0.102  0.00  0.00    +0.054 A 
ATOM     29  C   UNL     1      13.998   2.858  -0.114  0.00  0.00    +0.117 A 
ATOM     30  C   UNL     1      13.898   4.243  -0.105  0.00  0.00    +0.045 A 
BRANCH  29  31
ATOM     31  O   UNL     1      15.221   2.266  -0.128  0.00  0.00    -0.507 OA
ATOM     32  H   UNL     1      15.583   2.089   0.751  0.00  0.00    +0.292 HD
ENDBRANCH  29  31
ENDBRANCH  23  27
ENDBRANCH  19  24
ENDBRANCH   1  20
TORSDOF 5
