REMARK  Name = ZINC38342168
REMARK  3 active torsions:
REMARK  status: ('A' for Active; 'I' for Inactive)
REMARK    1  A    between atoms: C_1  and  O_2
REMARK    2  A    between atoms: O_2  and  C_3
REMARK    3  A    between atoms: C_6  and  C_8
REMARK                            x       y       z     vdW  Elec       q    Type
REMARK                         _______ _______ _______ _____ _____    ______ ____
ROOT
ATOM      1  C   UNL     1       0.604  -0.606  -1.053  0.00  0.00    +0.277 A 
ATOM      2  N   UNL     1       1.194  -0.058  -2.096  0.00  0.00    -0.103 NA
ATOM      3  N   UNL     1       1.717  -0.756  -3.011  0.00  0.00    -0.142 NA
ATOM      4  C   UNL     1       1.672  -2.070  -2.920  0.00  0.00    +0.120 A 
ATOM      5  S   UNL     1       0.800  -2.250  -1.370  0.00  0.00    -0.012 S 
ENDROOT
BRANCH   1   7
ATOM      6  C   UNL     1      -0.017   1.425   0.010  0.00  0.00    +0.279 C 
ATOM      7  O   UNL     1       0.002  -0.004   0.002  0.00  0.00    -0.474 OA
ENDBRANCH   1   7
BRANCH   4   8
ATOM      8  C   UNL     1       2.208  -3.122  -3.856  0.00  0.00    +0.173 C 
ATOM      9 CL   UNL     1       3.900  -3.536  -3.389  0.00  0.00    -0.118 Cl
ENDBRANCH   4   8
TORSDOF 2
