REMARK  Name = ZINC02765078
REMARK  7 active torsions:
REMARK  status: ('A' for Active; 'I' for Inactive)
REMARK    1  A    between atoms: C_1  and  C_2
REMARK    2  A    between atoms: C_2  and  C_3
REMARK    3  A    between atoms: C_4  and  C_24
REMARK    4  A    between atoms: C_7  and  C_8
REMARK    5  A    between atoms: N_10  and  N_11
REMARK    6  A    between atoms: C_12  and  C_14
REMARK    7  A    between atoms: C_20  and  C_22
REMARK                            x       y       z     vdW  Elec       q    Type
REMARK                         _______ _______ _______ _____ _____    ______ ____
ROOT
ATOM      1  N   UNL     1       0.494  -0.665  -1.064  0.00  0.00    -0.234 N 
ATOM      2  C   UNL     1       0.002  -0.004   0.002  0.00  0.00    +0.233 C 
ATOM      3  O   UNL     1      -0.424  -0.622   0.955  0.00  0.00    -0.274 OA
ATOM      4  H   UNL     1       0.835  -0.172  -1.826  0.00  0.00    +0.173 HD
ENDROOT
BRANCH   2   5
ATOM      5  C   UNL     1      -0.018   1.503   0.010  0.00  0.00    +0.094 C 
ATOM      6  C   UNL     1      -1.312   1.996   0.661  0.00  0.00    +0.040 C 
ATOM      7  C   UNL     1      -1.282   1.714   2.139  0.00  0.00    -0.030 C 
ATOM      8  C   UNL     1      -0.207   1.436   2.805  0.00  0.00    -0.030 C 
ATOM      9  C   UNL     1       1.161   1.348   2.193  0.00  0.00    +0.042 C 
ATOM     10  C   UNL     1       1.171   2.030   0.824  0.00  0.00    +0.118 C 
BRANCH  10  11
ATOM     11  C   UNL     1       2.457   1.709   0.107  0.00  0.00    +0.360 C 
ATOM     12  O   UNL     1       2.430   1.118  -0.947  0.00  0.00    -0.246 OA
ATOM     13  O   UNL     1       3.632   2.079   0.640  0.00  0.00    -0.246 OA
ENDBRANCH  10  11
ENDBRANCH   2   5
BRANCH   1  16
ATOM     14  C   UNL     1       1.006  -2.728  -2.138  0.00  0.00    +0.261 C 
ATOM     15  O   UNL     1       1.433  -2.108  -3.094  0.00  0.00    -0.269 OA
ATOM     16  N   UNL     1       0.513  -2.066  -1.072  0.00  0.00    -0.230 N 
ATOM     17  H   UNL     1       0.172  -2.560  -0.310  0.00  0.00    +0.173 HD
BRANCH  14  22
ATOM     18  C   UNL     1       1.540  -4.939  -3.271  0.00  0.00    -0.026 A 
ATOM     19  C   UNL     1       1.520  -6.283  -3.182  0.00  0.00    -0.009 A 
ATOM     20  S   UNL     1       0.795  -6.571  -1.581  0.00  0.00    -0.101 S 
ATOM     21  C   UNL     1       0.548  -4.932  -1.079  0.00  0.00    +0.058 A 
ATOM     22  C   UNL     1       1.026  -4.199  -2.146  0.00  0.00    +0.049 A 
ATOM     23  C   UNL     1       1.991  -7.297  -4.193  0.00  0.00    +0.052 C 
BRANCH  18  25
ATOM     24  C   UNL     1       3.578  -3.987  -4.314  0.00  0.00    +0.009 C 
ATOM     25  C   UNL     1       2.080  -4.239  -4.492  0.00  0.00    +0.033 C 
ENDBRANCH  18  25
ENDBRANCH  14  22
ENDBRANCH   1  16
TORSDOF 5
