REMARK  Name = ZINC51711763
REMARK  7 active torsions:
REMARK  status: ('A' for Active; 'I' for Inactive)
REMARK    1  A    between atoms: C_1  and  C_2
REMARK    2  A    between atoms: C_6  and  O_8
REMARK    3  A    between atoms: O_8  and  C_9
REMARK    4  A    between atoms: C_9  and  C_10
REMARK    5  A    between atoms: C_10  and  C_12
REMARK    6  A    between atoms: C_10  and  N_13
REMARK    7  A    between atoms: C_20  and  C_23
REMARK                            x       y       z     vdW  Elec       q    Type
REMARK                         _______ _______ _______ _____ _____    ______ ____
ROOT
ATOM      1  N   UNL     1       1.333  -4.432   4.355  0.00  0.00    -0.293 N 
ATOM      2  C   UNL     1       1.812  -5.202   5.351  0.00  0.00    +0.303 C 
ATOM      3  O   UNL     1       1.163  -6.148   5.755  0.00  0.00    -0.253 OA
ATOM      4  N   UNL     1       3.011  -4.924   5.900  0.00  0.00    -0.281 N 
ATOM      5  C   UNL     1       3.763  -3.721   5.510  0.00  0.00    +0.137 C 
ATOM      6  C   UNL     1       5.194  -4.138   5.154  0.00  0.00    +0.180 C 
ATOM      7  O   UNL     1       5.741  -4.908   6.228  0.00  0.00    -0.364 OA
ATOM      8  C   UNL     1       5.046  -6.131   6.484  0.00  0.00    +0.221 C 
ATOM      9  C   UNL     1       3.605  -5.812   6.912  0.00  0.00    +0.150 C 
ATOM     10  H   UNL     1       1.815  -3.635   4.083  0.00  0.00    +0.151 HD
ENDROOT
BRANCH   8  11
ATOM     11  C   UNL     1       5.744  -6.884   7.587  0.00  0.00    +0.241 C 
ATOM     12  O   UNL     1       6.683  -6.380   8.166  0.00  0.00    -0.273 OA
ATOM     13  N   UNL     1       5.324  -8.118   7.931  0.00  0.00    -0.327 N 
ATOM     14  H   UNL     1       4.573  -8.521   7.469  0.00  0.00    +0.145 HD
ATOM     15  H   UNL     1       5.773  -8.602   8.641  0.00  0.00    +0.145 HD
ENDBRANCH   8  11
BRANCH   1  16
ATOM     16  C   UNL     1       0.084  -4.797   3.683  0.00  0.00    +0.109 C 
ATOM     17  C   UNL     1      -1.103  -4.250   4.479  0.00  0.00    +0.031 C 
BRANCH  16  18
ATOM     18  C   UNL     1       0.070  -4.202   2.273  0.00  0.00    +0.251 C 
BRANCH  18  19
ATOM     19  O   UNL     1       0.050  -2.776   2.358  0.00  0.00    -0.490 OA
BRANCH  19  25
ATOM     20  C   UNL     1      -0.021   1.504   0.012  0.00  0.00    +0.044 C 
ATOM     21  C   UNL     1       0.001  -0.003   0.003  0.00  0.00    -0.047 A 
ATOM     22  C   UNL     1       0.006  -0.687  -1.199  0.00  0.00    +0.003 A 
ATOM     23  C   UNL     1       0.026  -2.069  -1.210  0.00  0.00    +0.004 A 
ATOM     24  C   UNL     1       0.041  -2.771  -0.020  0.00  0.00    +0.045 A 
ATOM     25  C   UNL     1       0.035  -2.088   1.187  0.00  0.00    +0.121 A 
ATOM     26  C   UNL     1       0.022  -0.700   1.196  0.00  0.00    +0.049 A 
ENDBRANCH  19  25
ENDBRANCH  18  19
ENDBRANCH  16  18
ENDBRANCH   1  16
TORSDOF 5
