REMARK  Name = ZINC05044029
REMARK  7 active torsions:
REMARK  status: ('A' for Active; 'I' for Inactive)
REMARK    1  A    between atoms: C_1  and  O_2
REMARK    2  A    between atoms: O_2  and  C_3
REMARK    3  A    between atoms: C_3  and  C_5
REMARK    4  A    between atoms: C_8  and  C_11
REMARK    5  A    between atoms: C_19  and  N_29
REMARK    6  A    between atoms: C_20  and  C_22
REMARK    7  A    between atoms: C_22  and  C_24
REMARK                            x       y       z     vdW  Elec       q    Type
REMARK                         _______ _______ _______ _____ _____    ______ ____
ROOT
ATOM      1  C   UNL     1      -7.322   3.128   0.036  0.00  0.00    +0.062 C 
ATOM      2  C   UNL     1      -7.894   4.354   0.745  0.00  0.00    +0.109 C 
ATOM      3  C   UNL     1      -7.234   5.623   0.281  0.00  0.00    +0.218 C 
ATOM      4  O   UNL     1      -7.904   6.619   0.107  0.00  0.00    -0.275 OA
ATOM      5  N   UNL     1      -5.899   5.667   0.056  0.00  0.00    -0.280 N 
ATOM      6  C   UNL     1      -5.216   4.475   0.052  0.00  0.00    +0.078 A 
ATOM      7  C   UNL     1      -5.800   3.224   0.043  0.00  0.00    +0.010 A 
ATOM      8  C   UNL     1      -4.946   2.137   0.029  0.00  0.00    +0.048 A 
ATOM      9  C   UNL     1      -3.566   2.359   0.030  0.00  0.00    +0.085 A 
ATOM     10  S   UNL     1      -3.479   4.144   0.038  0.00  0.00    -0.068 S 
ATOM     11  H   UNL     1      -5.442   6.509  -0.096  0.00  0.00    +0.155 HD
ENDROOT
BRANCH   1  15
ATOM     12  C   UNL     1      -8.735   3.015  -3.999  0.00  0.00    +0.059 A 
ATOM     13  C   UNL     1      -9.005   1.955  -3.132  0.00  0.00    +0.015 A 
ATOM     14  C   UNL     1      -8.547   1.998  -1.832  0.00  0.00    +0.005 A 
ATOM     15  C   UNL     1      -7.820   3.088  -1.386  0.00  0.00    -0.039 A 
ATOM     16  C   UNL     1      -7.553   4.144  -2.239  0.00  0.00    +0.005 A 
ATOM     17  C   UNL     1      -8.001   4.112  -3.543  0.00  0.00    +0.015 A 
BRANCH  12  18
ATOM     18  C   UNL     1      -9.223   2.977  -5.393  0.00  0.00    +0.339 C 
ATOM     19  O   UNL     1      -9.860   2.021  -5.787  0.00  0.00    -0.245 OA
BRANCH  18  21
ATOM     20  C   UNL     1      -9.470   3.895  -7.583  0.00  0.00    +0.280 C 
ATOM     21  O   UNL     1      -8.960   4.001  -6.228  0.00  0.00    -0.464 OA
ENDBRANCH  18  21
ENDBRANCH  12  18
ENDBRANCH   1  15
BRANCH   8  22
ATOM     22  N   UNL     1      -5.453   0.841   0.019  0.00  0.00    -0.357 N 
ATOM     23  H   UNL     1      -4.847   0.084   0.013  0.00  0.00    +0.142 HD
ATOM     24  H   UNL     1      -6.412   0.696   0.018  0.00  0.00    +0.142 HD
ENDBRANCH   8  22
BRANCH   9  25
ATOM     25  C   UNL     1      -2.515   1.417   0.020  0.00  0.00    +0.236 C 
ATOM     26  O   UNL     1      -2.765   0.223   0.015  0.00  0.00    -0.283 OA
BRANCH  25  27
ATOM     27  C   UNL     1      -1.119   1.875   0.017  0.00  0.00    +0.175 A 
ATOM     28  C   UNL     1      -0.013   1.076   0.008  0.00  0.00    +0.053 A 
ATOM     29  C   UNL     1       1.103   1.929   0.002  0.00  0.00    +0.042 A 
ATOM     30  C   UNL     1       0.634   3.196   0.013  0.00  0.00    +0.196 A 
ATOM     31  O   UNL     1      -0.706   3.159   0.025  0.00  0.00    -0.460 OA
ENDBRANCH  25  27
ENDBRANCH   9  25
TORSDOF 6
