REMARK  Name = ZINC14584527
REMARK  10 active torsions:
REMARK  status: ('A' for Active; 'I' for Inactive)
REMARK    1  A    between atoms: C_1  and  C_2
REMARK    2  A    between atoms: C_2  and  N_3
REMARK    3  A    between atoms: N_3  and  C_4
REMARK    4  A    between atoms: C_5  and  N_20
REMARK    5  A    between atoms: N_6  and  C_13
REMARK    6  A    between atoms: C_13  and  C_14
REMARK    7  A    between atoms: C_21  and  C_23
REMARK    8  A    between atoms: C_23  and  C_25
REMARK    9  A    between atoms: C_23  and  O_26
REMARK   10  A    between atoms: O_26  and  C_27
REMARK                            x       y       z     vdW  Elec       q    Type
REMARK                         _______ _______ _______ _____ _____    ______ ____
ROOT
ATOM      1  C   UNL     1       1.741   2.986  -0.647  0.00  0.00    +0.140 A 
ATOM      2  C   UNL     1       2.396   3.097  -1.856  0.00  0.00    +0.128 A 
ATOM      3  N   UNL     1       2.463   2.003  -2.687  0.00  0.00    -0.276 N 
ATOM      4  C   UNL     1       1.895   0.838  -2.325  0.00  0.00    +0.331 A 
ATOM      5  O   UNL     1       1.965  -0.118  -3.074  0.00  0.00    -0.246 OA
ATOM      6  N   UNL     1       1.252   0.711  -1.151  0.00  0.00    -0.273 N 
ATOM      7  H   UNL     1       0.839  -0.166  -0.906  0.00  0.00    +0.173 HD
ATOM      8  C   UNL     1       1.159   1.752  -0.301  0.00  0.00    +0.277 A 
ATOM      9  O   UNL     1       0.569   1.628   0.759  0.00  0.00    -0.266 OA
ENDROOT
BRANCH   1  10
ATOM     10  N   UNL     1       1.656   4.090   0.227  0.00  0.00    -0.261 N 
ATOM     11  C   UNL     1       2.754   4.516   0.885  0.00  0.00    +0.260 C 
ATOM     12  O   UNL     1       2.665   5.414   1.696  0.00  0.00    -0.271 OA
BRANCH  10  14
ATOM     13  C   UNL     1      -0.329   4.200   1.652  0.00  0.00    +0.025 C 
ATOM     14  C   UNL     1       0.374   4.774   0.420  0.00  0.00    +0.110 C 
ENDBRANCH  10  14
BRANCH  11  15
ATOM     15  C   UNL     1       4.091   3.877   0.613  0.00  0.00    +0.256 C 
ATOM     16  C   UNL     1       4.119   2.473   1.221  0.00  0.00    +0.062 C 
BRANCH  15  17
ATOM     17  O   UNL     1       5.126   4.670   1.197  0.00  0.00    -0.480 OA
BRANCH  17  18
ATOM     18  C   UNL     1       6.367   4.563   0.653  0.00  0.00    +0.122 A 
ATOM     19  C   UNL     1       7.390   5.393   1.089  0.00  0.00    +0.048 A 
ATOM     20  C   UNL     1       8.652   5.279   0.539  0.00  0.00    +0.042 A 
ATOM     21  C   UNL     1       8.894   4.345  -0.454  0.00  0.00    +0.124 A 
ATOM     22  C   UNL     1       7.873   3.520  -0.894  0.00  0.00    +0.042 A 
ATOM     23  C   UNL     1       6.611   3.628  -0.342  0.00  0.00    +0.048 A 
ATOM     24  F   UNL     1      10.128   4.238  -0.994  0.00  0.00    -0.205 F 
ENDBRANCH  17  18
ENDBRANCH  15  17
ENDBRANCH  11  15
ENDBRANCH   1  10
BRANCH   2  25
ATOM     25  N   UNL     1       2.976   4.287  -2.226  0.00  0.00    -0.343 N 
ATOM     26  H   UNL     1       3.500   4.339  -3.041  0.00  0.00    +0.144 HD
ATOM     27  H   UNL     1       2.861   5.075  -1.673  0.00  0.00    +0.144 HD
ENDBRANCH   2  25
BRANCH   3  28
ATOM     28  C   UNL     1       3.155   2.107  -3.974  0.00  0.00    +0.163 C 
BRANCH  28  29
ATOM     29  C   UNL     1       2.179   2.541  -5.037  0.00  0.00    -0.028 A 
ATOM     30  C   UNL     1       1.477   1.594  -5.759  0.00  0.00    +0.005 A 
ATOM     31  C   UNL     1       0.578   1.992  -6.730  0.00  0.00    +0.000 A 
ATOM     32  C   UNL     1       0.388   3.337  -6.987  0.00  0.00    +0.000 A 
ATOM     33  C   UNL     1       1.093   4.284  -6.268  0.00  0.00    +0.000 A 
ATOM     34  C   UNL     1       1.989   3.886  -5.293  0.00  0.00    +0.005 A 
ENDBRANCH  28  29
ENDBRANCH   3  28
TORSDOF 8
