REMARK  Name = ZINC21713501
REMARK  6 active torsions:
REMARK  status: ('A' for Active; 'I' for Inactive)
REMARK    1  A    between atoms: C_1  and  C_2
REMARK    2  A    between atoms: C_4  and  C_22
REMARK    3  A    between atoms: C_9  and  N_13
REMARK    4  A    between atoms: N_13  and  C_14
REMARK    5  A    between atoms: C_14  and  C_15
REMARK    6  A    between atoms: C_15  and  C_16
REMARK                            x       y       z     vdW  Elec       q    Type
REMARK                         _______ _______ _______ _____ _____    ______ ____
ROOT
ATOM      1  C   UNL     1       7.069   4.993  -3.202  0.00  0.00    +0.067 C 
ATOM      2  C   UNL     1       6.070   5.238  -4.304  0.00  0.00    +0.061 A 
ATOM      3  C   UNL     1       6.368   5.366  -5.666  0.00  0.00    +0.048 A 
ATOM      4  C   UNL     1       5.207   5.577  -6.328  0.00  0.00    +0.044 A 
ATOM      5  N   UNL     1       4.205   5.582  -5.410  0.00  0.00    -0.219 N 
ATOM      6  N   UNL     1       4.779   5.373  -4.149  0.00  0.00    -0.170 NA
ATOM      7  C   UNL     1       2.847   5.769  -5.676  0.00  0.00    +0.159 A 
ATOM      8  C   UNL     1       1.885   5.264  -4.811  0.00  0.00    +0.091 A 
ATOM      9  C   UNL     1       0.543   5.477  -5.120  0.00  0.00    +0.124 A 
ATOM     10  N   UNL     1       0.234   6.148  -6.228  0.00  0.00    -0.221 NA
ATOM     11  C   UNL     1       1.179   6.616  -7.019  0.00  0.00    +0.225 A 
ATOM     12  N   UNL     1       2.457   6.434  -6.760  0.00  0.00    -0.216 NA
ATOM     13  C   UNL     1       5.054   5.770  -7.814  0.00  0.00    +0.066 C 
ENDROOT
BRANCH   9  14
ATOM     14  N   UNL     1      -0.456   4.993  -4.290  0.00  0.00    -0.329 N 
ATOM     15  H   UNL     1      -1.513   5.166  -4.542  0.00  0.00    +0.147 HD
BRANCH  14  16
ATOM     16  C   UNL     1      -0.104   4.251  -3.077  0.00  0.00    +0.107 C 
BRANCH  16  17
ATOM     17  C   UNL     1      -1.382   3.833  -2.347  0.00  0.00    +0.049 C 
BRANCH  17  18
ATOM     18  C   UNL     1      -1.020   3.070  -1.099  0.00  0.00    -0.072 C 
ATOM     19  C   UNL     1      -0.952   3.725   0.015  0.00  0.00    -0.028 C 
ATOM     20  C   UNL     1      -0.595   3.106   1.335  0.00  0.00    +0.027 C 
ATOM     21  C   UNL     1      -0.739   1.585   1.264  0.00  0.00    +0.004 C 
ATOM     22  C   UNL     1      -0.013   1.086   0.008  0.00  0.00    +0.005 C 
ATOM     23  C   UNL     1      -0.761   1.597  -1.225  0.00  0.00    +0.030 C 
ENDBRANCH  17  18
ENDBRANCH  16  17
ENDBRANCH  14  16
ENDBRANCH   9  14
TORSDOF 4
