REMARK  Name = ZINC35453273
REMARK  4 active torsions:
REMARK  status: ('A' for Active; 'I' for Inactive)
REMARK    1  A    between atoms: C_1  and  C_2
REMARK    2  A    between atoms: C_7  and  N_10
REMARK    3  A    between atoms: N_10  and  C_11
REMARK    4  A    between atoms: C_16  and  N_17
REMARK                            x       y       z     vdW  Elec       q    Type
REMARK                         _______ _______ _______ _____ _____    ______ ____
ROOT
ATOM      1  C   UNL     1      -0.884  -3.826   1.753  0.00  0.00    +0.050 A 
ATOM      2  C   UNL     1       0.148  -4.608   2.252  0.00  0.00    +0.051 A 
ATOM      3  C   UNL     1      -0.124  -5.870   2.754  0.00  0.00    +0.078 A 
ATOM      4  C   UNL     1      -1.431  -6.355   2.758  0.00  0.00    +0.144 A 
ATOM      5  C   UNL     1      -2.461  -5.575   2.261  0.00  0.00    +0.072 A 
ATOM      6  C   UNL     1      -2.191  -4.309   1.763  0.00  0.00    +0.049 A 
ATOM      7  O   UNL     1      -1.681  -7.598   3.253  0.00  0.00    -0.481 OA
ATOM      8  C   UNL     1      -0.658  -8.580   3.073  0.00  0.00    +0.325 C 
ATOM      9  C   UNL     1       0.679  -7.993   3.450  0.00  0.00    +0.255 C 
ATOM     10  O   UNL     1       1.545  -8.702   3.917  0.00  0.00    -0.272 OA
ATOM     11  N   UNL     1       0.907  -6.675   3.264  0.00  0.00    -0.280 N 
ATOM     12  H   UNL     1       1.771  -6.290   3.480  0.00  0.00    +0.155 HD
ENDROOT
BRANCH   6  13
ATOM     13  N   UNL     1      -3.234  -3.516   1.263  0.00  0.00    -0.356 N 
ATOM     14  H   UNL     1      -3.046  -2.632   0.911  0.00  0.00    +0.142 HD
ATOM     15  H   UNL     1      -4.144  -3.851   1.270  0.00  0.00    +0.142 HD
ENDBRANCH   6  13
BRANCH   1  16
ATOM     16  N   UNL     1      -0.612  -2.548   1.244  0.00  0.00    -0.340 N 
ATOM     17  H   UNL     1      -1.333  -2.000   0.898  0.00  0.00    +0.146 HD
BRANCH  16  23
ATOM     18  C   UNL     1      -0.019   1.526   0.010  0.00  0.00    +0.007 C 
ATOM     19  C   UNL     1       0.002  -0.004   0.002  0.00  0.00    -0.012 C 
ATOM     20  C   UNL     1       0.718  -0.497  -1.257  0.00  0.00    +0.003 C 
ATOM     21  C   UNL     1       0.739  -2.027  -1.265  0.00  0.00    +0.002 C 
ATOM     22  C   UNL     1       1.479  -2.534  -0.026  0.00  0.00    +0.022 C 
ATOM     23  C   UNL     1       0.763  -2.041   1.233  0.00  0.00    +0.071 C 
ATOM     24  C   UNL     1       0.742  -0.511   1.242  0.00  0.00    +0.025 C 
ENDBRANCH  16  23
ENDBRANCH   1  16
TORSDOF 3
