REMARK  Name = ZINC58236977
REMARK  10 active torsions:
REMARK  status: ('A' for Active; 'I' for Inactive)
REMARK    1  A    between atoms: C_1  and  C_2
REMARK    2  A    between atoms: C_2  and  O_3
REMARK    3  A    between atoms: O_3  and  C_4
REMARK    4  A    between atoms: C_7  and  C_10
REMARK    5  A    between atoms: C_11  and  C_12
REMARK    6  A    between atoms: C_11  and  C_14
REMARK    7  A    between atoms: N_16  and  C_17
REMARK    8  A    between atoms: C_17  and  C_18
REMARK    9  A    between atoms: C_17  and  C_19
REMARK   10  A    between atoms: C_22  and  N_25
REMARK                            x       y       z     vdW  Elec       q    Type
REMARK                         _______ _______ _______ _____ _____    ______ ____
ROOT
ATOM      1  C   UNL     1      -3.412  -8.062   0.203  0.00  0.00    +0.255 C 
ATOM      2  O   UNL     1      -2.438  -8.791   0.189  0.00  0.00    -0.269 OA
ATOM      3  N   UNL     1      -4.647  -8.590   0.308  0.00  0.00    -0.304 N 
ATOM      4  H   UNL     1      -5.424  -8.009   0.318  0.00  0.00    +0.150 HD
ENDROOT
BRANCH   1   6
ATOM      5  C   UNL     1      -1.978  -6.064  -0.003  0.00  0.00    +0.032 C 
ATOM      6  C   UNL     1      -3.241  -6.604   0.104  0.00  0.00    +0.114 C 
BRANCH   5  10
ATOM      7  C   UNL     1      -1.450  -1.874   0.166  0.00  0.00    +0.121 A 
ATOM      8  C   UNL     1      -0.560  -2.655  -0.564  0.00  0.00    +0.046 A 
ATOM      9  C   UNL     1      -0.725  -4.010  -0.622  0.00  0.00    +0.011 A 
ATOM     10  C   UNL     1      -1.795  -4.612   0.056  0.00  0.00    -0.023 A 
ATOM     11  C   UNL     1      -2.689  -3.819   0.790  0.00  0.00    +0.011 A 
ATOM     12  C   UNL     1      -2.510  -2.466   0.845  0.00  0.00    +0.046 A 
BRANCH   7  13
ATOM     13  O   UNL     1      -1.280  -0.528   0.220  0.00  0.00    -0.492 OA
BRANCH  13  15
ATOM     14  C   UNL     1      -0.145   1.535  -0.323  0.00  0.00    +0.048 C 
ATOM     15  C   UNL     1      -0.172   0.015  -0.501  0.00  0.00    +0.225 C 
ENDBRANCH  13  15
ENDBRANCH   7  13
ENDBRANCH   5  10
BRANCH   6  16
ATOM     16  C   UNL     1      -4.387  -5.746   0.120  0.00  0.00    +0.104 C 
ATOM     17  N   UNL     1      -5.297  -5.066   0.133  0.00  0.00    -0.191 NA
ENDBRANCH   6  16
ENDBRANCH   1   6
BRANCH   3  18
ATOM     18  C   UNL     1      -4.817 -10.042   0.405  0.00  0.00    +0.100 C 
ATOM     19  C   UNL     1      -4.837 -10.649  -0.999  0.00  0.00    +0.033 C 
BRANCH  18  20
ATOM     20  C   UNL     1      -6.117 -10.350   1.103  0.00  0.00    -0.027 A 
ATOM     21  C   UNL     1      -7.244  -9.599   0.825  0.00  0.00    +0.007 A 
ATOM     22  C   UNL     1      -8.437  -9.878   1.463  0.00  0.00    +0.023 A 
ATOM     23  C   UNL     1      -8.503 -10.915   2.385  0.00  0.00    +0.035 A 
ATOM     24  C   UNL     1      -7.370 -11.667   2.662  0.00  0.00    +0.023 A 
ATOM     25  C   UNL     1      -6.181 -11.386   2.017  0.00  0.00    +0.007 A 
BRANCH  23  26
ATOM     26  N   UNL     1      -9.710 -11.200   3.033  0.00  0.00    -0.270 N 
ATOM     27  C   UNL     1     -10.878 -11.059   2.376  0.00  0.00    +0.301 C 
ATOM     28  O   UNL     1     -10.891 -10.596   1.252  0.00  0.00    -0.253 OA
ATOM     29  N   UNL     1     -12.032 -11.431   2.965  0.00  0.00    -0.313 N 
ATOM     30  H   UNL     1      -9.706 -11.499   3.956  0.00  0.00    +0.156 HD
ATOM     31  H   UNL     1     -12.022 -11.801   3.861  0.00  0.00    +0.146 HD
ATOM     32  H   UNL     1     -12.873 -11.330   2.491  0.00  0.00    +0.146 HD
ENDBRANCH  23  26
ENDBRANCH  18  20
ENDBRANCH   3  18
TORSDOF 8
