REMARK  Name = ZINC48559255
REMARK  3 active torsions:
REMARK  status: ('A' for Active; 'I' for Inactive)
REMARK    1  A    between atoms: C_1  and  N_2
REMARK    2  A    between atoms: N_2  and  C_3
REMARK    3  A    between atoms: C_3  and  C_4
REMARK                            x       y       z     vdW  Elec       q    Type
REMARK                         _______ _______ _______ _____ _____    ______ ____
ROOT
ATOM      1  C   UNL     1      -0.032   1.460   0.011  0.00  0.00    +0.131 C 
ATOM      2  N   UNL     1       0.002  -0.004   0.002  0.00  0.00    -0.309 N 
ATOM      3  C   UNL     1      -0.104  -0.692  -1.196  0.00  0.00    +0.150 A 
ATOM      4  C   UNL     1      -0.127  -0.007  -2.413  0.00  0.00    +0.125 A 
ATOM      5  C   UNL     1      -0.236  -0.748  -3.600  0.00  0.00    +0.183 A 
ATOM      6  N   UNL     1      -0.236   0.137  -4.614  0.00  0.00    -0.216 NA
ATOM      7  C   UNL     1      -0.136   1.349  -4.143  0.00  0.00    +0.199 A 
ATOM      8  N   UNL     1      -0.066   1.317  -2.793  0.00  0.00    -0.340 N 
ATOM      9  H   UNL     1       0.013   2.083  -2.202  0.00  0.00    +0.167 HD
ATOM     10  N   UNL     1      -0.314  -2.081  -3.520  0.00  0.00    -0.214 NA
ATOM     11  C   UNL     1      -0.289  -2.682  -2.351  0.00  0.00    +0.225 A 
ATOM     12  N   UNL     1      -0.182  -2.020  -1.213  0.00  0.00    -0.219 NA
ENDROOT
BRANCH   2  13
ATOM     13  C   UNL     1       0.149  -0.742   1.259  0.00  0.00    +0.180 C 
BRANCH  13  14
ATOM     14  C   UNL     1      -1.213  -1.028   1.836  0.00  0.00    +0.124 A 
ATOM     15  C   UNL     1      -1.956  -2.123   1.592  0.00  0.00    +0.047 A 
ATOM     16  C   UNL     1      -3.152  -1.981   2.332  0.00  0.00    +0.057 A 
ATOM     17  C   UNL     1      -3.069  -0.806   2.985  0.00  0.00    +0.170 A 
ATOM     18  O   UNL     1      -1.890  -0.237   2.685  0.00  0.00    -0.452 OA
ATOM     19 BR   UNL     1      -4.385  -0.084   4.135  0.00  0.00    -0.008 Br
ENDBRANCH  13  14
ENDBRANCH   2  13
TORSDOF 2
