REMARK  Name = ZINC36273188
REMARK  8 active torsions:
REMARK  status: ('A' for Active; 'I' for Inactive)
REMARK    1  A    between atoms: C_1  and  C_2
REMARK    2  A    between atoms: C_2  and  N_3
REMARK    3  A    between atoms: N_3  and  C_4
REMARK    4  A    between atoms: N_3  and  C_6
REMARK    5  A    between atoms: C_4  and  C_5
REMARK    6  A    between atoms: C_6  and  C_7
REMARK    7  A    between atoms: C_8  and  C_17
REMARK    8  A    between atoms: C_13  and  N_16
REMARK                            x       y       z     vdW  Elec       q    Type
REMARK                         _______ _______ _______ _____ _____    ______ ____
ROOT
ATOM      1  C   UNL     1       2.562   0.947   0.222  0.00  0.00    +0.035 A 
ATOM      2  C   UNL     1       2.635   1.967  -0.678  0.00  0.00    +0.091 A 
ATOM      3  N   UNL     1       3.373   2.951  -0.141  0.00  0.00    -0.228 NA
ATOM      4  C   UNL     1       3.768   2.584   1.071  0.00  0.00    +0.138 A 
ATOM      5  N   UNL     1       3.269   1.334   1.326  0.00  0.00    -0.303 N 
ATOM      6  C   UNL     1       3.525   0.716   2.519  0.00  0.00    +0.115 A 
ATOM      7  C   UNL     1       4.271   1.332   3.468  0.00  0.00    +0.041 A 
ATOM      8  C   UNL     1       4.793   2.619   3.232  0.00  0.00    +0.028 A 
ATOM      9  C   UNL     1       4.551   3.236   2.045  0.00  0.00    +0.048 A 
ENDROOT
BRANCH   2  10
ATOM     10  C   UNL     1       2.007   1.987  -2.022  0.00  0.00    +0.004 A 
ATOM     11  C   UNL     1       2.035   0.846  -2.822  0.00  0.00    +0.014 A 
ATOM     12  C   UNL     1       1.450   0.861  -4.073  0.00  0.00    +0.048 A 
ATOM     13  C   UNL     1       0.835   2.012  -4.536  0.00  0.00    +0.142 A 
ATOM     14  C   UNL     1       0.804   3.157  -3.740  0.00  0.00    +0.076 A 
ATOM     15  C   UNL     1       1.383   3.144  -2.484  0.00  0.00    +0.037 A 
ATOM     16  N   UNL     1       0.178   4.314  -4.227  0.00  0.00    -0.280 N 
ATOM     17  C   UNL     1      -0.645   4.213  -5.293  0.00  0.00    +0.255 C 
ATOM     18  O   UNL     1      -1.174   5.205  -5.749  0.00  0.00    -0.272 OA
ATOM     19  C   UNL     1      -0.903   2.864  -5.914  0.00  0.00    +0.325 C 
ATOM     20  O   UNL     1       0.255   2.038  -5.766  0.00  0.00    -0.481 OA
ATOM     21  H   UNL     1       0.333   5.173  -3.804  0.00  0.00    +0.155 HD
ENDBRANCH   2  10
BRANCH   7  22
ATOM     22  N   UNL     1       4.524   0.687   4.686  0.00  0.00    -0.357 N 
ATOM     23  H   UNL     1       4.166  -0.200   4.849  0.00  0.00    +0.142 HD
ATOM     24  H   UNL     1       5.059   1.127   5.366  0.00  0.00    +0.142 HD
ENDBRANCH   7  22
BRANCH   1  25
ATOM     25  C   UNL     1       1.835  -0.360   0.038  0.00  0.00    -0.022 C 
BRANCH  25  26
ATOM     26  N   UNL     1       0.386  -0.126   0.101  0.00  0.00    +0.383 N 
ATOM     27  H   UNL     1       0.135   0.609  -0.543  0.00  0.00    -0.081 HD
BRANCH  26  29
ATOM     28  C   UNL     1      -0.078  -1.675  -1.739  0.00  0.00    -0.017 C 
ATOM     29  C   UNL     1      -0.325  -1.359  -0.262  0.00  0.00    -0.082 C 
ENDBRANCH  26  29
BRANCH  26  30
ATOM     30  C   UNL     1       0.013   0.270   1.466  0.00  0.00    -0.082 C 
ATOM     31  C   UNL     1       0.461   1.711   1.718  0.00  0.00    -0.017 C 
ENDBRANCH  26  30
ENDBRANCH  25  26
ENDBRANCH   1  25
TORSDOF 6
