REMARK  Name = ZINC43289333
REMARK  7 active torsions:
REMARK  status: ('A' for Active; 'I' for Inactive)
REMARK    1  A    between atoms: C_1  and  C_2
REMARK    2  A    between atoms: C_2  and  C_3
REMARK    3  A    between atoms: C_3  and  C_5
REMARK    4  A    between atoms: C_3  and  N_21
REMARK    5  A    between atoms: C_5  and  C_7
REMARK    6  A    between atoms: C_5  and  O_13
REMARK    7  A    between atoms: O_13  and  C_14
REMARK                            x       y       z     vdW  Elec       q    Type
REMARK                         _______ _______ _______ _____ _____    ______ ____
ROOT
ATOM      1  C   UNL     1      -1.401  -2.093   0.130  0.00  0.00    +0.196 C 
ENDROOT
BRANCH   1   2
ATOM      2  C   UNL     1      -0.679  -2.629   1.339  0.00  0.00    +0.029 A 
ATOM      3  C   UNL     1       0.616  -3.013   1.459  0.00  0.00    +0.030 A 
ATOM      4  C   UNL     1       1.066  -3.479   2.680  0.00  0.00    +0.025 A 
ATOM      5  C   UNL     1       0.200  -3.538   3.721  0.00  0.00    +0.060 A 
ATOM      6  S   UNL     1      -1.304  -2.917   2.986  0.00  0.00    -0.097 S 
ATOM      7 BR   UNL     1       2.864  -4.026   2.895  0.00  0.00    -0.050 Br
ENDBRANCH   1   2
BRANCH   1   8
ATOM      8  C   UNL     1      -1.383  -0.563   0.162  0.00  0.00    -0.029 C 
BRANCH   8   9
ATOM      9  N   UNL     1      -2.088  -0.041  -1.016  0.00  0.00    +0.383 N 
ATOM     10  H   UNL     1      -1.628  -0.365  -1.854  0.00  0.00    -0.089 HD
ATOM     11  H   UNL     1      -3.043  -0.366  -1.009  0.00  0.00    -0.089 HD
ATOM     12  H   UNL     1      -2.076   0.968  -0.995  0.00  0.00    -0.089 HD
ENDBRANCH   8   9
BRANCH   8  14
ATOM     13  C   UNL     1       0.086   1.452   0.309  0.00  0.00    +0.002 C 
ATOM     14  C   UNL     1       0.065  -0.070   0.151  0.00  0.00    -0.016 C 
ENDBRANCH   8  14
ENDBRANCH   1   8
BRANCH   1  15
ATOM     15  O   UNL     1      -2.754  -2.554   0.140  0.00  0.00    -0.484 OA
BRANCH  15  16
ATOM     16  C   UNL     1      -3.344  -2.761  -1.066  0.00  0.00    +0.135 A 
ATOM     17  C   UNL     1      -2.615  -2.593  -2.234  0.00  0.00    +0.047 A 
ATOM     18  C   UNL     1      -3.218  -2.804  -3.460  0.00  0.00    +0.004 A 
ATOM     19  C   UNL     1      -4.546  -3.182  -3.523  0.00  0.00    +0.001 A 
ATOM     20  C   UNL     1      -5.276  -3.350  -2.360  0.00  0.00    +0.019 A 
ATOM     21  C   UNL     1      -4.676  -3.146  -1.131  0.00  0.00    +0.059 A 
ATOM     22 BR   UNL     1      -5.672  -3.384   0.459  0.00  0.00    -0.047 Br
ENDBRANCH  15  16
ENDBRANCH   1  15
TORSDOF 6
