REMARK  Name = ZINC11937551
REMARK  3 active torsions:
REMARK  status: ('A' for Active; 'I' for Inactive)
REMARK    1  A    between atoms: C_12  and  N_51
REMARK    2  A    between atoms: C_17  and  C_18
REMARK    3  A    between atoms: C_17  and  N_51
REMARK                            x       y       z     vdW  Elec       q    Type
REMARK                         _______ _______ _______ _____ _____    ______ ____
ROOT
ATOM      1  C   UNL     1       2.375   1.361  -0.013  0.00  0.00    +0.005 A 
ATOM      2  C   UNL     1       2.350  -0.026  -0.021  0.00  0.00    +0.020 A 
ATOM      3  C   UNL     1       1.134  -0.681  -0.013  0.00  0.00    +0.113 A 
ATOM      4  N   UNL     1       0.002  -0.004   0.002  0.00  0.00    -0.236 NA
ATOM      5  C   UNL     1      -0.016   1.319   0.009  0.00  0.00    +0.154 A 
ATOM      6  C   UNL     1       1.170   2.043   0.002  0.00  0.00    +0.048 A 
ATOM      7  N   UNL     1      -1.240   1.995   0.019  0.00  0.00    -0.218 N 
ATOM      8  C   UNL     1      -2.419   1.517  -0.440  0.00  0.00    +0.048 A 
ATOM      9  C   UNL     1      -3.357   2.479  -0.250  0.00  0.00    -0.020 A 
ATOM     10  C   UNL     1      -2.735   3.577   0.343  0.00  0.00    +0.137 A 
ATOM     11  N   UNL     1      -1.467   3.289   0.511  0.00  0.00    -0.173 NA
ATOM     12  C   UNL     1      -4.808   2.332  -0.634  0.00  0.00    -0.037 C 
ATOM     13  C   UNL     1      -4.933   1.155  -1.609  0.00  0.00    -0.011 C 
ATOM     14  C   UNL     1      -4.215  -0.067  -1.031  0.00  0.00    +0.005 C 
ATOM     15  C   UNL     1      -2.700   0.170  -1.056  0.00  0.00    +0.056 C 
ENDROOT
BRANCH  12  16
ATOM     16  N   UNL     1      -5.275   3.566  -1.294  0.00  0.00    +0.387 N 
ATOM     17  H   UNL     1      -6.066   3.343  -1.909  0.00  0.00    -0.085 HD
ATOM     18  H   UNL     1      -4.509   3.963  -1.851  0.00  0.00    -0.085 HD
BRANCH  16  19
ATOM     19  C   UNL     1      -5.706   4.554  -0.287  0.00  0.00    -0.037 C 
BRANCH  19  20
ATOM     20  C   UNL     1      -6.177   5.801  -0.989  0.00  0.00    -0.006 A 
ATOM     21  C   UNL     1      -7.414   6.128  -1.432  0.00  0.00    +0.122 A 
ATOM     22  N   UNL     1      -7.583   7.297  -2.023  0.00  0.00    -0.233 NA
ATOM     23  C   UNL     1      -6.573   8.129  -2.190  0.00  0.00    +0.161 A 
ATOM     24  S   UNL     1      -5.256   7.254  -1.472  0.00  0.00    -0.059 S 
ATOM     25  N   UNL     1      -6.566   9.381  -2.785  0.00  0.00    -0.305 N 
ATOM     26  C   UNL     1      -6.049  10.401  -1.860  0.00  0.00    +0.135 C 
ATOM     27  C   UNL     1      -6.002  11.753  -2.575  0.00  0.00    +0.179 C 
ATOM     28  O   UNL     1      -7.307  12.075  -3.062  0.00  0.00    -0.377 OA
ATOM     29  C   UNL     1      -7.841  11.104  -3.965  0.00  0.00    +0.179 C 
ATOM     30  C   UNL     1      -7.907   9.745  -3.264  0.00  0.00    +0.135 C 
ENDBRANCH  19  20
ENDBRANCH  16  19
ENDBRANCH  12  16
TORSDOF 3
