REMARK  Name = ZINC58191827
REMARK  13 active torsions:
REMARK  status: ('A' for Active; 'I' for Inactive)
REMARK    1  A    between atoms: C_1  and  C_2
REMARK    2  A    between atoms: C_2  and  N_3
REMARK    3  A    between atoms: N_3  and  C_4
REMARK    4  A    between atoms: N_3  and  C_6
REMARK    5  A    between atoms: C_4  and  C_5
REMARK    6  A    between atoms: C_6  and  C_8
REMARK    7  A    between atoms: C_6  and  C_9
REMARK    8  A    between atoms: C_9  and  N_10
REMARK    9  A    between atoms: C_11  and  C_13
REMARK   10  A    between atoms: C_13  and  C_14
REMARK   11  A    between atoms: C_14  and  C_15
REMARK   12  A    between atoms: C_20  and  C_24
REMARK   13  A    between atoms: C_21  and  C_23
REMARK                            x       y       z     vdW  Elec       q    Type
REMARK                         _______ _______ _______ _____ _____    ______ ____
ROOT
ATOM      1  C   UNL     1       2.688  -0.955   2.720  0.00  0.00    +0.103 C 
ENDROOT
BRANCH   1   3
ATOM      2  N   UNL     1       0.566  -1.571   1.610  0.00  0.00    -0.317 N 
ATOM      3  C   UNL     1       1.433  -1.782   2.620  0.00  0.00    +0.213 C 
ATOM      4  O   UNL     1       1.202  -2.637   3.448  0.00  0.00    -0.276 OA
ATOM      5  H   UNL     1       0.750  -0.886   0.947  0.00  0.00    +0.149 HD
BRANCH   2   6
ATOM      6  C   UNL     1      -0.655  -2.375   1.512  0.00  0.00    +0.088 C 
BRANCH   6   7
ATOM      7  C   UNL     1      -1.402  -2.014   0.227  0.00  0.00    -0.054 C 
ATOM      8  C   UNL     1      -2.711  -2.803   0.159  0.00  0.00    -0.012 C 
BRANCH   7   9
ATOM      9  N   UNL     1      -1.697  -0.574   0.220  0.00  0.00    +0.382 N 
ATOM     10  H   UNL     1      -0.843  -0.056   0.361  0.00  0.00    -0.081 HD
BRANCH   9  12
ATOM     11  C   UNL     1      -1.249  -0.382  -2.180  0.00  0.00    -0.017 C 
ATOM     12  C   UNL     1      -2.289  -0.202  -1.072  0.00  0.00    -0.082 C 
ENDBRANCH   9  12
BRANCH   9  13
ATOM     13  C   UNL     1      -2.643  -0.263   1.300  0.00  0.00    -0.082 C 
ATOM     14  C   UNL     1      -2.831   1.252   1.392  0.00  0.00    -0.017 C 
ENDBRANCH   9  13
ENDBRANCH   7   9
ENDBRANCH   6   7
ENDBRANCH   2   6
ENDBRANCH   1   3
BRANCH   1  15
ATOM     15  C   UNL     1       3.491  -1.392   3.947  0.00  0.00    +0.083 C 
BRANCH  15  16
ATOM     16  C   UNL     1       4.747  -0.565   4.047  0.00  0.00    +0.112 A 
ATOM     17  N   UNL     1       5.604  -0.796   5.062  0.00  0.00    -0.337 N 
ATOM     18  H   UNL     1       5.404  -1.487   5.713  0.00  0.00    +0.168 HD
ATOM     19  C   UNL     1       6.743  -0.068   5.179  0.00  0.00    +0.092 A 
ATOM     20  C   UNL     1       7.059   0.937   4.256  0.00  0.00    +0.075 A 
ATOM     21  C   UNL     1       8.308   1.633   4.507  0.00  0.00    -0.026 A 
ATOM     22  C   UNL     1       9.051   1.281   5.568  0.00  0.00    -0.008 A 
ATOM     23  S   UNL     1       8.104  -0.034   6.314  0.00  0.00    -0.075 S 
ATOM     24  C   UNL     1      10.369   1.857   6.020  0.00  0.00    +0.052 C 
ATOM     25  C   UNL     1       8.765   2.736   3.588  0.00  0.00    +0.045 C 
ATOM     26  C   UNL     1       6.069   1.128   3.174  0.00  0.00    +0.282 A 
ATOM     27  O   UNL     1       6.245   1.977   2.315  0.00  0.00    -0.265 OA
ATOM     28  N   UNL     1       4.976   0.350   3.147  0.00  0.00    -0.195 NA
ENDBRANCH  15  16
ENDBRANCH   1  15
TORSDOF 8
