REMARK  Name = ZINC20751040
REMARK  7 active torsions:
REMARK  status: ('A' for Active; 'I' for Inactive)
REMARK    1  A    between atoms: C_5  and  C_7
REMARK    2  A    between atoms: C_7  and  C_9
REMARK    3  A    between atoms: C_9  and  O_10
REMARK    4  A    between atoms: O_10  and  C_11
REMARK    5  A    between atoms: C_11  and  C_13
REMARK    6  A    between atoms: C_16  and  N_22
REMARK    7  A    between atoms: C_17  and  N_19
REMARK                            x       y       z     vdW  Elec       q    Type
REMARK                         _______ _______ _______ _____ _____    ______ ____
ROOT
ATOM      1  C   UNL     1       0.063  -4.241  -0.126  0.00  0.00    +0.340 C 
ATOM      2  O   UNL     1      -0.978  -4.867  -0.072  0.00  0.00    -0.245 OA
ENDROOT
BRANCH   1   3
ATOM      3  C   UNL     1       0.041  -2.769  -0.063  0.00  0.00    +0.061 A 
ATOM      4  C   UNL     1       1.238  -2.047  -0.125  0.00  0.00    +0.017 A 
ATOM      5  C   UNL     1       1.217  -0.683  -0.067  0.00  0.00    +0.026 A 
ATOM      6  C   UNL     1       0.007  -0.005   0.053  0.00  0.00    +0.055 A 
ATOM      7  C   UNL     1      -1.189  -0.716   0.120  0.00  0.00    +0.147 A 
ATOM      8  C   UNL     1      -1.176  -2.091   0.058  0.00  0.00    +0.049 A 
BRANCH   7   9
ATOM      9  N   UNL     1      -2.474   0.007   0.254  0.00  0.00    +0.058 N 
ATOM     10  O   UNL     1      -3.363  -0.454   0.947  0.00  0.00    -0.126 OA
ATOM     11  O   UNL     1      -2.641   1.064  -0.329  0.00  0.00    -0.126 OA
ENDBRANCH   7   9
BRANCH   6  12
ATOM     12  N   UNL     1      -0.007   1.384   0.112  0.00  0.00    -0.356 N 
ATOM     13  H   UNL     1      -0.963   1.920   0.207  0.00  0.00    +0.142 HD
ATOM     14  H   UNL     1       0.937   1.946   0.063  0.00  0.00    +0.142 HD
ENDBRANCH   6  12
ENDBRANCH   1   3
BRANCH   1  15
ATOM     15  O   UNL     1       1.236  -4.894  -0.243  0.00  0.00    -0.453 OA
BRANCH  15  16
ATOM     16  C   UNL     1       1.181  -6.344  -0.299  0.00  0.00    +0.311 C 
BRANCH  16  17
ATOM     17  C   UNL     1       2.578  -6.894  -0.428  0.00  0.00    +0.201 C 
ATOM     18  O   UNL     1       3.526  -6.139  -0.470  0.00  0.00    -0.288 OA
BRANCH  17  23
ATOM     19  C   UNL     1       1.909 -10.583  -0.529  0.00  0.00    +0.001 A 
ATOM     20  C   UNL     1       3.194 -11.085  -0.648  0.00  0.00    +0.001 A 
ATOM     21  C   UNL     1       4.279 -10.229  -0.696  0.00  0.00    +0.016 A 
ATOM     22  C   UNL     1       4.087  -8.863  -0.625  0.00  0.00    +0.028 A 
ATOM     23  C   UNL     1       2.792  -8.348  -0.505  0.00  0.00    +0.035 A 
ATOM     24  C   UNL     1       1.701  -9.223  -0.452  0.00  0.00    +0.012 A 
ATOM     25 BR   UNL     1       5.571  -7.693  -0.691  0.00  0.00    -0.050 Br
ENDBRANCH  17  23
ENDBRANCH  16  17
ENDBRANCH  15  16
ENDBRANCH   1  15
TORSDOF 7
