REMARK  Name = ZINC16794572
REMARK  12 active torsions:
REMARK  status: ('A' for Active; 'I' for Inactive)
REMARK    1  A    between atoms: C_1  and  C_2
REMARK    2  A    between atoms: C_2  and  C_4
REMARK    3  A    between atoms: C_2  and  O_14
REMARK    4  A    between atoms: N_6  and  C_7
REMARK    5  A    between atoms: O_14  and  C_15
REMARK    6  A    between atoms: C_15  and  C_17
REMARK    7  A    between atoms: C_17  and  C_19
REMARK    8  A    between atoms: C_17  and  N_22
REMARK    9  A    between atoms: C_19  and  C_20
REMARK   10  A    between atoms: C_19  and  C_21
REMARK   11  A    between atoms: C_23  and  C_25
REMARK   12  A    between atoms: C_28  and  N_32
REMARK                            x       y       z     vdW  Elec       q    Type
REMARK                         _______ _______ _______ _____ _____    ______ ____
ROOT
ATOM      1  C   UNL     1       2.816  -1.151   2.223  0.00  0.00    +0.185 C 
ENDROOT
BRANCH   1   2
ATOM      2  N   UNL     1       4.228  -1.258   1.846  0.00  0.00    -0.298 N 
ATOM      3  C   UNL     1       5.036  -2.118   2.498  0.00  0.00    +0.246 C 
ATOM      4  O   UNL     1       4.594  -2.803   3.399  0.00  0.00    -0.270 OA
ATOM      5  H   UNL     1       4.581  -0.712   1.126  0.00  0.00    +0.150 HD
BRANCH   3   6
ATOM      6  C   UNL     1       6.460  -2.226   2.117  0.00  0.00    +0.055 A 
ATOM      7  C   UNL     1       6.973  -1.436   1.086  0.00  0.00    +0.017 A 
ATOM      8  C   UNL     1       8.302  -1.542   0.737  0.00  0.00    +0.033 A 
ATOM      9  C   UNL     1       9.129  -2.429   1.404  0.00  0.00    +0.128 A 
ATOM     10  C   UNL     1       8.629  -3.216   2.426  0.00  0.00    +0.053 A 
ATOM     11  C   UNL     1       7.300  -3.115   2.791  0.00  0.00    +0.055 A 
ATOM     12 CL   UNL     1       6.675  -4.098   4.079  0.00  0.00    -0.083 Cl
BRANCH   9  13
ATOM     13  N   UNL     1      10.555  -2.538   1.022  0.00  0.00    +0.056 N 
ATOM     14  O   UNL     1      10.995  -1.852   0.129  0.00  0.00    -0.126 OA
ATOM     15  O   UNL     1      11.279  -3.311   1.603  0.00  0.00    -0.126 OA
ENDBRANCH   9  13
ENDBRANCH   3   6
ENDBRANCH   1   2
BRANCH   1  16
ATOM     16  C   UNL     1       2.674  -0.170   3.389  0.00  0.00    +0.014 C 
ATOM     17  C   UNL     1       3.078   1.232   2.929  0.00  0.00    +0.009 C 
ATOM     18  C   UNL     1       1.219  -0.152   3.864  0.00  0.00    +0.009 C 
ENDBRANCH   1  16
BRANCH   1  19
ATOM     19  C   UNL     1       2.019  -0.651   1.046  0.00  0.00    +0.329 C 
ATOM     20  O   UNL     1       2.572  -0.410  -0.001  0.00  0.00    -0.249 OA
BRANCH  19  21
ATOM     21  O   UNL     1       0.693  -0.474   1.160  0.00  0.00    -0.451 OA
BRANCH  21  23
ATOM     22  C   UNL     1      -0.029   1.532   0.021  0.00  0.00    +0.062 C 
ATOM     23  C   UNL     1       0.000   0.002   0.005  0.00  0.00    +0.259 C 
BRANCH  23  24
ATOM     24  C   UNL     1      -1.411  -0.527   0.012  0.00  0.00    +0.258 C 
ATOM     25  O   UNL     1      -1.815  -1.166   0.961  0.00  0.00    -0.271 OA
ATOM     26  N   UNL     1      -2.225  -0.290  -1.036  0.00  0.00    -0.282 N 
ATOM     27  H   UNL     1      -1.925   0.276  -1.764  0.00  0.00    +0.155 HD
BRANCH  26  28
ATOM     28  C   UNL     1      -3.501  -0.862  -1.074  0.00  0.00    +0.036 A 
ATOM     29  C   UNL     1      -4.044  -1.273  -2.284  0.00  0.00    +0.023 A 
ATOM     30  C   UNL     1      -5.304  -1.838  -2.320  0.00  0.00    +0.005 A 
ATOM     31  C   UNL     1      -6.027  -1.994  -1.151  0.00  0.00    +0.038 A 
ATOM     32  C   UNL     1      -5.489  -1.585   0.058  0.00  0.00    +0.125 A 
ATOM     33  C   UNL     1      -4.225  -1.024   0.099  0.00  0.00    +0.061 A 
ATOM     34  F   UNL     1      -6.198  -1.738   1.198  0.00  0.00    -0.205 F 
ENDBRANCH  26  28
ENDBRANCH  23  24
ENDBRANCH  21  23
ENDBRANCH  19  21
ENDBRANCH   1  19
TORSDOF 9
