REMARK  Name = ZINC23245479
REMARK  9 active torsions:
REMARK  status: ('A' for Active; 'I' for Inactive)
REMARK    1  A    between atoms: C_1  and  C_2
REMARK    2  A    between atoms: C_3  and  C_16
REMARK    3  A    between atoms: C_4  and  C_15
REMARK    4  A    between atoms: N_5  and  C_7
REMARK    5  A    between atoms: C_7  and  C_8
REMARK    6  A    between atoms: C_16  and  N_17
REMARK    7  A    between atoms: N_17  and  C_18
REMARK    8  A    between atoms: N_17  and  C_19
REMARK    9  A    between atoms: C_19  and  N_20
REMARK                            x       y       z     vdW  Elec       q    Type
REMARK                         _______ _______ _______ _____ _____    ______ ____
ROOT
ATOM      1  C   UNL     1       0.431   5.147   4.720  0.00  0.00    +0.124 C 
ENDROOT
BRANCH   1   4
ATOM      2  C   UNL     1       3.543   5.189   4.123  0.00  0.00    +0.068 C 
ATOM      3  C   UNL     1       2.463   4.773   3.158  0.00  0.00    +0.065 A 
ATOM      4  C   UNL     1       1.090   4.755   3.423  0.00  0.00    +0.010 A 
ATOM      5  C   UNL     1       0.456   4.329   2.305  0.00  0.00    +0.041 A 
ATOM      6  N   UNL     1       1.396   4.077   1.370  0.00  0.00    -0.264 N 
ATOM      7  N   UNL     1       2.648   4.367   1.928  0.00  0.00    -0.176 NA
ATOM      8  C   UNL     1      -1.032   4.163   2.136  0.00  0.00    +0.065 C 
BRANCH   6   9
ATOM      9  C   UNL     1       1.150   3.592   0.010  0.00  0.00    +0.180 C 
BRANCH   9  10
ATOM     10  C   UNL     1       1.171   2.086   0.002  0.00  0.00    -0.008 A 
ATOM     11  C   UNL     1      -0.017   1.378   0.010  0.00  0.00    +0.007 A 
ATOM     12  C   UNL     1       0.002  -0.004   0.002  0.00  0.00    +0.000 A 
ATOM     13  C   UNL     1       1.208  -0.680  -0.013  0.00  0.00    +0.001 A 
ATOM     14  C   UNL     1       2.396   0.027  -0.021  0.00  0.00    +0.020 A 
ATOM     15  C   UNL     1       2.378   1.410  -0.013  0.00  0.00    +0.046 A 
ATOM     16 CL   UNL     1       3.870   2.298  -0.023  0.00  0.00    -0.083 Cl
ENDBRANCH   9  10
ENDBRANCH   6   9
ENDBRANCH   1   4
BRANCH   1  17
ATOM     17  N   UNL     1       0.115   6.582   4.695  0.00  0.00    -0.285 NA
ATOM     18  C   UNL     1       1.341   7.391   4.667  0.00  0.00    +0.106 C 
BRANCH  17  19
ATOM     19  C   UNL     1      -0.735   6.953   5.834  0.00  0.00    +0.205 C 
BRANCH  19  20
ATOM     20  N   UNL     1      -1.504   8.154   5.498  0.00  0.00    -0.211 N 
ATOM     21  C   UNL     1      -2.723   8.136   4.920  0.00  0.00    +0.248 C 
ATOM     22  O   UNL     1      -3.366   7.162   4.593  0.00  0.00    -0.273 OA
ATOM     23  C   UNL     1      -3.118   9.587   4.767  0.00  0.00    +0.113 C 
ATOM     24  C   UNL     1      -4.386   9.879   5.562  0.00  0.00    +0.035 C 
ATOM     25  C   UNL     1      -4.754  11.358   5.418  0.00  0.00    +0.003 C 
ATOM     26  C   UNL     1      -4.972  11.686   3.939  0.00  0.00    +0.000 C 
ATOM     27  C   UNL     1      -3.684  11.411   3.159  0.00  0.00    +0.003 C 
ATOM     28  C   UNL     1      -3.312   9.933   3.295  0.00  0.00    +0.035 C 
ATOM     29  N   UNL     1      -1.979  10.328   5.324  0.00  0.00    -0.285 N 
ATOM     30  C   UNL     1      -1.087   9.405   5.731  0.00  0.00    +0.310 C 
ATOM     31  O   UNL     1      -0.022   9.676   6.250  0.00  0.00    -0.252 OA
ATOM     32  H   UNL     1      -1.992  11.428   5.339  0.00  0.00    +0.151 HD
ENDBRANCH  19  20
ENDBRANCH  17  19
ENDBRANCH   1  17
TORSDOF 6
