REMARK  Name = ZINC65470173
REMARK  10 active torsions:
REMARK  status: ('A' for Active; 'I' for Inactive)
REMARK    1  A    between atoms: C_1  and  C_2
REMARK    2  A    between atoms: C_2  and  C_3
REMARK    3  A    between atoms: C_2  and  N_12
REMARK    4  A    between atoms: C_7  and  N_9
REMARK    5  A    between atoms: N_15  and  C_16
REMARK    6  A    between atoms: C_20  and  N_22
REMARK    7  A    between atoms: C_23  and  C_25
REMARK    8  A    between atoms: C_25  and  C_26
REMARK    9  A    between atoms: C_25  and  O_27
REMARK   10  A    between atoms: O_27  and  C_28
REMARK                            x       y       z     vdW  Elec       q    Type
REMARK                         _______ _______ _______ _____ _____    ______ ____
ROOT
ATOM      1  N   UNL     1       0.574  -1.726  -3.049  0.00  0.00    -0.293 N 
ATOM      2  C   UNL     1       1.917  -1.841  -3.061  0.00  0.00    +0.304 C 
ATOM      3  O   UNL     1       2.449  -2.693  -3.746  0.00  0.00    -0.252 OA
ATOM      4  N   UNL     1       2.671  -1.011  -2.312  0.00  0.00    -0.269 N 
ATOM      5  H   UNL     1       0.150  -1.046  -2.502  0.00  0.00    +0.151 HD
ATOM      6  H   UNL     1       2.252  -0.289  -1.818  0.00  0.00    +0.156 HD
ENDROOT
BRANCH   4   7
ATOM      7  C   UNL     1       4.057  -1.192  -2.248  0.00  0.00    +0.037 A 
ATOM      8  C   UNL     1       4.738  -0.933  -1.065  0.00  0.00    +0.023 A 
ATOM      9  C   UNL     1       6.107  -1.111  -1.001  0.00  0.00    +0.004 A 
ATOM     10  C   UNL     1       6.803  -1.546  -2.113  0.00  0.00    +0.023 A 
ATOM     11  C   UNL     1       6.127  -1.806  -3.299  0.00  0.00    +0.035 A 
ATOM     12  C   UNL     1       4.752  -1.634  -3.364  0.00  0.00    +0.046 A 
BRANCH  11  13
ATOM     13  N   UNL     1       6.833  -2.246  -4.424  0.00  0.00    -0.283 N 
ATOM     14  C   UNL     1       7.896  -3.061  -4.277  0.00  0.00    +0.246 C 
ATOM     15  O   UNL     1       8.292  -3.346  -3.167  0.00  0.00    -0.273 OA
ATOM     16  H   UNL     1       6.557  -1.964  -5.310  0.00  0.00    +0.155 HD
BRANCH  14  17
ATOM     17  C   UNL     1       8.592  -3.618  -5.492  0.00  0.00    +0.200 C 
ATOM     18  C   UNL     1       9.232  -2.475  -6.282  0.00  0.00    +0.048 C 
BRANCH  17  19
ATOM     19  O   UNL     1       9.605  -4.539  -5.080  0.00  0.00    -0.371 OA
ATOM     20  C   UNL     1       9.854  -5.587  -6.019  0.00  0.00    +0.195 C 
ENDBRANCH  17  19
ENDBRANCH  14  17
ENDBRANCH  11  13
ENDBRANCH   4   7
BRANCH   1  22
ATOM     21  C   UNL     1      -0.496  -3.924  -3.091  0.00  0.00    +0.033 C 
ATOM     22  C   UNL     1      -0.245  -2.627  -3.863  0.00  0.00    +0.102 C 
BRANCH  22  23
ATOM     23  C   UNL     1      -1.562  -1.965  -4.175  0.00  0.00    -0.025 A 
ATOM     24  C   UNL     1      -2.206  -1.218  -3.207  0.00  0.00    +0.005 A 
ATOM     25  C   UNL     1      -3.415  -0.610  -3.493  0.00  0.00    +0.003 A 
ATOM     26  C   UNL     1      -3.979  -0.750  -4.747  0.00  0.00    +0.033 A 
ATOM     27  C   UNL     1      -3.334  -1.497  -5.715  0.00  0.00    +0.127 A 
ATOM     28  C   UNL     1      -2.124  -2.101  -5.430  0.00  0.00    +0.038 A 
BRANCH  27  29
ATOM     29  N   UNL     1      -3.939  -1.647  -7.058  0.00  0.00    +0.056 N 
ATOM     30  O   UNL     1      -4.996  -1.117  -7.308  0.00  0.00    -0.126 OA
ATOM     31  O   UNL     1      -3.375  -2.301  -7.905  0.00  0.00    -0.126 OA
ENDBRANCH  27  29
ENDBRANCH  22  23
ENDBRANCH   1  22
TORSDOF 7
