REMARK  Name = ZINC51326021
REMARK  5 active torsions:
REMARK  status: ('A' for Active; 'I' for Inactive)
REMARK    1  A    between atoms: N_11  and  C_12
REMARK    2  A    between atoms: C_12  and  C_13
REMARK    3  A    between atoms: C_13  and  C_15
REMARK    4  A    between atoms: C_13  and  O_22
REMARK    5  A    between atoms: C_19  and  N_21
REMARK                            x       y       z     vdW  Elec       q    Type
REMARK                         _______ _______ _______ _____ _____    ______ ____
ROOT
ATOM      1  C   UNL     1       4.819  -0.084  -0.642  0.00  0.00    +0.141 C 
ENDROOT
BRANCH   1  12
ATOM      2  C   UNL     1      -0.017   1.379   0.010  0.00  0.00    +0.002 A 
ATOM      3  C   UNL     1       1.167   2.094   0.002  0.00  0.00    +0.002 A 
ATOM      4  C   UNL     1       2.381   1.430  -0.011  0.00  0.00    +0.025 A 
ATOM      5  C   UNL     1       2.406   0.047  -0.017  0.00  0.00    +0.052 A 
ATOM      6  C   UNL     1       1.213  -0.677  -0.014  0.00  0.00    +0.055 A 
ATOM      7  C   UNL     1       0.002  -0.004   0.002  0.00  0.00    +0.025 A 
ATOM      8  N   UNL     1       1.254  -2.077  -0.032  0.00  0.00    -0.283 N 
ATOM      9  C   UNL     1       2.399  -2.734   0.233  0.00  0.00    +0.235 C 
ATOM     10  O   UNL     1       2.423  -3.945   0.170  0.00  0.00    -0.274 OA
ATOM     11  C   UNL     1       3.651  -1.982   0.608  0.00  0.00    +0.201 C 
ATOM     12  N   UNL     1       3.620  -0.655  -0.024  0.00  0.00    -0.317 N 
ATOM     13  H   UNL     1       0.449  -2.578  -0.238  0.00  0.00    +0.155 HD
ENDBRANCH   1  12
BRANCH   1  14
ATOM     14  C   UNL     1       5.596   0.723   0.402  0.00  0.00    +0.162 C 
BRANCH  14  15
ATOM     15  C   UNL     1       6.762   1.410  -0.260  0.00  0.00    -0.016 A 
ATOM     16  C   UNL     1       7.918   0.702  -0.531  0.00  0.00    +0.006 A 
ATOM     17  C   UNL     1       8.991   1.329  -1.138  0.00  0.00    +0.002 A 
ATOM     18  C   UNL     1       8.910   2.666  -1.476  0.00  0.00    +0.023 A 
ATOM     19  C   UNL     1       7.750   3.380  -1.206  0.00  0.00    +0.025 A 
ATOM     20  C   UNL     1       6.672   2.745  -0.601  0.00  0.00    +0.029 A 
BRANCH  19  21
ATOM     21  N   UNL     1       7.665   4.732  -1.548  0.00  0.00    -0.358 N 
ATOM     22  H   UNL     1       8.416   5.173  -1.973  0.00  0.00    +0.142 HD
ATOM     23  H   UNL     1       6.854   5.229  -1.358  0.00  0.00    +0.142 HD
ENDBRANCH  19  21
ENDBRANCH  14  15
BRANCH  14  24
ATOM     24  O   UNL     1       6.077  -0.156   1.421  0.00  0.00    -0.386 OA
ATOM     25  H   UNL     1       6.669  -0.848   1.097  0.00  0.00    +0.210 HD
ENDBRANCH  14  24
ENDBRANCH   1  14
TORSDOF 5
