REMARK  Name = ZINC67565899
REMARK  5 active torsions:
REMARK  status: ('A' for Active; 'I' for Inactive)
REMARK    1  A    between atoms: C_1  and  C_2
REMARK    2  A    between atoms: C_7  and  C_10
REMARK    3  A    between atoms: N_18  and  C_19
REMARK    4  A    between atoms: C_24  and  C_25
REMARK    5  A    between atoms: C_25  and  C_26
REMARK                            x       y       z     vdW  Elec       q    Type
REMARK                         _______ _______ _______ _____ _____    ______ ____
ROOT
ATOM      1  C   UNL     1      -0.283   1.008  -0.520  0.00  0.00    +0.039 C 
ATOM      2  C   UNL     1      -0.025  -0.493  -0.371  0.00  0.00    +0.133 C 
ATOM      3  C   UNL     1       0.914  -0.965  -1.487  0.00  0.00    +0.140 C 
ATOM      4  N   UNL     1       2.239  -0.362  -1.265  0.00  0.00    -0.280 N 
ATOM      5  C   UNL     1       2.841  -0.488   0.072  0.00  0.00    +0.145 C 
ATOM      6  C   UNL     1       1.808  -0.039   1.112  0.00  0.00    +0.166 C 
ATOM      7  O   UNL     1       0.584  -0.748   0.897  0.00  0.00    -0.366 OA
ATOM      8  C   UNL     1       2.881   0.286  -2.257  0.00  0.00    +0.307 C 
ATOM      9  O   UNL     1       2.410   0.301  -3.378  0.00  0.00    -0.252 OA
ATOM     10  N   UNL     1       4.044   0.918  -2.006  0.00  0.00    -0.269 N 
ATOM     11  H   UNL     1       4.454   0.850  -1.130  0.00  0.00    +0.156 HD
ENDROOT
BRANCH   6  12
ATOM     12  C   UNL     1       2.326  -0.335   2.496  0.00  0.00    -0.017 A 
ATOM     13  C   UNL     1       2.240  -1.617   3.007  0.00  0.00    +0.006 A 
ATOM     14  C   UNL     1       2.715  -1.888   4.276  0.00  0.00    +0.000 A 
ATOM     15  C   UNL     1       3.277  -0.878   5.034  0.00  0.00    +0.000 A 
ATOM     16  C   UNL     1       3.364   0.404   4.523  0.00  0.00    +0.000 A 
ATOM     17  C   UNL     1       2.892   0.674   3.252  0.00  0.00    +0.006 A 
ENDBRANCH   6  12
BRANCH  10  18
ATOM     18  C   UNL     1       4.662   1.672  -3.011  0.00  0.00    +0.038 A 
ATOM     19  C   UNL     1       3.932   2.087  -4.117  0.00  0.00    +0.023 A 
ATOM     20  C   UNL     1       4.544   2.832  -5.107  0.00  0.00    +0.002 A 
ATOM     21  C   UNL     1       5.882   3.163  -4.997  0.00  0.00    +0.000 A 
ATOM     22  C   UNL     1       6.611   2.751  -3.897  0.00  0.00    +0.006 A 
ATOM     23  C   UNL     1       6.004   2.011  -2.901  0.00  0.00    -0.017 A 
BRANCH  23  24
ATOM     24  C   UNL     1       6.798   1.568  -1.700  0.00  0.00    +0.132 C 
BRANCH  24  25
ATOM     25  C   UNL     1       7.319   0.172  -1.929  0.00  0.00    +0.215 C 
ATOM     26  O   UNL     1       7.069  -0.405  -2.966  0.00  0.00    -0.276 OA
ATOM     27  N   UNL     1       8.061  -0.434  -0.982  0.00  0.00    -0.329 N 
ATOM     28  H   UNL     1       8.261   0.028  -0.152  0.00  0.00    +0.145 HD
ATOM     29  H   UNL     1       8.396  -1.332  -1.129  0.00  0.00    +0.145 HD
ENDBRANCH  24  25
ENDBRANCH  23  24
ENDBRANCH  10  18
TORSDOF 4
