REMARK  Name = ZINC67214285
REMARK  13 active torsions:
REMARK  status: ('A' for Active; 'I' for Inactive)
REMARK    1  A    between atoms: C_1  and  C_2
REMARK    2  A    between atoms: C_4  and  C_20
REMARK    3  A    between atoms: C_7  and  N_8
REMARK    4  A    between atoms: C_9  and  C_11
REMARK    5  A    between atoms: C_11  and  N_12
REMARK    6  A    between atoms: C_13  and  O_15
REMARK    7  A    between atoms: O_15  and  C_16
REMARK    8  A    between atoms: C_16  and  C_17
REMARK    9  A    between atoms: C_16  and  C_18
REMARK   10  A    between atoms: C_16  and  C_19
REMARK   11  A    between atoms: N_22  and  C_23
REMARK   12  A    between atoms: C_23  and  C_24
REMARK   13  A    between atoms: C_23  and  C_25
REMARK                            x       y       z     vdW  Elec       q    Type
REMARK                         _______ _______ _______ _____ _____    ______ ____
ROOT
ATOM      1  C   UNL     1      -0.013   1.493   0.004  0.00  0.00    +0.045 C 
ATOM      2  C   UNL     1       0.013  -0.014   0.002  0.00  0.00    -0.029 A 
ATOM      3  C   UNL     1       0.025  -0.699  -1.192  0.00  0.00    +0.018 A 
ATOM      4  C   UNL     1       0.049  -2.096  -1.193  0.00  0.00    +0.037 A 
ATOM      5  C   UNL     1       0.061  -2.793   0.018  0.00  0.00    +0.015 A 
ATOM      6  C   UNL     1       0.049  -2.101   1.208  0.00  0.00    +0.024 A 
ATOM      7  C   UNL     1       0.031  -0.710   1.206  0.00  0.00    +0.036 A 
ENDROOT
BRANCH   7   8
ATOM      8  N   UNL     1       0.025  -0.012   2.413  0.00  0.00    -0.284 N 
ATOM      9  C   UNL     1      -0.632  -0.513   3.478  0.00  0.00    +0.234 C 
ATOM     10  O   UNL     1      -1.149  -1.609   3.411  0.00  0.00    -0.274 OA
ATOM     11  H   UNL     1       0.494   0.834   2.487  0.00  0.00    +0.155 HD
BRANCH   9  12
ATOM     12  C   UNL     1      -0.725   0.287   4.751  0.00  0.00    +0.203 C 
BRANCH  12  13
ATOM     13  N   UNL     1      -1.484  -0.470   5.750  0.00  0.00    -0.273 N 
ATOM     14  C   UNL     1      -1.696   0.053   6.974  0.00  0.00    +0.401 C 
ATOM     15  O   UNL     1      -1.258   1.152   7.249  0.00  0.00    -0.226 OA
ATOM     16  H   UNL     1      -1.834  -1.347   5.530  0.00  0.00    +0.153 HD
BRANCH  14  17
ATOM     17  O   UNL     1      -2.393  -0.643   7.892  0.00  0.00    -0.445 OA
BRANCH  17  18
ATOM     18  C   UNL     1      -2.579  -0.028   9.168  0.00  0.00    +0.107 C 
ATOM     19  C   UNL     1      -3.333   1.292   8.993  0.00  0.00    +0.055 C 
ATOM     20  C   UNL     1      -3.388  -0.962  10.071  0.00  0.00    +0.055 C 
ATOM     21  C   UNL     1      -1.216   0.244   9.807  0.00  0.00    +0.055 C 
ENDBRANCH  17  18
ENDBRANCH  14  17
ENDBRANCH  12  13
ENDBRANCH   9  12
ENDBRANCH   7   8
BRANCH   4  22
ATOM     22  C   UNL     1       0.061  -2.835  -2.471  0.00  0.00    +0.244 C 
ATOM     23  O   UNL     1       0.050  -2.228  -3.524  0.00  0.00    -0.270 OA
ATOM     24  N   UNL     1       0.084  -4.182  -2.470  0.00  0.00    -0.309 N 
ATOM     25  H   UNL     1       0.092  -4.667  -1.630  0.00  0.00    +0.149 HD
BRANCH  24  26
ATOM     26  C   UNL     1       0.096  -4.915  -3.739  0.00  0.00    +0.067 C 
ATOM     27  C   UNL     1       1.535  -5.037  -4.244  0.00  0.00    +0.027 C 
ATOM     28  C   UNL     1      -0.490  -6.313  -3.526  0.00  0.00    +0.027 C 
ENDBRANCH  24  26
ENDBRANCH   4  22
TORSDOF 7
