REMARK  Name = ZINC12293324
REMARK  5 active torsions:
REMARK  status: ('A' for Active; 'I' for Inactive)
REMARK    1  A    between atoms: C_4  and  C_7
REMARK    2  A    between atoms: C_7  and  C_9
REMARK    3  A    between atoms: C_7  and  O_27
REMARK    4  A    between atoms: C_9  and  N_50
REMARK    5  A    between atoms: C_16  and  O_26
REMARK                            x       y       z     vdW  Elec       q    Type
REMARK                         _______ _______ _______ _____ _____    ______ ____
ROOT
ATOM      1  C   UNL     1      -1.167  -2.516  -0.567  0.00  0.00    -0.075 C 
ATOM      2  C   UNL     1      -1.103  -4.045  -0.586  0.00  0.00    +0.029 C 
ATOM      3  C   UNL     1      -1.414  -4.547  -1.998  0.00  0.00    +0.110 C 
ATOM      4  C   UNL     1      -0.427  -3.926  -2.987  0.00  0.00    +0.029 C 
ATOM      5  C   UNL     1      -0.511  -2.401  -2.897  0.00  0.00    -0.075 C 
ATOM      6  C   UNL     1      -1.289  -6.073  -2.036  0.00  0.00    +0.084 C 
ATOM      7  C   UNL     1      -1.505  -6.539  -3.478  0.00  0.00    +0.152 C 
ATOM      8  C   UNL     1      -2.742  -5.888  -4.042  0.00  0.00    +0.024 A 
ATOM      9  C   UNL     1      -3.332  -6.439  -5.167  0.00  0.00    +0.029 A 
ATOM     10  C   UNL     1      -4.461  -5.862  -5.717  0.00  0.00    +0.042 A 
ATOM     11  C   UNL     1      -5.007  -4.729  -5.141  0.00  0.00    +0.023 A 
ATOM     12  C   UNL     1      -4.425  -4.177  -4.019  0.00  0.00    +0.047 A 
ATOM     13  C   UNL     1      -3.289  -4.757  -3.462  0.00  0.00    +0.127 A 
ATOM     14  O   UNL     1      -2.748  -4.187  -2.354  0.00  0.00    -0.485 OA
ATOM     15 CL   UNL     1      -5.194  -6.559  -7.128  0.00  0.00    -0.084 Cl
ATOM     16  N   UNL     1      -0.171  -1.983  -1.521  0.00  0.00    +0.382 N 
ATOM     17  H   UNL     1       0.755  -2.356  -1.279  0.00  0.00    -0.082 HD
ENDROOT
BRANCH   7  18
ATOM     18  O   UNL     1      -1.663  -7.959  -3.501  0.00  0.00    -0.387 OA
ATOM     19  H   UNL     1      -1.801  -8.326  -4.385  0.00  0.00    +0.210 HD
ENDBRANCH   7  18
BRANCH  16  20
ATOM     20  C   UNL     1      -0.130  -0.508  -1.437  0.00  0.00    -0.042 C 
BRANCH  20  21
ATOM     21  C   UNL     1       1.058  -0.000  -2.255  0.00  0.00    +0.128 C 
BRANCH  21  25
ATOM     22  C   UNL     1       1.281   4.255  -1.953  0.00  0.00    +0.000 A 
ATOM     23  C   UNL     1       0.625   3.671  -3.021  0.00  0.00    +0.000 A 
ATOM     24  C   UNL     1       0.553   2.294  -3.119  0.00  0.00    +0.006 A 
ATOM     25  C   UNL     1       1.137   1.501  -2.149  0.00  0.00    -0.021 A 
ATOM     26  C   UNL     1       1.788   2.085  -1.078  0.00  0.00    +0.006 A 
ATOM     27  C   UNL     1       1.864   3.462  -0.983  0.00  0.00    +0.000 A 
ENDBRANCH  21  25
BRANCH  21  28
ATOM     28  O   UNL     1       2.265  -0.577  -1.752  0.00  0.00    -0.389 OA
ATOM     29  H   UNL     1       2.445  -0.366  -0.825  0.00  0.00    +0.210 HD
ENDBRANCH  21  28
ENDBRANCH  20  21
ENDBRANCH  16  20
TORSDOF 5
