REMARK  Name = ZINC06685200
REMARK  6 active torsions:
REMARK  status: ('A' for Active; 'I' for Inactive)
REMARK    1  A    between atoms: C_1  and  C_2
REMARK    2  A    between atoms: C_5  and  C_8
REMARK    3  A    between atoms: N_12  and  N_13
REMARK    4  A    between atoms: C_14  and  C_15
REMARK    5  A    between atoms: C_19  and  O_22
REMARK    6  A    between atoms: C_20  and  O_21
REMARK                            x       y       z     vdW  Elec       q    Type
REMARK                         _______ _______ _______ _____ _____    ______ ____
ROOT
ATOM      1  C   UNL     1       0.298  -4.270  -0.014  0.00  0.00    +0.184 A 
ATOM      2  N   UNL     1       0.251  -5.022  -1.078  0.00  0.00    -0.152 NA
ATOM      3  N   UNL     1       0.005  -6.339  -0.668  0.00  0.00    -0.253 N 
ATOM      4  C   UNL     1      -0.091  -6.335   0.678  0.00  0.00    +0.197 A 
ATOM      5  N   UNL     1       0.093  -5.067   1.096  0.00  0.00    -0.188 N 
ATOM      6  S   UNL     1      -0.387  -7.695   1.674  0.00  0.00    -0.010 S 
ATOM      7  H   UNL     1      -0.082  -7.113  -1.246  0.00  0.00    +0.191 HD
ENDROOT
BRANCH   1  12
ATOM      8  C   UNL     1       1.230   1.410   0.050  0.00  0.00    +0.044 C 
ATOM      9  C   UNL     1       0.986  -0.077   0.033  0.00  0.00    -0.050 A 
ATOM     10  C   UNL     1       0.955  -0.757  -1.172  0.00  0.00    +0.004 A 
ATOM     11  C   UNL     1       0.732  -2.118  -1.194  0.00  0.00    +0.012 A 
ATOM     12  C   UNL     1       0.538  -2.810   0.003  0.00  0.00    +0.021 A 
ATOM     13  C   UNL     1       0.571  -2.119   1.214  0.00  0.00    +0.012 A 
ATOM     14  C   UNL     1       0.800  -0.758   1.223  0.00  0.00    +0.004 A 
ENDBRANCH   1  12
BRANCH   5  15
ATOM     15  N   UNL     1       0.076  -4.631   2.428  0.00  0.00    -0.170 NA
ATOM     16  C   UNL     1      -0.006  -5.496   3.393  0.00  0.00    +0.145 C 
BRANCH  16  17
ATOM     17  C   UNL     1      -0.117  -5.035   4.788  0.00  0.00    +0.040 A 
ATOM     18  C   UNL     1      -0.200  -5.963   5.830  0.00  0.00    +0.013 A 
ATOM     19  C   UNL     1      -0.303  -5.527   7.134  0.00  0.00    +0.004 A 
ATOM     20  C   UNL     1      -0.325  -4.172   7.418  0.00  0.00    +0.049 A 
ATOM     21  C   UNL     1      -0.245  -3.241   6.396  0.00  0.00    +0.159 A 
ATOM     22  C   UNL     1      -0.135  -3.665   5.077  0.00  0.00    +0.167 A 
BRANCH  22  23
ATOM     23  O   UNL     1      -0.050  -2.754   4.072  0.00  0.00    -0.503 OA
ATOM     24  H   UNL     1      -0.905  -2.487   3.709  0.00  0.00    +0.292 HD
ENDBRANCH  22  23
BRANCH  21  25
ATOM     25  O   UNL     1      -0.269  -1.912   6.683  0.00  0.00    -0.503 OA
ATOM     26  H   UNL     1       0.605  -1.527   6.836  0.00  0.00    +0.292 HD
ENDBRANCH  21  25
ENDBRANCH  16  17
ENDBRANCH   5  15
TORSDOF 5
