REMARK  Name = ZINC09350611
REMARK  11 active torsions:
REMARK  status: ('A' for Active; 'I' for Inactive)
REMARK    1  A    between atoms: C_1  and  C_2
REMARK    2  A    between atoms: C_2  and  N_54
REMARK    3  A    between atoms: C_3  and  C_4
REMARK    4  A    between atoms: C_3  and  N_54
REMARK    5  A    between atoms: C_5  and  C_6
REMARK    6  A    between atoms: C_5  and  N_54
REMARK    7  A    between atoms: C_6  and  N_7
REMARK    8  A    between atoms: N_7  and  N_8
REMARK    9  A    between atoms: N_8  and  C_9
REMARK   10  A    between atoms: C_11  and  O_28
REMARK   11  A    between atoms: N_15  and  C_18
REMARK                            x       y       z     vdW  Elec       q    Type
REMARK                         _______ _______ _______ _____ _____    ______ ____
ROOT
ATOM      1  C   UNL     1       3.803  -4.948   2.252  0.00  0.00    +0.102 C 
ATOM      2  C   UNL     1       3.772  -4.180   1.098  0.00  0.00    +0.111 C 
ATOM      3  C   UNL     1       3.809  -4.796  -0.235  0.00  0.00    +0.219 C 
ATOM      4  N   UNL     1       3.777  -4.007  -1.296  0.00  0.00    -0.127 NA
ATOM      5  C   UNL     1       3.706  -2.683  -1.189  0.00  0.00    +0.340 C 
ATOM      6  O   UNL     1       3.675  -2.023  -2.213  0.00  0.00    -0.250 OA
ATOM      7  N   UNL     1       3.673  -2.035  -0.016  0.00  0.00    -0.188 N 
ATOM      8  C   UNL     1       3.699  -2.709   1.154  0.00  0.00    +0.265 C 
ATOM      9  O   UNL     1       3.665  -2.121   2.219  0.00  0.00    -0.269 OA
ENDROOT
BRANCH   7  10
ATOM     10  C   UNL     1       3.604  -0.638  -0.003  0.00  0.00    +0.053 A 
ATOM     11  C   UNL     1       4.757   0.115   0.010  0.00  0.00    +0.024 A 
ATOM     12  C   UNL     1       4.700   1.505   0.024  0.00  0.00    +0.002 A 
ATOM     13  C   UNL     1       3.506   2.159   0.023  0.00  0.00    +0.008 A 
ATOM     14  C   UNL     1       2.306   1.428   0.010  0.00  0.00    -0.016 A 
ATOM     15  C   UNL     1       2.352   0.012  -0.004  0.00  0.00    +0.004 A 
ATOM     16  C   UNL     1       1.152  -0.717  -0.018  0.00  0.00    +0.010 A 
ATOM     17  C   UNL     1      -0.038  -0.056  -0.019  0.00  0.00    +0.001 A 
ATOM     18  C   UNL     1      -0.085   1.337  -0.005  0.00  0.00    +0.001 A 
ATOM     19  C   UNL     1       1.058   2.076   0.009  0.00  0.00    +0.008 A 
ENDBRANCH   7  10
BRANCH   1  20
ATOM     20  N   UNL     1       3.735  -6.290   2.170  0.00  0.00    -0.287 N 
ATOM     21  H   UNL     1       3.740  -6.723   1.302  0.00  0.00    +0.166 HD
BRANCH  20  22
ATOM     22  N   UNL     1       3.661  -7.041   3.308  0.00  0.00    -0.245 NA
ATOM     23  H   UNL     1       4.435  -6.842   3.924  0.00  0.00    +0.144 HD
BRANCH  22  24
ATOM     24  C   UNL     1       3.596  -8.474   2.990  0.00  0.00    +0.083 C 
BRANCH  24  25
ATOM     25  C   UNL     1       3.514  -9.281   4.287  0.00  0.00    -0.062 C 
BRANCH  25  26
ATOM     26  N   UNL     1       3.429 -10.718   3.950  0.00  0.00    +0.380 N 
ATOM     27  H   UNL     1       2.671 -10.856   3.271  0.00  0.00    -0.082 HD
BRANCH  26  29
ATOM     28  C   UNL     1       5.845 -11.046   4.358  0.00  0.00    -0.017 C 
ATOM     29  C   UNL     1       4.701 -11.173   3.350  0.00  0.00    -0.082 C 
ENDBRANCH  26  29
BRANCH  26  30
ATOM     30  C   UNL     1       3.133 -11.505   5.165  0.00  0.00    -0.082 C 
ATOM     31  C   UNL     1       2.708 -12.914   4.747  0.00  0.00    -0.017 C 
ENDBRANCH  26  30
ENDBRANCH  25  26
ENDBRANCH  24  25
ENDBRANCH  22  24
ENDBRANCH  20  22
ENDBRANCH   1  20
BRANCH   3  32
ATOM     32  O   UNL     1       3.876  -6.137  -0.374  0.00  0.00    -0.493 OA
ATOM     33  H   UNL     1       3.896  -6.437  -1.293  0.00  0.00    +0.294 HD
ENDBRANCH   3  32
TORSDOF 9
