REMARK  Name = ZINC04157541
REMARK  13 active torsions:
REMARK  status: ('A' for Active; 'I' for Inactive)
REMARK    1  A    between atoms: C_1  and  C_2
REMARK    2  A    between atoms: C_9  and  C_20
REMARK    3  A    between atoms: C_10  and  N_11
REMARK    4  A    between atoms: N_11  and  C_12
REMARK    5  A    between atoms: C_12  and  C_13
REMARK    6  A    between atoms: C_12  and  C_14
REMARK    7  A    between atoms: C_12  and  C_15
REMARK    8  A    between atoms: C_15  and  C_16
REMARK    9  A    between atoms: C_16  and  C_17
REMARK   10  A    between atoms: C_16  and  C_18
REMARK   11  A    between atoms: C_16  and  C_19
REMARK   12  A    between atoms: C_25  and  O_26
REMARK   13  A    between atoms: O_26  and  C_27
REMARK                            x       y       z     vdW  Elec       q    Type
REMARK                         _______ _______ _______ _____ _____    ______ ____
ROOT
ATOM      1  C   UNL     1      -1.610  -3.685  -4.373  0.00  0.00    +0.044 C 
ATOM      2  C   UNL     1      -1.056  -2.909  -3.207  0.00  0.00    -0.046 A 
ATOM      3  C   UNL     1      -1.317  -1.532  -3.087  0.00  0.00    +0.021 A 
ATOM      4  C   UNL     1      -0.824  -0.833  -2.046  0.00  0.00    +0.095 A 
ATOM      5  N   UNL     1      -0.062  -1.450  -1.091  0.00  0.00    -0.288 N 
ATOM      6  C   UNL     1       0.211  -2.796  -1.181  0.00  0.00    +0.140 A 
ATOM      7  C   UNL     1      -0.300  -3.537  -2.267  0.00  0.00    +0.050 A 
ATOM      8  N   UNL     1       0.959  -3.144  -0.146  0.00  0.00    -0.226 NA
ATOM      9  C   UNL     1       1.189  -2.062   0.619  0.00  0.00    +0.115 A 
ATOM     10  C   UNL     1       0.549  -0.986   0.042  0.00  0.00    +0.132 A 
ENDROOT
BRANCH   9  11
ATOM     11  C   UNL     1       1.989  -2.033   1.867  0.00  0.00    +0.045 A 
ATOM     12  C   UNL     1       2.147  -0.839   2.569  0.00  0.00    +0.014 A 
ATOM     13  C   UNL     1       2.893  -0.817   3.730  0.00  0.00    +0.001 A 
ATOM     14  C   UNL     1       3.485  -1.976   4.200  0.00  0.00    +0.004 A 
ATOM     15  C   UNL     1       3.334  -3.165   3.511  0.00  0.00    +0.046 A 
ATOM     16  C   UNL     1       2.584  -3.203   2.348  0.00  0.00    +0.129 A 
BRANCH  16  17
ATOM     17  O   UNL     1       2.431  -4.373   1.673  0.00  0.00    -0.494 OA
ATOM     18  C   UNL     1       3.067  -5.528   2.224  0.00  0.00    +0.277 C 
ENDBRANCH  16  17
ENDBRANCH   9  11
BRANCH  10  19
ATOM     19  N   UNL     1       0.531   0.326   0.519  0.00  0.00    -0.323 N 
ATOM     20  H   UNL     1       1.464   0.642   0.741  0.00  0.00    +0.148 HD
BRANCH  19  21
ATOM     21  C   UNL     1      -0.115   1.227  -0.444  0.00  0.00    +0.028 C 
ATOM     22  C   UNL     1       0.510   1.030  -1.827  0.00  0.00    +0.031 C 
ATOM     23  C   UNL     1      -1.611   0.914  -0.512  0.00  0.00    +0.031 C 
BRANCH  21  24
ATOM     24  C   UNL     1       0.082   2.677   0.003  0.00  0.00    +0.031 C 
BRANCH  24  25
ATOM     25  C   UNL     1      -0.736   3.605  -0.898  0.00  0.00    -0.036 C 
ATOM     26  C   UNL     1      -2.217   3.498  -0.529  0.00  0.00    +0.010 C 
ATOM     27  C   UNL     1      -0.266   5.048  -0.706  0.00  0.00    +0.010 C 
ATOM     28  C   UNL     1      -0.544   3.196  -2.360  0.00  0.00    +0.010 C 
ENDBRANCH  24  25
ENDBRANCH  21  24
ENDBRANCH  19  21
ENDBRANCH  10  19
TORSDOF 6
