REMARK  Name = ZINC37371586
REMARK  7 active torsions:
REMARK  status: ('A' for Active; 'I' for Inactive)
REMARK    1  A    between atoms: C_1  and  C_2
REMARK    2  A    between atoms: C_5  and  C_11
REMARK    3  A    between atoms: C_6  and  C_10
REMARK    4  A    between atoms: C_7  and  O_8
REMARK    5  A    between atoms: O_8  and  C_9
REMARK    6  A    between atoms: C_11  and  N_12
REMARK    7  A    between atoms: C_19  and  N_21
REMARK                            x       y       z     vdW  Elec       q    Type
REMARK                         _______ _______ _______ _____ _____    ______ ____
ROOT
ATOM      1  N   UNL     1       1.978  -4.370  -0.435  0.00  0.00    -0.341 N 
ATOM      2  C   UNL     1       2.686  -4.942   0.586  0.00  0.00    +0.087 A 
ATOM      3  C   UNL     1       3.984  -5.024   0.253  0.00  0.00    +0.027 A 
ATOM      4  C   UNL     1       4.119  -4.459  -1.091  0.00  0.00    +0.002 A 
ATOM      5  C   UNL     1       2.825  -4.067  -1.480  0.00  0.00    +0.050 A 
ATOM      6  C   UNL     1       2.630  -3.492  -2.732  0.00  0.00    +0.028 A 
ATOM      7  C   UNL     1       3.698  -3.313  -3.582  0.00  0.00    +0.025 A 
ATOM      8  C   UNL     1       4.981  -3.703  -3.201  0.00  0.00    +0.025 A 
ATOM      9  C   UNL     1       5.197  -4.269  -1.958  0.00  0.00    +0.032 A 
ENDROOT
BRANCH   8  10
ATOM     10  N   UNL     1       6.056  -3.513  -4.077  0.00  0.00    -0.358 N 
ATOM     11  H   UNL     1       5.908  -3.111  -4.947  0.00  0.00    +0.142 HD
ATOM     12  H   UNL     1       6.950  -3.784  -3.814  0.00  0.00    +0.142 HD
ENDBRANCH   8  10
BRANCH   1  13
ATOM     13  C   UNL     1       0.534  -4.121  -0.422  0.00  0.00    +0.177 C 
BRANCH  13  18
ATOM     14  C   UNL     1      -0.465   1.302   1.160  0.00  0.00    +0.049 C 
ATOM     15  C   UNL     1      -0.203  -0.133   0.782  0.00  0.00    +0.010 A 
ATOM     16  C   UNL     1      -0.078  -0.496  -0.543  0.00  0.00    +0.118 A 
ATOM     17  N   UNL     1       0.152  -1.751  -0.881  0.00  0.00    -0.257 NA
ATOM     18  C   UNL     1       0.272  -2.705   0.022  0.00  0.00    +0.067 A 
ATOM     19  C   UNL     1       0.161  -2.423   1.368  0.00  0.00    +0.014 A 
ATOM     20  C   UNL     1      -0.077  -1.110   1.767  0.00  0.00    +0.129 A 
ATOM     21  C   UNL     1       0.300  -3.519   2.392  0.00  0.00    +0.049 C 
BRANCH  20  22
ATOM     22  O   UNL     1      -0.188  -0.791   3.082  0.00  0.00    -0.494 OA
ATOM     23  C   UNL     1      -1.494  -0.855   3.657  0.00  0.00    +0.277 C 
ENDBRANCH  20  22
ENDBRANCH  13  18
ENDBRANCH   1  13
TORSDOF 4
