REMARK  Name = ZINC04721650
REMARK  7 active torsions:
REMARK  status: ('A' for Active; 'I' for Inactive)
REMARK    1  A    between atoms: C_1  and  C_2
REMARK    2  A    between atoms: C_2  and  C_3
REMARK    3  A    between atoms: C_2  and  C_4
REMARK    4  A    between atoms: C_2  and  C_5
REMARK    5  A    between atoms: C_12  and  N_25
REMARK    6  A    between atoms: C_13  and  C_23
REMARK    7  A    between atoms: C_14  and  C_16
REMARK                            x       y       z     vdW  Elec       q    Type
REMARK                         _______ _______ _______ _____ _____    ______ ____
ROOT
ATOM      1  C   UNL     1       0.912  -0.340  -1.939  0.00  0.00    +0.049 A 
ATOM      2  C   UNL     1       1.123  -1.665  -1.914  0.00  0.00    +0.050 A 
ATOM      3  C   UNL     1       1.994  -1.991  -2.977  0.00  0.00    +0.245 A 
ATOM      4  N   UNL     1       2.286  -0.892  -3.609  0.00  0.00    -0.135 NA
ATOM      5  N   UNL     1       1.613   0.167  -2.979  0.00  0.00    -0.277 N 
ATOM      6  H   UNL     1       1.647   1.100  -3.243  0.00  0.00    +0.189 HD
ATOM      7  O   UNL     1       2.399  -3.268  -3.211  0.00  0.00    -0.421 OA
ATOM      8  C   UNL     1       2.168  -4.179  -2.245  0.00  0.00    +0.201 C 
ATOM      9  C   UNL     1       1.349  -3.986  -1.191  0.00  0.00    +0.098 C 
ATOM     10  C   UNL     1       0.581  -2.707  -0.970  0.00  0.00    +0.101 C 
ENDROOT
BRANCH  10  11
ATOM     11  C   UNL     1      -0.882  -2.938  -1.252  0.00  0.00    -0.034 A 
ATOM     12  C   UNL     1      -1.312  -3.130  -2.552  0.00  0.00    +0.007 A 
ATOM     13  C   UNL     1      -2.653  -3.342  -2.812  0.00  0.00    +0.038 A 
ATOM     14  C   UNL     1      -3.565  -3.362  -1.771  0.00  0.00    +0.123 A 
ATOM     15  C   UNL     1      -3.133  -3.170  -0.470  0.00  0.00    +0.038 A 
ATOM     16  C   UNL     1      -1.791  -2.963  -0.211  0.00  0.00    +0.007 A 
ATOM     17  F   UNL     1      -4.876  -3.569  -2.024  0.00  0.00    -0.205 F 
ENDBRANCH  10  11
BRANCH   1  19
ATOM     18  C   UNL     1       0.201   1.938  -1.264  0.00  0.00    +0.017 C 
ATOM     19  C   UNL     1       0.047   0.441  -0.984  0.00  0.00    +0.004 C 
ATOM     20  C   UNL     1       0.476   0.144   0.454  0.00  0.00    +0.017 C 
ATOM     21  C   UNL     1      -1.416   0.035  -1.173  0.00  0.00    +0.017 C 
ENDBRANCH   1  19
BRANCH   8  22
ATOM     22  N   UNL     1       2.810  -5.388  -2.342  0.00  0.00    -0.328 N 
ATOM     23  H   UNL     1       3.407  -5.563  -3.087  0.00  0.00    +0.145 HD
ATOM     24  H   UNL     1       2.668  -6.069  -1.665  0.00  0.00    +0.145 HD
ENDBRANCH   8  22
BRANCH   9  25
ATOM     25  C   UNL     1       1.201  -5.044  -0.237  0.00  0.00    +0.101 C 
ATOM     26  N   UNL     1       1.085  -5.884   0.519  0.00  0.00    -0.191 NA
ENDBRANCH   9  25
TORSDOF 4
