REMARK  Name = ZINC67438102
REMARK  10 active torsions:
REMARK  status: ('A' for Active; 'I' for Inactive)
REMARK    1  A    between atoms: C_1  and  C_2
REMARK    2  A    between atoms: C_2  and  C_3
REMARK    3  A    between atoms: C_3  and  C_4
REMARK    4  A    between atoms: C_10  and  C_12
REMARK    5  A    between atoms: N_14  and  C_15
REMARK    6  A    between atoms: C_15  and  C_17
REMARK    7  A    between atoms: C_15  and  C_18
REMARK    8  A    between atoms: C_18  and  N_19
REMARK    9  A    between atoms: C_21  and  C_28
REMARK   10  A    between atoms: C_24  and  C_27
REMARK                            x       y       z     vdW  Elec       q    Type
REMARK                         _______ _______ _______ _____ _____    ______ ____
ROOT
ATOM      1  C   UNL     1       1.029  -8.377  -1.186  0.00  0.00    +0.299 C 
ATOM      2  O   UNL     1       2.055  -8.660  -0.603  0.00  0.00    -0.265 OA
ATOM      3  N   UNL     1       0.230  -9.356  -1.657  0.00  0.00    -0.307 N 
ATOM      4  H   UNL     1      -0.590  -9.130  -2.123  0.00  0.00    +0.149 HD
ENDROOT
BRANCH   1  11
ATOM      5  C   UNL     1       0.739  -2.004  -1.265  0.00  0.00    +0.104 A 
ATOM      6  N   UNL     1      -0.127  -2.861  -1.772  0.00  0.00    -0.145 NA
ATOM      7  N   UNL     1       0.039  -4.109  -1.694  0.00  0.00    -0.126 NA
ATOM      8  C   UNL     1       1.098  -4.637  -1.095  0.00  0.00    +0.188 A 
ATOM      9  S   UNL     1       1.949  -3.142  -0.597  0.00  0.00    -0.035 S 
ATOM     10  N   UNL     1       1.450  -5.968  -0.912  0.00  0.00    -0.255 N 
ATOM     11  C   UNL     1       0.651  -6.946  -1.383  0.00  0.00    +0.305 C 
ATOM     12  O   UNL     1      -0.375  -6.664  -1.967  0.00  0.00    -0.265 OA
ATOM     13  H   UNL     1       2.269  -6.193  -0.446  0.00  0.00    +0.157 HD
BRANCH   5  14
ATOM     14  C   UNL     1       0.718  -0.497  -1.257  0.00  0.00    +0.064 C 
BRANCH  14  16
ATOM     15  C   UNL     1      -0.019   1.526   0.010  0.00  0.00    +0.004 C 
ATOM     16  C   UNL     1       0.002  -0.004   0.002  0.00  0.00    +0.003 C 
ENDBRANCH  14  16
ENDBRANCH   5  14
ENDBRANCH   1  11
BRANCH   3  17
ATOM     17  C   UNL     1       0.601 -10.760  -1.464  0.00  0.00    +0.054 C 
ATOM     18  C   UNL     1       1.548 -11.196  -2.584  0.00  0.00    +0.026 C 
BRANCH  17  19
ATOM     19  C   UNL     1      -0.658 -11.629  -1.495  0.00  0.00    -0.057 C 
BRANCH  19  20
ATOM     20  N   UNL     1      -1.619 -11.134  -0.499  0.00  0.00    +0.381 N 
ATOM     21  C   UNL     1      -1.055 -11.300   0.846  0.00  0.00    -0.076 C 
ATOM     22  C   UNL     1      -2.016 -10.712   1.882  0.00  0.00    -0.031 C 
ATOM     23  C   UNL     1      -3.359 -11.443   1.796  0.00  0.00    +0.003 C 
ATOM     24  C   UNL     1      -3.902 -11.327   0.369  0.00  0.00    -0.031 C 
ATOM     25  C   UNL     1      -2.871 -11.892  -0.611  0.00  0.00    -0.076 C 
ATOM     26  C   UNL     1      -5.206 -12.119   0.252  0.00  0.00    +0.005 C 
ATOM     27  C   UNL     1      -2.225  -9.223   1.599  0.00  0.00    +0.005 C 
ATOM     28  H   UNL     1      -1.802 -10.156  -0.666  0.00  0.00    -0.082 HD
ENDBRANCH  19  20
ENDBRANCH  17  19
ENDBRANCH   3  17
TORSDOF 6
