REMARK  Name = ZINC19796882
REMARK  5 active torsions:
REMARK  status: ('A' for Active; 'I' for Inactive)
REMARK    1  A    between atoms: C_1  and  N_2
REMARK    2  A    between atoms: C_5  and  C_22
REMARK    3  A    between atoms: C_11  and  S_13
REMARK    4  A    between atoms: S_13  and  C_14
REMARK    5  A    between atoms: C_14  and  C_15
REMARK                            x       y       z     vdW  Elec       q    Type
REMARK                         _______ _______ _______ _____ _____    ______ ____
ROOT
ATOM      1  C   UNL     1      -7.992   0.616   1.718  0.00  0.00    +0.127 C 
ATOM      2  N   UNL     1      -7.755   1.909   1.071  0.00  0.00    -0.331 N 
ATOM      3  C   UNL     1      -6.481   2.436   1.029  0.00  0.00    +0.133 A 
ATOM      4  C   UNL     1      -6.250   3.732   0.520  0.00  0.00    +0.067 A 
ATOM      5  C   UNL     1      -7.291   4.550   0.032  0.00  0.00    +0.008 A 
ATOM      6  C   UNL     1      -6.960   5.824  -0.452  0.00  0.00    -0.017 A 
ATOM      7  C   UNL     1      -5.645   6.239  -0.436  0.00  0.00    +0.047 A 
ATOM      8  N   UNL     1      -4.685   5.448   0.025  0.00  0.00    -0.232 NA
ATOM      9  C   UNL     1      -4.925   4.229   0.498  0.00  0.00    +0.167 A 
ATOM     10  N   UNL     1      -3.942   3.443   0.961  0.00  0.00    -0.202 NA
ATOM     11  C   UNL     1      -4.210   2.237   1.427  0.00  0.00    +0.192 A 
ATOM     12  N   UNL     1      -5.441   1.735   1.460  0.00  0.00    -0.206 NA
ATOM     13  C   UNL     1      -5.229   7.603  -0.927  0.00  0.00    +0.056 C 
ATOM     14  C   UNL     1      -6.315   8.212  -1.810  0.00  0.00    +0.006 C 
ATOM     15  C   UNL     1      -7.648   8.144  -1.054  0.00  0.00    +0.005 C 
ATOM     16  C   UNL     1      -8.081   6.681  -0.976  0.00  0.00    +0.037 C 
ATOM     17  H   UNL     1      -8.593   2.460   0.619  0.00  0.00    +0.147 HD
ENDROOT
BRANCH   5  18
ATOM     18  C   UNL     1      -8.686   4.078   0.032  0.00  0.00    +0.020 A 
ATOM     19  C   UNL     1      -9.397   3.480  -0.979  0.00  0.00    +0.016 A 
ATOM     20  C   UNL     1     -10.702   3.119  -0.745  0.00  0.00    +0.008 A 
ATOM     21  C   UNL     1     -11.252   3.373   0.473  0.00  0.00    +0.046 A 
ATOM     22  S   UNL     1      -9.897   4.143   1.343  0.00  0.00    -0.097 S 
ENDBRANCH   5  18
BRANCH  11  23
ATOM     23  S   UNL     1      -2.879   1.249   2.025  0.00  0.00    -0.077 S 
BRANCH  23  24
ATOM     24  C   UNL     1      -1.495   2.381   1.744  0.00  0.00    +0.172 C 
BRANCH  24  25
ATOM     25  C   UNL     1      -0.213   1.730   2.194  0.00  0.00    +0.221 C 
ATOM     26  O   UNL     1      -0.233   0.610   2.658  0.00  0.00    -0.275 OA
ATOM     27  N   UNL     1       0.956   2.389   2.075  0.00  0.00    -0.329 N 
ATOM     28  H   UNL     1       1.892   1.914   2.403  0.00  0.00    +0.145 HD
ATOM     29  H   UNL     1       0.974   3.404   1.649  0.00  0.00    +0.145 HD
ENDBRANCH  24  25
ENDBRANCH  23  24
ENDBRANCH  11  23
TORSDOF 4
