REMARK  Name = ZINC12441862
REMARK  8 active torsions:
REMARK  status: ('A' for Active; 'I' for Inactive)
REMARK    1  A    between atoms: C_1  and  C_2
REMARK    2  A    between atoms: C_2  and  C_4
REMARK    3  A    between atoms: C_4  and  N_5
REMARK    4  A    between atoms: C_6  and  C_8
REMARK    5  A    between atoms: C_8  and  C_9
REMARK    6  A    between atoms: C_16  and  C_17
REMARK    7  A    between atoms: C_16  and  N_48
REMARK    8  A    between atoms: C_22  and  C_23
REMARK                            x       y       z     vdW  Elec       q    Type
REMARK                         _______ _______ _______ _____ _____    ______ ____
ROOT
ATOM      1  C   UNL     1      -0.768   1.391   1.693  0.00  0.00    +0.028 C 
ATOM      2  C   UNL     1       0.052   0.981   2.883  0.00  0.00    +0.200 C 
ATOM      3  O   UNL     1       1.240   1.230   2.884  0.00  0.00    -0.278 OA
ATOM      4  N   UNL     1      -0.471   0.354   3.942  0.00  0.00    -0.318 N 
ATOM      5  C   UNL     1      -1.879  -0.023   4.024  0.00  0.00    +0.085 C 
ATOM      6  C   UNL     1      -2.696   0.772   3.003  0.00  0.00    -0.058 C 
ATOM      7  H   UNL     1       0.110   0.140   4.688  0.00  0.00    +0.149 HD
ATOM      8  N   UNL     1      -2.038   0.640   1.688  0.00  0.00    +0.391 N 
ATOM      9  H   UNL     1      -1.840  -0.352   1.510  0.00  0.00    -0.080 HD
ENDROOT
BRANCH   1  10
ATOM     10  C   UNL     1       0.003   1.072   0.410  0.00  0.00    +0.089 C 
BRANCH  10  12
ATOM     11  N   UNL     1       2.115   1.778  -0.666  0.00  0.00    -0.312 N 
ATOM     12  C   UNL     1       1.210   1.970   0.313  0.00  0.00    +0.212 C 
ATOM     13  O   UNL     1       1.365   2.865   1.116  0.00  0.00    -0.276 OA
ATOM     14  H   UNL     1       1.990   1.062  -1.309  0.00  0.00    +0.149 HD
BRANCH  11  15
ATOM     15  C   UNL     1       3.288   2.650  -0.761  0.00  0.00    +0.134 C 
BRANCH  15  17
ATOM     16  C   UNL     1       5.150   1.124  -1.770  0.00  0.00    +0.040 C 
ATOM     17  C   UNL     1       4.136   2.227  -1.933  0.00  0.00    -0.063 C 
ATOM     18  C   UNL     1       3.992   2.819  -3.093  0.00  0.00    +0.009 C 
ENDBRANCH  15  17
ENDBRANCH  11  15
ENDBRANCH  10  12
ENDBRANCH   1  10
BRANCH   8  19
ATOM     19  C   UNL     1      -2.926   1.153   0.621  0.00  0.00    -0.041 C 
BRANCH  19  20
ATOM     20  C   UNL     1      -4.161   0.292   0.555  0.00  0.00    -0.052 A 
ATOM     21  C   UNL     1      -5.346   0.740   1.109  0.00  0.00    +0.002 A 
ATOM     22  C   UNL     1      -6.481  -0.048   1.044  0.00  0.00    +0.000 A 
ATOM     23  C   UNL     1      -6.427  -1.288   0.435  0.00  0.00    +0.001 A 
ATOM     24  C   UNL     1      -5.241  -1.738  -0.114  0.00  0.00    +0.012 A 
ATOM     25  C   UNL     1      -4.108  -0.948  -0.054  0.00  0.00    +0.056 A 
BRANCH  25  26
ATOM     26  C   UNL     1      -2.815  -1.438  -0.652  0.00  0.00    +0.418 C 
ATOM     27  F   UNL     1      -3.029  -2.671  -1.278  0.00  0.00    -0.166 F 
ATOM     28  F   UNL     1      -2.354  -0.511  -1.593  0.00  0.00    -0.166 F 
ATOM     29  F   UNL     1      -1.861  -1.589   0.360  0.00  0.00    -0.166 F 
ENDBRANCH  25  26
ENDBRANCH  19  20
ENDBRANCH   8  19
TORSDOF 7
