REMARK  Name = ZINC39909856
REMARK  4 active torsions:
REMARK  status: ('A' for Active; 'I' for Inactive)
REMARK    1  A    between atoms: C_6  and  C_10
REMARK    2  A    between atoms: N_14  and  C_18
REMARK    3  A    between atoms: C_21  and  C_25
REMARK    4  A    between atoms: C_22  and  O_24
REMARK                            x       y       z     vdW  Elec       q    Type
REMARK                         _______ _______ _______ _____ _____    ______ ____
ROOT
ATOM      1  C   UNL     1       2.751  -3.708   1.393  0.00  0.00    +0.039 C 
ATOM      2  C   UNL     1       3.895  -4.364   1.166  0.00  0.00    +0.077 C 
ATOM      3  C   UNL     1       4.355  -5.070  -0.055  0.00  0.00    +0.262 C 
ATOM      4  O   UNL     1       3.672  -5.124  -1.060  0.00  0.00    -0.269 OA
ATOM      5  N   UNL     1       5.548  -5.638   0.007  0.00  0.00    -0.223 N 
ATOM      6  C   UNL     1       6.302  -5.576   1.123  0.00  0.00    +0.125 C 
ATOM      7  S   UNL     1       7.856  -6.242   1.393  0.00  0.00    -0.027 S 
ATOM      8  S   UNL     1       5.293  -4.626   2.249  0.00  0.00    -0.061 S 
ENDROOT
BRANCH   1  14
ATOM      9  C   UNL     1      -2.546  -1.984   0.926  0.00  0.00    +0.002 A 
ATOM     10  C   UNL     1      -1.936  -0.817   0.431  0.00  0.00    +0.002 A 
ATOM     11  C   UNL     1      -0.634  -0.769   0.084  0.00  0.00    +0.027 A 
ATOM     12  C   UNL     1       0.198  -1.972   0.220  0.00  0.00    +0.060 A 
ATOM     13  N   UNL     1       1.452  -2.215  -0.032  0.00  0.00    -0.360 N 
ATOM     14  C   UNL     1       1.706  -3.620   0.310  0.00  0.00    +0.200 C 
ATOM     15  N   UNL     1       0.432  -4.165   0.795  0.00  0.00    -0.360 N 
ATOM     16  C   UNL     1      -0.448  -3.207   0.743  0.00  0.00    +0.060 A 
ATOM     17  C   UNL     1      -1.875  -3.142   1.089  0.00  0.00    +0.027 A 
ATOM     18  H   UNL     1       2.099  -1.583  -0.381  0.00  0.00    +0.162 HD
ATOM     19  H   UNL     1       0.275  -5.073   1.098  0.00  0.00    +0.162 HD
ENDBRANCH   1  14
BRANCH   5  20
ATOM     20  C   UNL     1       6.039  -6.318  -1.109  0.00  0.00    +0.046 A 
ATOM     21  C   UNL     1       6.792  -5.635  -2.062  0.00  0.00    +0.025 A 
ATOM     22  C   UNL     1       7.277  -6.289  -3.157  0.00  0.00    +0.020 A 
ATOM     23  C   UNL     1       7.019  -7.655  -3.330  0.00  0.00    +0.105 A 
ATOM     24  C   UNL     1       6.260  -8.347  -2.372  0.00  0.00    +0.133 A 
ATOM     25  C   UNL     1       5.779  -7.673  -1.262  0.00  0.00    +0.070 A 
BRANCH  23  26
ATOM     26  C   UNL     1       7.540  -8.360  -4.509  0.00  0.00    +0.390 C 
ATOM     27  O   UNL     1       8.200  -7.754  -5.342  0.00  0.00    -0.240 OA
ATOM     28  O   UNL     1       7.313  -9.554  -4.657  0.00  0.00    -0.240 OA
ENDBRANCH  23  26
BRANCH  24  29
ATOM     29  O   UNL     1       6.005  -9.670  -2.530  0.00  0.00    -0.506 OA
ATOM     30  H   UNL     1       6.669 -10.249  -2.132  0.00  0.00    +0.292 HD
ENDBRANCH  24  29
ENDBRANCH   5  20
TORSDOF 4
