REMARK  Name = ZINC03621567
REMARK  9 active torsions:
REMARK  status: ('A' for Active; 'I' for Inactive)
REMARK    1  A    between atoms: C_1  and  C_2
REMARK    2  A    between atoms: C_4  and  C_8
REMARK    3  A    between atoms: C_5  and  C_7
REMARK    4  A    between atoms: N_10  and  N_11
REMARK    5  A    between atoms: C_12  and  C_14
REMARK    6  A    between atoms: C_17  and  S_20
REMARK    7  A    between atoms: S_20  and  N_23
REMARK    8  A    between atoms: N_23  and  C_24
REMARK    9  A    between atoms: N_23  and  C_25
REMARK                            x       y       z     vdW  Elec       q    Type
REMARK                         _______ _______ _______ _____ _____    ______ ____
ROOT
ATOM      1  C   UNL     1       3.283   2.051  -0.786  0.00  0.00    +0.038 A 
ATOM      2  C   UNL     1       3.385   3.433  -0.622  0.00  0.00    +0.015 A 
ATOM      3  C   UNL     1       4.621   4.011  -0.420  0.00  0.00    +0.029 A 
ATOM      4  C   UNL     1       5.759   3.225  -0.391  0.00  0.00    +0.109 A 
ATOM      5  C   UNL     1       5.665   1.855  -0.558  0.00  0.00    +0.029 A 
ATOM      6  C   UNL     1       4.434   1.264  -0.756  0.00  0.00    +0.015 A 
ENDROOT
BRANCH   1   8
ATOM      7  N   UNL     1       0.850   2.188  -1.026  0.00  0.00    -0.230 N 
ATOM      8  C   UNL     1       1.960   1.425  -0.997  0.00  0.00    +0.260 C 
ATOM      9  O   UNL     1       1.875   0.221  -1.145  0.00  0.00    -0.269 OA
ATOM     10  H   UNL     1       0.918   3.148  -0.908  0.00  0.00    +0.173 HD
BRANCH   7  13
ATOM     11  C   UNL     1      -1.513   2.358  -1.260  0.00  0.00    +0.263 C 
ATOM     12  O   UNL     1      -1.428   3.562  -1.112  0.00  0.00    -0.269 OA
ATOM     13  N   UNL     1      -0.403   1.594  -1.226  0.00  0.00    -0.230 N 
ATOM     14  H   UNL     1      -0.472   0.633  -1.344  0.00  0.00    +0.173 HD
BRANCH  11  18
ATOM     15  C   UNL     1      -5.211  -1.065  -2.060  0.00  0.00    +0.086 C 
ATOM     16  C   UNL     1      -4.446   0.212  -1.829  0.00  0.00    +0.103 A 
ATOM     17  C   UNL     1      -3.115   0.305  -1.678  0.00  0.00    +0.057 A 
ATOM     18  C   UNL     1      -2.831   1.734  -1.476  0.00  0.00    +0.079 A 
ATOM     19  C   UNL     1      -4.040   2.361  -1.537  0.00  0.00    +0.114 A 
ATOM     20  O   UNL     1      -4.984   1.439  -1.747  0.00  0.00    -0.464 OA
ATOM     21  C   UNL     1      -4.273   3.843  -1.393  0.00  0.00    +0.087 C 
ENDBRANCH  11  18
ENDBRANCH   7  13
ENDBRANCH   1   8
BRANCH   4  22
ATOM     22  S   UNL     1       7.335   3.972  -0.139  0.00  0.00    +0.074 S 
ATOM     23  O   UNL     1       7.100   5.200   0.535  0.00  0.00    -0.150 OA
ATOM     24  O   UNL     1       8.183   2.962   0.391  0.00  0.00    -0.150 OA
BRANCH  22  25
ATOM     25  N   UNL     1       7.937   4.359  -1.632  0.00  0.00    -0.206 N 
ATOM     26  C   UNL     1       7.553   5.620  -2.272  0.00  0.00    +0.157 C 
BRANCH  25  27
ATOM     27  C   UNL     1       8.812   3.485  -2.281  0.00  0.00    +0.051 A 
ATOM     28  C   UNL     1      10.025   3.150  -1.694  0.00  0.00    +0.025 A 
ATOM     29  C   UNL     1      10.886   2.281  -2.336  0.00  0.00    +0.002 A 
ATOM     30  C   UNL     1      10.544   1.753  -3.568  0.00  0.00    +0.000 A 
ATOM     31  C   UNL     1       9.340   2.088  -4.158  0.00  0.00    +0.002 A 
ATOM     32  C   UNL     1       8.472   2.952  -3.518  0.00  0.00    +0.025 A 
ENDBRANCH  25  27
ENDBRANCH  22  25
ENDBRANCH   4  22
TORSDOF 6
