REMARK  Name = ZINC32601920
REMARK  5 active torsions:
REMARK  status: ('A' for Active; 'I' for Inactive)
REMARK    1  A    between atoms: C_1  and  C_2
REMARK    2  A    between atoms: C_5  and  N_9
REMARK    3  A    between atoms: C_6  and  C_8
REMARK    4  A    between atoms: N_9  and  S_10
REMARK    5  A    between atoms: S_10  and  C_13
REMARK                            x       y       z     vdW  Elec       q    Type
REMARK                         _______ _______ _______ _____ _____    ______ ____
ROOT
ATOM      1  S   UNL     1       2.513  -0.376  -0.740  0.00  0.00    +0.073 S 
ATOM      2  O   UNL     1       3.783  -0.978  -0.527  0.00  0.00    -0.150 OA
ATOM      3  O   UNL     1       1.302  -0.983  -0.312  0.00  0.00    -0.150 OA
ENDROOT
BRANCH   1   4
ATOM      4  C   UNL     1       2.362  -0.120  -2.477  0.00  0.00    +0.116 A 
ATOM      5  C   UNL     1       1.246  -0.537  -3.135  0.00  0.00    +0.031 A 
ATOM      6  C   UNL     1       1.108  -0.342  -4.508  0.00  0.00    +0.022 A 
ATOM      7  C   UNL     1       2.087   0.271  -5.231  0.00  0.00    +0.049 A 
ATOM      8  C   UNL     1       3.254   0.715  -4.585  0.00  0.00    +0.002 A 
ATOM      9  C   UNL     1       3.391   0.522  -3.188  0.00  0.00    +0.010 A 
ATOM     10  C   UNL     1       4.560   0.960  -2.543  0.00  0.00    +0.010 A 
ATOM     11  C   UNL     1       5.537   1.573  -3.265  0.00  0.00    +0.001 A 
ATOM     12  C   UNL     1       5.400   1.768  -4.638  0.00  0.00    +0.001 A 
ATOM     13  C   UNL     1       4.285   1.351  -5.297  0.00  0.00    +0.010 A 
ATOM     14 CL   UNL     1       1.893   0.502  -6.941  0.00  0.00    -0.083 Cl
ENDBRANCH   1   4
BRANCH   1  15
ATOM     15  N   UNL     1       2.572   1.118  -0.028  0.00  0.00    -0.216 N 
ATOM     16  H   UNL     1       3.452   1.411   0.563  0.00  0.00    +0.174 HD
BRANCH  15  21
ATOM     17  C   UNL     1      -1.765   4.721  -0.633  0.00  0.00    +0.044 C 
ATOM     18  C   UNL     1      -0.612   3.763  -0.472  0.00  0.00    -0.050 A 
ATOM     19  C   UNL     1      -0.852   2.405  -0.376  0.00  0.00    +0.005 A 
ATOM     20  C   UNL     1       0.201   1.525  -0.223  0.00  0.00    +0.025 A 
ATOM     21  C   UNL     1       1.504   2.005  -0.177  0.00  0.00    +0.051 A 
ATOM     22  C   UNL     1       1.742   3.370  -0.280  0.00  0.00    -0.028 A 
ATOM     23  C   UNL     1       0.683   4.245  -0.427  0.00  0.00    +0.008 A 
ATOM     24  C   UNL     1       3.153   3.895  -0.231  0.00  0.00    +0.046 C 
ENDBRANCH  15  21
ENDBRANCH   1  15
TORSDOF 3
