REMARK  Name = ZINC19455933
REMARK  9 active torsions:
REMARK  status: ('A' for Active; 'I' for Inactive)
REMARK    1  A    between atoms: C_1  and  C_2
REMARK    2  A    between atoms: C_2  and  C_4
REMARK    3  A    between atoms: C_2  and  N_8
REMARK    4  A    between atoms: C_4  and  N_5
REMARK    5  A    between atoms: N_5  and  C_6
REMARK    6  A    between atoms: N_5  and  C_7
REMARK    7  A    between atoms: C_13  and  C_15
REMARK    8  A    between atoms: N_23  and  C_25
REMARK    9  A    between atoms: C_25  and  C_26
REMARK                            x       y       z     vdW  Elec       q    Type
REMARK                         _______ _______ _______ _____ _____    ______ ____
ROOT
ATOM      1  N   UNL     1      -1.220   2.082   0.019  0.00  0.00    -0.328 N 
ATOM      2  C   UNL     1      -0.017   1.396   0.010  0.00  0.00    +0.124 A 
ATOM      3  C   UNL     1       0.002  -0.004   0.002  0.00  0.00    -0.003 A 
ATOM      4  C   UNL     1       1.219  -0.646  -0.014  0.00  0.00    +0.047 A 
ATOM      5  N   UNL     1       2.332   0.078  -0.018  0.00  0.00    -0.232 NA
ATOM      6  C   UNL     1       2.287   1.401  -0.011  0.00  0.00    +0.162 A 
ATOM      7  N   UNL     1       1.135   2.057   0.002  0.00  0.00    -0.213 NA
ATOM      8  C   UNL     1       1.320  -2.148  -0.029  0.00  0.00    +0.037 C 
ATOM      9  C   UNL     1      -0.014  -2.763   0.395  0.00  0.00    -0.072 C 
ATOM     10  N   UNL     1      -1.089  -2.148  -0.401  0.00  0.00    +0.385 N 
ATOM     11  C   UNL     1      -1.299  -0.757   0.015  0.00  0.00    -0.037 C 
ATOM     12  H   UNL     1      -2.170   1.527   0.021  0.00  0.00    +0.148 HD
ATOM     13  H   UNL     1      -0.784  -2.150  -1.458  0.00  0.00    -0.081 HD
ENDROOT
BRANCH   6  14
ATOM     14  C   UNL     1       3.556   2.169  -0.017  0.00  0.00    +0.022 A 
ATOM     15  C   UNL     1       4.791   1.515  -0.025  0.00  0.00    +0.031 A 
ATOM     16  C   UNL     1       5.948   2.268  -0.035  0.00  0.00    +0.111 A 
ATOM     17  N   UNL     1       5.898   3.586  -0.028  0.00  0.00    -0.263 NA
ATOM     18  C   UNL     1       4.754   4.242  -0.015  0.00  0.00    +0.111 A 
ATOM     19  C   UNL     1       3.550   3.566  -0.009  0.00  0.00    +0.031 A 
ENDBRANCH   6  14
BRANCH   1  21
ATOM     20  C   UNL     1      -1.112   4.065  -1.408  0.00  0.00    +0.026 C 
ATOM     21  C   UNL     1      -1.228   3.547   0.027  0.00  0.00    +0.052 C 
BRANCH  21  22
ATOM     22  C   UNL     1      -2.536   4.046   0.646  0.00  0.00    -0.057 C 
BRANCH  22  23
ATOM     23  N   UNL     1      -2.705   3.453   1.979  0.00  0.00    +0.377 N 
ATOM     24  C   UNL     1      -1.673   3.936   2.905  0.00  0.00    -0.097 C 
ATOM     25  C   UNL     1      -4.051   3.716   2.505  0.00  0.00    -0.097 C 
ATOM     26  H   UNL     1      -2.588   2.363   1.881  0.00  0.00    -0.083 HD
ENDBRANCH  22  23
ENDBRANCH  21  22
ENDBRANCH   1  21
BRANCH  10  27
ATOM     27  C   UNL     1      -2.332  -2.924  -0.295  0.00  0.00    -0.040 C 
BRANCH  27  28
ATOM     28  C   UNL     1      -2.145  -4.266  -0.955  0.00  0.00    -0.029 A 
ATOM     29  C   UNL     1      -1.989  -5.400  -0.182  0.00  0.00    +0.004 A 
ATOM     30  C   UNL     1      -1.818  -6.631  -0.786  0.00  0.00    +0.000 A 
ATOM     31  C   UNL     1      -1.803  -6.729  -2.166  0.00  0.00    +0.003 A 
ATOM     32  C   UNL     1      -1.959  -5.596  -2.941  0.00  0.00    +0.038 A 
ATOM     33  C   UNL     1      -2.135  -4.363  -2.336  0.00  0.00    +0.125 A 
ATOM     34  F   UNL     1      -2.293  -3.255  -3.093  0.00  0.00    -0.205 F 
ENDBRANCH  27  28
ENDBRANCH  10  27
TORSDOF 6
