REMARK  Name = ZINC24789722
REMARK  11 active torsions:
REMARK  status: ('A' for Active; 'I' for Inactive)
REMARK    1  A    between atoms: C_1  and  O_2
REMARK    2  A    between atoms: O_2  and  C_3
REMARK    3  A    between atoms: C_5  and  O_31
REMARK    4  A    between atoms: C_8  and  N_9
REMARK    5  A    between atoms: C_10  and  C_12
REMARK    6  A    between atoms: C_12  and  S_13
REMARK    7  A    between atoms: S_13  and  C_14
REMARK    8  A    between atoms: C_17  and  C_22
REMARK    9  A    between atoms: N_18  and  C_19
REMARK   10  A    between atoms: C_19  and  C_20
REMARK   11  A    between atoms: O_31  and  C_32
REMARK                            x       y       z     vdW  Elec       q    Type
REMARK                         _______ _______ _______ _____ _____    ______ ____
ROOT
ATOM      1  C   UNL     1      -2.035   9.009   3.008  0.00  0.00    +0.173 C 
ENDROOT
BRANCH   1   3
ATOM      2  N   UNL     1      -1.115   7.024   1.854  0.00  0.00    -0.282 N 
ATOM      3  C   UNL     1      -1.821   7.522   2.888  0.00  0.00    +0.228 C 
ATOM      4  O   UNL     1      -2.285   6.774   3.722  0.00  0.00    -0.275 OA
ATOM      5  H   UNL     1      -0.618   7.706   1.148  0.00  0.00    +0.155 HD
BRANCH   2  11
ATOM      6  C   UNL     1       0.069   5.098   0.986  0.00  0.00    +0.145 A 
ATOM      7  C   UNL     1       0.169   3.727   0.818  0.00  0.00    +0.094 A 
ATOM      8  C   UNL     1      -0.815   2.893   1.327  0.00  0.00    +0.142 A 
ATOM      9  C   UNL     1      -1.894   3.430   2.015  0.00  0.00    +0.084 A 
ATOM     10  C   UNL     1      -1.993   4.798   2.190  0.00  0.00    +0.050 A 
ATOM     11  C   UNL     1      -1.014   5.636   1.677  0.00  0.00    +0.077 A 
ATOM     12 CL   UNL     1      -3.120   2.383   2.658  0.00  0.00    -0.080 Cl
BRANCH   6  14
ATOM     13  C   UNL     1       2.112   5.297  -0.215  0.00  0.00    +0.277 C 
ATOM     14  O   UNL     1       1.030   5.918   0.483  0.00  0.00    -0.493 OA
ENDBRANCH   6  14
BRANCH   8  15
ATOM     15  O   UNL     1      -0.719   1.547   1.158  0.00  0.00    -0.494 OA
ATOM     16  C   UNL     1       0.418   1.063   0.440  0.00  0.00    +0.277 C 
ENDBRANCH   8  15
ENDBRANCH   2  11
ENDBRANCH   1   3
BRANCH   1  17
ATOM     17  S   UNL     1      -3.013   9.361   4.490  0.00  0.00    -0.077 S 
BRANCH  17  18
ATOM     18  C   UNL     1      -3.107  11.117   4.385  0.00  0.00    +0.192 A 
ATOM     19  N   UNL     1      -2.580  11.873   3.450  0.00  0.00    -0.122 NA
ATOM     20  N   UNL     1      -2.844  13.108   3.686  0.00  0.00    -0.133 NA
ATOM     21  C   UNL     1      -3.549  13.214   4.776  0.00  0.00    +0.139 A 
ATOM     22  N   UNL     1      -3.747  11.949   5.257  0.00  0.00    -0.302 N 
BRANCH  21  23
ATOM     23  C   UNL     1      -4.058  14.493   5.390  0.00  0.00    +0.079 C 
ATOM     24  C   UNL     1      -2.867  15.398   5.745  0.00  0.00    +0.035 C 
ATOM     25  C   UNL     1      -3.417  16.815   6.077  0.00  0.00    +0.166 C 
ATOM     26  S   UNL     1      -4.708  16.988   4.775  0.00  0.00    -0.030 S 
ATOM     27  O   UNL     1      -4.139  17.629   3.641  0.00  0.00    -0.174 OA
ATOM     28  O   UNL     1      -5.888  17.522   5.360  0.00  0.00    -0.174 OA
ATOM     29  C   UNL     1      -4.986  15.213   4.381  0.00  0.00    +0.177 C 
ENDBRANCH  21  23
BRANCH  22  30
ATOM     30  C   UNL     1      -4.489  11.567   6.461  0.00  0.00    +0.152 C 
BRANCH  30  31
ATOM     31  C   UNL     1      -3.554  11.547   7.643  0.00  0.00    -0.013 C 
ATOM     32  C   UNL     1      -3.830  12.255   8.710  0.00  0.00    +0.005 C 
ENDBRANCH  30  31
ENDBRANCH  22  30
ENDBRANCH  17  18
ENDBRANCH   1  17
TORSDOF 9
