REMARK  Name = ZINC14656323
REMARK  11 active torsions:
REMARK  status: ('A' for Active; 'I' for Inactive)
REMARK    1  A    between atoms: C_1  and  C_2
REMARK    2  A    between atoms: C_2  and  C_3
REMARK    3  A    between atoms: C_3  and  C_4
REMARK    4  A    between atoms: C_4  and  N_5
REMARK    5  A    between atoms: C_6  and  N_30
REMARK    6  A    between atoms: C_7  and  N_14
REMARK    7  A    between atoms: N_14  and  C_15
REMARK    8  A    between atoms: C_16  and  C_18
REMARK    9  A    between atoms: C_18  and  C_20
REMARK   10  A    between atoms: C_18  and  O_21
REMARK   11  A    between atoms: O_21  and  C_22
REMARK                            x       y       z     vdW  Elec       q    Type
REMARK                         _______ _______ _______ _____ _____    ______ ____
ROOT
ATOM      1  N   UNL     1       4.709   0.336  -0.496  0.00  0.00    -0.280 N 
ATOM      2  C   UNL     1       3.728   1.291  -0.366  0.00  0.00    +0.127 A 
ATOM      3  C   UNL     1       2.443   0.899  -0.049  0.00  0.00    +0.139 A 
ATOM      4  C   UNL     1       2.178  -0.470   0.139  0.00  0.00    +0.277 A 
ATOM      5  O   UNL     1       1.053  -0.844   0.424  0.00  0.00    -0.266 OA
ATOM      6  N   UNL     1       3.174  -1.366  -0.006  0.00  0.00    -0.273 N 
ATOM      7  H   UNL     1       2.985  -2.340   0.119  0.00  0.00    +0.173 HD
ATOM      8  C   UNL     1       4.420  -0.965  -0.315  0.00  0.00    +0.331 A 
ATOM      9  O   UNL     1       5.302  -1.794  -0.434  0.00  0.00    -0.246 OA
ENDROOT
BRANCH   3  10
ATOM     10  N   UNL     1       1.415   1.855   0.092  0.00  0.00    -0.264 N 
ATOM     11  C   UNL     1       0.782   2.064   1.396  0.00  0.00    +0.138 C 
ATOM     12  C   UNL     1       1.014   2.576  -0.976  0.00  0.00    +0.260 C 
ATOM     13  O   UNL     1       1.607   2.480  -2.030  0.00  0.00    -0.271 OA
BRANCH  12  14
ATOM     14  C   UNL     1      -0.166   3.506  -0.857  0.00  0.00    +0.256 C 
ATOM     15  C   UNL     1      -1.410   2.704  -0.471  0.00  0.00    +0.062 C 
BRANCH  14  16
ATOM     16  O   UNL     1      -0.388   4.157  -2.110  0.00  0.00    -0.478 OA
BRANCH  16  17
ATOM     17  C   UNL     1      -1.038   5.350  -2.079  0.00  0.00    +0.140 A 
ATOM     18  C   UNL     1      -1.544   5.834  -0.881  0.00  0.00    +0.048 A 
ATOM     19  C   UNL     1      -2.201   7.049  -0.851  0.00  0.00    +0.023 A 
ATOM     20  C   UNL     1      -2.363   7.779  -2.016  0.00  0.00    +0.043 A 
ATOM     21  C   UNL     1      -1.865   7.296  -3.212  0.00  0.00    +0.043 A 
ATOM     22  C   UNL     1      -1.202   6.083  -3.246  0.00  0.00    +0.084 A 
ATOM     23 CL   UNL     1      -0.576   5.477  -4.747  0.00  0.00    -0.080 Cl
ATOM     24 CL   UNL     1      -3.195   9.302  -1.975  0.00  0.00    -0.083 Cl
ENDBRANCH  16  17
ENDBRANCH  14  16
ENDBRANCH  12  14
ENDBRANCH   3  10
BRANCH   2  25
ATOM     25  N   UNL     1       4.023   2.621  -0.551  0.00  0.00    -0.343 N 
ATOM     26  H   UNL     1       3.314   3.282  -0.532  0.00  0.00    +0.144 HD
ATOM     27  H   UNL     1       4.941   2.898  -0.700  0.00  0.00    +0.144 HD
ENDBRANCH   2  25
BRANCH   1  28
ATOM     28  C   UNL     1       6.077   0.739  -0.832  0.00  0.00    +0.128 C 
BRANCH  28  29
ATOM     29  C   UNL     1       6.861   1.005   0.455  0.00  0.00    +0.021 C 
BRANCH  29  31
ATOM     30  C   UNL     1       9.074   1.691   1.390  0.00  0.00    +0.004 C 
ATOM     31  C   UNL     1       8.290   1.425   0.104  0.00  0.00    -0.002 C 
ENDBRANCH  29  31
ENDBRANCH  28  29
ENDBRANCH   1  28
TORSDOF 8
