REMARK  Name = ZINC63710186
REMARK  8 active torsions:
REMARK  status: ('A' for Active; 'I' for Inactive)
REMARK    1  A    between atoms: C_1  and  O_2
REMARK    2  A    between atoms: O_2  and  C_3
REMARK    3  A    between atoms: C_6  and  N_9
REMARK    4  A    between atoms: C_10  and  S_20
REMARK    5  A    between atoms: S_20  and  C_21
REMARK    6  A    between atoms: C_21  and  C_22
REMARK    7  A    between atoms: N_24  and  C_25
REMARK    8  A    between atoms: C_25  and  C_26
REMARK                            x       y       z     vdW  Elec       q    Type
REMARK                         _______ _______ _______ _____ _____    ______ ____
ROOT
ATOM      1  N   UNL     1       2.459  -2.457  -4.300  0.00  0.00    -0.236 N 
ATOM      2  C   UNL     1       2.605  -3.915  -4.332  0.00  0.00    +0.261 C 
ATOM      3  N   UNL     1       3.255  -4.571  -5.470  0.00  0.00    -0.230 NA
ATOM      4  C   UNL     1       3.707  -3.873  -6.461  0.00  0.00    +0.186 C 
ATOM      5  C   UNL     1       3.574  -2.392  -6.458  0.00  0.00    +0.103 C 
ATOM      6  C   UNL     1       4.144  -1.989  -7.623  0.00  0.00    +0.151 C 
ATOM      7  N   UNL     1       4.582  -3.080  -8.278  0.00  0.00    -0.155 NA
ATOM      8  N   UNL     1       4.345  -4.168  -7.636  0.00  0.00    -0.129 NA
ATOM      9  C   UNL     1       2.922  -1.716  -5.332  0.00  0.00    +0.258 C 
ATOM     10  O   UNL     1       2.805  -0.505  -5.323  0.00  0.00    -0.269 OA
ENDROOT
BRANCH   1  14
ATOM     11  C   UNL     1       0.606  -0.608  -1.056  0.00  0.00    +0.120 A 
ATOM     12  C   UNL     1       0.004  -0.582  -2.305  0.00  0.00    +0.047 A 
ATOM     13  C   UNL     1       0.617  -1.194  -3.380  0.00  0.00    +0.027 A 
ATOM     14  C   UNL     1       1.837  -1.836  -3.211  0.00  0.00    +0.040 A 
ATOM     15  C   UNL     1       2.439  -1.862  -1.959  0.00  0.00    +0.027 A 
ATOM     16  C   UNL     1       1.827  -1.245  -0.886  0.00  0.00    +0.047 A 
BRANCH  11  18
ATOM     17  C   UNL     1      -1.253   0.632  -0.243  0.00  0.00    +0.277 C 
ATOM     18  O   UNL     1       0.002  -0.005   0.003  0.00  0.00    -0.495 OA
ENDBRANCH  11  18
ENDBRANCH   1  14
BRANCH   2  19
ATOM     19  S   UNL     1       0.943  -4.625  -4.181  0.00  0.00    -0.105 S 
BRANCH  19  20
ATOM     20  C   UNL     1       0.053  -3.969  -5.619  0.00  0.00    +0.168 C 
BRANCH  20  21
ATOM     21  C   UNL     1      -1.362  -4.489  -5.614  0.00  0.00    +0.223 C 
ATOM     22  O   UNL     1      -1.733  -5.229  -4.728  0.00  0.00    -0.275 OA
ATOM     23  N   UNL     1      -2.214  -4.131  -6.595  0.00  0.00    -0.310 N 
ATOM     24  H   UNL     1      -1.918  -3.539  -7.303  0.00  0.00    +0.149 HD
BRANCH  23  25
ATOM     25  C   UNL     1      -3.589  -4.636  -6.590  0.00  0.00    +0.146 C 
BRANCH  25  26
ATOM     26  C   UNL     1      -4.329  -4.091  -7.784  0.00  0.00    +0.007 A 
ATOM     27  C   UNL     1      -4.448  -4.617  -9.028  0.00  0.00    +0.013 A 
ATOM     28  C   UNL     1      -5.185  -3.934  -9.977  0.00  0.00    +0.008 A 
ATOM     29  C   UNL     1      -5.767  -2.759  -9.636  0.00  0.00    +0.045 A 
ATOM     30  S   UNL     1      -5.282  -2.588  -7.927  0.00  0.00    -0.100 S 
ENDBRANCH  25  26
ENDBRANCH  23  25
ENDBRANCH  20  21
ENDBRANCH  19  20
ENDBRANCH   2  19
TORSDOF 7
