REMARK  Name = ZINC02103264
REMARK  9 active torsions:
REMARK  status: ('A' for Active; 'I' for Inactive)
REMARK    1  A    between atoms: C_1  and  C_2
REMARK    2  A    between atoms: C_2  and  C_3
REMARK    3  A    between atoms: C_3  and  C_4
REMARK    4  A    between atoms: C_11  and  N_16
REMARK    5  A    between atoms: C_12  and  C_13
REMARK    6  A    between atoms: N_16  and  S_17
REMARK    7  A    between atoms: S_17  and  C_20
REMARK    8  A    between atoms: C_23  and  N_26
REMARK    9  A    between atoms: C_27  and  C_29
REMARK                            x       y       z     vdW  Elec       q    Type
REMARK                         _______ _______ _______ _____ _____    ______ ____
ROOT
ATOM      1  C   UNL     1       5.638   4.604  -4.718  0.00  0.00    -0.006 C 
ATOM      2  C   UNL     1       6.633   3.622  -5.344  0.00  0.00    +0.008 C 
ATOM      3  C   UNL     1       6.021   2.221  -5.391  0.00  0.00    +0.037 C 
ATOM      4  C   UNL     1       5.519   1.858  -3.999  0.00  0.00    -0.023 A 
ATOM      5  C   UNL     1       5.305   2.811  -3.067  0.00  0.00    -0.004 A 
ATOM      6  S   UNL     1       4.732   1.931  -1.642  0.00  0.00    -0.076 S 
ATOM      7  C   UNL     1       4.784   0.317  -2.269  0.00  0.00    +0.098 A 
ATOM      8  C   UNL     1       5.236   0.498  -3.570  0.00  0.00    +0.069 A 
ATOM      9  C   UNL     1       5.507   4.287  -3.221  0.00  0.00    +0.046 C 
ENDROOT
BRANCH   8  10
ATOM     10  C   UNL     1       5.422  -0.638  -4.476  0.00  0.00    +0.244 C 
ATOM     11  O   UNL     1       4.504  -1.008  -5.184  0.00  0.00    -0.270 OA
ATOM     12  N   UNL     1       6.609  -1.274  -4.524  0.00  0.00    -0.325 N 
ATOM     13  H   UNL     1       7.341  -0.979  -3.959  0.00  0.00    +0.145 HD
ATOM     14  H   UNL     1       6.732  -2.026  -5.124  0.00  0.00    +0.145 HD
ENDBRANCH   8  10
BRANCH   7  15
ATOM     15  N   UNL     1       4.450  -0.864  -1.633  0.00  0.00    -0.209 N 
ATOM     16  H   UNL     1       4.522  -1.707  -2.106  0.00  0.00    +0.174 HD
BRANCH  15  17
ATOM     17  S   UNL     1       3.929  -0.838  -0.061  0.00  0.00    +0.073 S 
ATOM     18  O   UNL     1       4.856  -0.039   0.661  0.00  0.00    -0.150 OA
ATOM     19  O   UNL     1       3.644  -2.184   0.294  0.00  0.00    -0.150 OA
BRANCH  17  20
ATOM     20  C   UNL     1       2.393   0.026  -0.036  0.00  0.00    +0.109 A 
ATOM     21  C   UNL     1       1.209  -0.668  -0.203  0.00  0.00    +0.030 A 
ATOM     22  C   UNL     1       0.003   0.006  -0.183  0.00  0.00    +0.025 A 
ATOM     23  C   UNL     1      -0.018   1.382   0.004  0.00  0.00    +0.033 A 
ATOM     24  C   UNL     1       1.173   2.076   0.171  0.00  0.00    +0.025 A 
ATOM     25  C   UNL     1       2.375   1.396   0.150  0.00  0.00    +0.030 A 
BRANCH  23  26
ATOM     26  N   UNL     1      -1.237   2.069   0.019  0.00  0.00    -0.286 N 
ATOM     27  C   UNL     1      -2.340   1.474   0.514  0.00  0.00    +0.214 C 
ATOM     28  O   UNL     1      -2.258   0.381   1.034  0.00  0.00    -0.276 OA
ATOM     29  C   UNL     1      -3.676   2.165   0.422  0.00  0.00    +0.109 C 
ATOM     30  H   UNL     1      -1.288   2.974  -0.327  0.00  0.00    +0.155 HD
ENDBRANCH  23  26
ENDBRANCH  17  20
ENDBRANCH  15  17
ENDBRANCH   7  15
BRANCH   1  31
ATOM     31  C   UNL     1       6.149   6.035  -4.896  0.00  0.00    +0.003 C 
BRANCH  31  33
ATOM     32  C   UNL     1       5.608   8.451  -4.560  0.00  0.00    +0.004 C 
ATOM     33  C   UNL     1       5.097   7.020  -4.382  0.00  0.00    -0.003 C 
ENDBRANCH  31  33
ENDBRANCH   1  31
TORSDOF 7
