REMARK  Name = ZINC32058450
REMARK  11 active torsions:
REMARK  status: ('A' for Active; 'I' for Inactive)
REMARK    1  A    between atoms: C_1  and  C_2
REMARK    2  A    between atoms: C_2  and  C_3
REMARK    3  A    between atoms: C_2  and  N_4
REMARK    4  A    between atoms: N_4  and  S_5
REMARK    5  A    between atoms: S_5  and  C_8
REMARK    6  A    between atoms: C_11  and  C_14
REMARK    7  A    between atoms: C_15  and  C_16
REMARK    8  A    between atoms: N_18  and  C_19
REMARK    9  A    between atoms: C_22  and  N_25
REMARK   10  A    between atoms: N_28  and  C_29
REMARK   11  A    between atoms: C_29  and  C_30
REMARK                            x       y       z     vdW  Elec       q    Type
REMARK                         _______ _______ _______ _____ _____    ______ ____
ROOT
ATOM      1  C   UNL     1       2.504  -2.541  -0.142  0.00  0.00    +0.241 C 
ATOM      2  O   UNL     1       3.522  -1.874  -0.155  0.00  0.00    -0.270 OA
ATOM      3  N   UNL     1       1.305  -1.938  -0.012  0.00  0.00    -0.282 N 
ATOM      4  H   UNL     1       0.392  -2.544   0.084  0.00  0.00    +0.155 HD
ENDROOT
BRANCH   3   5
ATOM      5  C   UNL     1       1.222  -0.541  -0.000  0.00  0.00    +0.034 A 
ATOM      6  C   UNL     1       2.106   0.214  -0.760  0.00  0.00    +0.025 A 
ATOM      7  C   UNL     1       2.024   1.592  -0.748  0.00  0.00    +0.025 A 
ATOM      8  C   UNL     1       1.058   2.224   0.025  0.00  0.00    +0.035 A 
ATOM      9  C   UNL     1       0.174   1.469   0.784  0.00  0.00    +0.025 A 
ATOM     10  C   UNL     1       0.256   0.091   0.772  0.00  0.00    +0.025 A 
BRANCH   8  11
ATOM     11  N   UNL     1       0.975   3.622   0.037  0.00  0.00    -0.269 N 
ATOM     12  C   UNL     1       1.236   4.323  -1.084  0.00  0.00    +0.304 C 
ATOM     13  O   UNL     1       1.625   3.749  -2.083  0.00  0.00    -0.253 OA
ATOM     14  N   UNL     1       1.067   5.660  -1.098  0.00  0.00    -0.296 N 
ATOM     15  H   UNL     1       0.696   4.149   0.962  0.00  0.00    +0.156 HD
ATOM     16  H   UNL     1       0.715   6.179  -0.195  0.00  0.00    +0.151 HD
BRANCH  14  17
ATOM     17  C   UNL     1       1.351   6.422  -2.317  0.00  0.00    +0.132 C 
BRANCH  17  18
ATOM     18  C   UNL     1       1.083   7.884  -2.070  0.00  0.00    -0.016 C 
ATOM     19  C   UNL     1       2.021   8.769  -2.297  0.00  0.00    +0.005 C 
ENDBRANCH  17  18
ENDBRANCH  14  17
ENDBRANCH   8  11
ENDBRANCH   3   5
BRANCH   1  21
ATOM     20  C   UNL     1       3.780  -4.600  -0.397  0.00  0.00    +0.013 C 
ATOM     21  C   UNL     1       2.581  -3.997  -0.267  0.00  0.00    +0.068 C 
BRANCH  20  25
ATOM     22  C   UNL     1       4.004  -8.821  -0.757  0.00  0.00    +0.105 A 
ATOM     23  C   UNL     1       5.164  -8.066  -0.773  0.00  0.00    +0.029 A 
ATOM     24  C   UNL     1       5.099  -6.693  -0.657  0.00  0.00    +0.010 A 
ATOM     25  C   UNL     1       3.858  -6.064  -0.522  0.00  0.00    -0.025 A 
ATOM     26  C   UNL     1       2.691  -6.834  -0.501  0.00  0.00    +0.010 A 
ATOM     27  C   UNL     1       2.771  -8.206  -0.624  0.00  0.00    +0.029 A 
BRANCH  22  28
ATOM     28  S   UNL     1       4.097 -10.574  -0.907  0.00  0.00    +0.059 S 
ATOM     29  O   UNL     1       2.841 -11.005  -1.412  0.00  0.00    -0.153 OA
ATOM     30  O   UNL     1       5.323 -10.861  -1.567  0.00  0.00    -0.153 OA
BRANCH  28  31
ATOM     31  N   UNL     1       4.229 -11.190   0.625  0.00  0.00    -0.187 NA
ATOM     32  H   UNL     1       5.202 -11.567   0.971  0.00  0.00    +0.148 HD
BRANCH  31  34
ATOM     33  C   UNL     1       3.037 -12.273   2.465  0.00  0.00    +0.025 C 
ATOM     34  C   UNL     1       3.124 -11.032   1.575  0.00  0.00    +0.070 C 
ATOM     35  C   UNL     1       3.371  -9.797   2.443  0.00  0.00    +0.025 C 
ENDBRANCH  31  34
ENDBRANCH  28  31
ENDBRANCH  22  28
ENDBRANCH  20  25
ENDBRANCH   1  21
TORSDOF 9
