REMARK  Name = ZINC46347259
REMARK  11 active torsions:
REMARK  status: ('A' for Active; 'I' for Inactive)
REMARK    1  A    between atoms: C_1  and  C_2
REMARK    2  A    between atoms: C_2  and  C_3
REMARK    3  A    between atoms: C_2  and  N_4
REMARK    4  A    between atoms: C_5  and  C_7
REMARK    5  A    between atoms: C_7  and  N_8
REMARK    6  A    between atoms: N_16  and  C_17
REMARK    7  A    between atoms: C_17  and  C_18
REMARK    8  A    between atoms: C_18  and  C_20
REMARK    9  A    between atoms: C_18  and  N_25
REMARK   10  A    between atoms: N_25  and  C_26
REMARK   11  A    between atoms: N_25  and  C_27
REMARK                            x       y       z     vdW  Elec       q    Type
REMARK                         _______ _______ _______ _____ _____    ______ ____
ROOT
ATOM      1  N   UNL     1       4.402  -0.693  -1.889  0.00  0.00    -0.291 NA
ATOM      2  C   UNL     1       4.717  -1.727  -0.894  0.00  0.00    +0.104 C 
ATOM      3  C   UNL     1       6.225  -1.724  -0.620  0.00  0.00    +0.124 C 
ATOM      4  N   UNL     1       6.933  -1.858  -1.902  0.00  0.00    -0.283 N 
ATOM      5  C   UNL     1       6.572  -0.943  -2.996  0.00  0.00    +0.124 C 
ATOM      6  C   UNL     1       5.051  -0.976  -3.176  0.00  0.00    +0.104 C 
ATOM      7  C   UNL     1       7.888  -2.795  -2.071  0.00  0.00    +0.302 C 
ATOM      8  O   UNL     1       8.398  -2.954  -3.163  0.00  0.00    -0.253 OA
ATOM      9  N   UNL     1       8.278  -3.554  -1.028  0.00  0.00    -0.300 N 
ATOM     10  H   UNL     1       7.823  -3.478  -0.175  0.00  0.00    +0.150 HD
ENDROOT
BRANCH   1  11
ATOM     11  C   UNL     1       2.950  -0.546  -2.053  0.00  0.00    +0.180 C 
BRANCH  11  13
ATOM     12  N   UNL     1       1.023   0.197  -0.692  0.00  0.00    -0.312 N 
ATOM     13  C   UNL     1       2.351  -0.018  -0.775  0.00  0.00    +0.227 C 
ATOM     14  O   UNL     1       3.063   0.212   0.179  0.00  0.00    -0.274 OA
ATOM     15  H   UNL     1       0.453   0.013  -1.454  0.00  0.00    +0.149 HD
BRANCH  12  17
ATOM     16  C   UNL     1       0.541   2.236   0.569  0.00  0.00    +0.027 C 
ATOM     17  C   UNL     1       0.441   0.710   0.551  0.00  0.00    +0.067 C 
ATOM     18  C   UNL     1      -1.030   0.294   0.635  0.00  0.00    +0.027 C 
ENDBRANCH  12  17
ENDBRANCH  11  13
ENDBRANCH   1  11
BRANCH   9  19
ATOM     19  C   UNL     1       9.390  -4.496  -1.183  0.00  0.00    +0.095 C 
BRANCH  19  20
ATOM     20  C   UNL     1       9.548  -5.314   0.100  0.00  0.00    -0.020 C 
BRANCH  20  21
ATOM     21  C   UNL     1       9.924  -4.398   1.236  0.00  0.00    -0.052 A 
ATOM     22  C   UNL     1       8.968  -3.975   2.141  0.00  0.00    +0.009 A 
ATOM     23  C   UNL     1       9.339  -3.151   3.152  0.00  0.00    +0.045 A 
ATOM     24  S   UNL     1      11.086  -2.950   2.842  0.00  0.00    -0.105 S 
ATOM     25  C   UNL     1      11.204  -3.982   1.390  0.00  0.00    +0.047 A 
ENDBRANCH  20  21
BRANCH  20  26
ATOM     26  N   UNL     1      10.602  -6.320  -0.087  0.00  0.00    +0.382 N 
ATOM     27  C   UNL     1      10.688  -7.168   1.109  0.00  0.00    -0.096 C 
ATOM     28  C   UNL     1      10.283  -7.151  -1.256  0.00  0.00    -0.096 C 
ATOM     29  H   UNL     1      11.486  -5.857  -0.235  0.00  0.00    -0.082 HD
ENDBRANCH  20  26
ENDBRANCH  19  20
ENDBRANCH   9  19
TORSDOF 7
