REMARK  Name = ZINC59293417
REMARK  11 active torsions:
REMARK  status: ('A' for Active; 'I' for Inactive)
REMARK    1  A    between atoms: C_1  and  C_2
REMARK    2  A    between atoms: C_2  and  N_3
REMARK    3  A    between atoms: C_13  and  C_25
REMARK    4  A    between atoms: C_14  and  C_24
REMARK    5  A    between atoms: C_16  and  N_23
REMARK    6  A    between atoms: C_17  and  C_18
REMARK    7  A    between atoms: C_18  and  O_20
REMARK    8  A    between atoms: O_20  and  C_21
REMARK    9  A    between atoms: C_21  and  C_22
REMARK   10  A    between atoms: C_25  and  O_27
REMARK   11  A    between atoms: O_27  and  C_28
REMARK                            x       y       z     vdW  Elec       q    Type
REMARK                         _______ _______ _______ _____ _____    ______ ____
ROOT
ATOM      1  N   UNL     1      -1.886   0.429   0.053  0.00  0.00    -0.270 N 
ATOM      2  C   UNL     1      -2.404   0.047   1.291  0.00  0.00    +0.041 A 
ATOM      3  C   UNL     1      -2.010   0.381   2.586  0.00  0.00    +0.025 A 
ATOM      4  C   UNL     1      -2.691  -0.131   3.671  0.00  0.00    +0.017 A 
ATOM      5  C   UNL     1      -3.767  -0.981   3.484  0.00  0.00    +0.018 A 
ATOM      6  C   UNL     1      -4.163  -1.318   2.201  0.00  0.00    +0.022 A 
ATOM      7  C   UNL     1      -3.486  -0.807   1.117  0.00  0.00    -0.001 A 
ATOM      8  C   UNL     1      -3.655  -0.973  -0.373  0.00  0.00    +0.145 C 
ATOM      9  C   UNL     1      -2.563  -0.118  -0.972  0.00  0.00    +0.240 C 
ATOM     10  O   UNL     1      -2.339   0.043  -2.153  0.00  0.00    -0.274 OA
ATOM     11  C   UNL     1      -3.473  -2.411  -0.765  0.00  0.00    +0.098 C 
ATOM     12  C   UNL     1      -4.524  -3.166  -1.115  0.00  0.00    +0.116 C 
ATOM     13  O   UNL     1      -5.774  -2.678  -1.131  0.00  0.00    -0.446 OA
ATOM     14  C   UNL     1      -5.981  -1.349  -1.160  0.00  0.00    +0.195 C 
ATOM     15  C   UNL     1      -5.002  -0.473  -0.807  0.00  0.00    +0.117 C 
ATOM     16  C   UNL     1      -4.295  -4.604  -1.502  0.00  0.00    +0.087 C 
ATOM     17 BR   UNL     1      -4.694  -1.679   4.977  0.00  0.00    -0.050 Br
ENDROOT
BRANCH  14  18
ATOM     18  N   UNL     1      -7.201  -0.869  -1.553  0.00  0.00    -0.329 N 
ATOM     19  H   UNL     1      -7.928  -1.484  -1.737  0.00  0.00    +0.145 HD
ATOM     20  H   UNL     1      -7.339   0.086  -1.648  0.00  0.00    +0.145 HD
ENDBRANCH  14  18
BRANCH   1  22
ATOM     21  C   UNL     1      -1.221   2.780  -0.068  0.00  0.00    +0.025 C 
ATOM     22  C   UNL     1      -0.740   1.328  -0.112  0.00  0.00    +0.110 C 
ENDBRANCH   1  22
BRANCH  15  23
ATOM     23  C   UNL     1      -5.254   0.907  -0.849  0.00  0.00    +0.342 C 
ATOM     24  O   UNL     1      -5.449   1.522   0.184  0.00  0.00    -0.245 OA
BRANCH  23  25
ATOM     25  O   UNL     1      -5.280   1.553  -2.035  0.00  0.00    -0.462 OA
BRANCH  25  26
ATOM     26  C   UNL     1      -5.429   2.974  -1.996  0.00  0.00    +0.229 C 
ATOM     27  C   UNL     1      -5.556   3.512  -3.422  0.00  0.00    +0.048 C 
ENDBRANCH  25  26
ENDBRANCH  23  25
ENDBRANCH  15  23
BRANCH  11  28
ATOM     28  C   UNL     1      -2.174  -2.977  -0.765  0.00  0.00    +0.340 C 
ATOM     29  O   UNL     1      -1.669  -3.341   0.280  0.00  0.00    -0.245 OA
BRANCH  28  30
ATOM     30  O   UNL     1      -1.497  -3.112  -1.924  0.00  0.00    -0.465 OA
ATOM     31  C   UNL     1      -0.193  -3.690  -1.850  0.00  0.00    +0.280 C 
ENDBRANCH  28  30
ENDBRANCH  11  28
TORSDOF 7
