REMARK  Name = ZINC67299267
REMARK  5 active torsions:
REMARK  status: ('A' for Active; 'I' for Inactive)
REMARK    1  A    between atoms: C_3  and  C_6
REMARK    2  A    between atoms: C_6  and  N_7
REMARK    3  A    between atoms: C_8  and  C_10
REMARK    4  A    between atoms: C_15  and  O_29
REMARK    5  A    between atoms: N_20  and  C_21
REMARK                            x       y       z     vdW  Elec       q    Type
REMARK                         _______ _______ _______ _____ _____    ______ ____
ROOT
ATOM      1  C   UNL     1       5.932   0.478   2.958  0.00  0.00    +0.097 A 
ATOM      2  C   UNL     1       7.294   0.589   3.197  0.00  0.00    +0.030 A 
ATOM      3  C   UNL     1       7.736   0.635   4.544  0.00  0.00    +0.018 A 
ATOM      4  C   UNL     1       9.072   0.947   4.842  0.00  0.00    +0.015 A 
ATOM      5  C   UNL     1       9.476   1.030   6.142  0.00  0.00    +0.046 A 
ATOM      6  C   UNL     1       8.574   0.799   7.180  0.00  0.00    +0.120 A 
ATOM      7  C   UNL     1       7.255   0.471   6.904  0.00  0.00    +0.092 A 
ATOM      8  C   UNL     1       6.829   0.376   5.590  0.00  0.00    +0.141 A 
ATOM      9  O   UNL     1       5.553   0.013   5.309  0.00  0.00    -0.438 OA
ATOM     10  C   UNL     1       5.036   0.456   4.131  0.00  0.00    +0.212 A 
ATOM     11  N   UNL     1       3.784   0.847   4.039  0.00  0.00    -0.324 N 
ATOM     12  H   UNL     1       3.430   1.143   3.186  0.00  0.00    +0.169 HD
ENDROOT
BRANCH  11  13
ATOM     13  C   UNL     1       2.980   0.836   5.146  0.00  0.00    +0.063 A 
ATOM     14  C   UNL     1       2.888  -0.314   5.934  0.00  0.00    +0.065 A 
ATOM     15  C   UNL     1       2.075  -0.318   7.050  0.00  0.00    +0.125 A 
ATOM     16  C   UNL     1       1.352   0.815   7.389  0.00  0.00    +0.040 A 
ATOM     17  C   UNL     1       1.440   1.956   6.613  0.00  0.00    +0.025 A 
ATOM     18  C   UNL     1       2.253   1.976   5.497  0.00  0.00    +0.064 A 
ATOM     19 CL   UNL     1       2.366   3.413   4.529  0.00  0.00    -0.081 Cl
ATOM     20  F   UNL     1       1.983  -1.429   7.814  0.00  0.00    -0.205 F 
ENDBRANCH  11  13
BRANCH   1  22
ATOM     21  N   UNL     1       6.245   0.349   0.539  0.00  0.00    -0.304 N 
ATOM     22  C   UNL     1       5.400   0.393   1.589  0.00  0.00    +0.250 C 
ATOM     23  O   UNL     1       4.198   0.361   1.403  0.00  0.00    -0.270 OA
ATOM     24  H   UNL     1       7.200   0.441   0.682  0.00  0.00    +0.149 HD
BRANCH  21  25
ATOM     25  C   UNL     1       5.721   0.164  -0.816  0.00  0.00    +0.179 C 
BRANCH  25  28
ATOM     26  C   UNL     1       8.522  -0.492  -3.119  0.00  0.00    +0.041 A 
ATOM     27  C   UNL     1       7.545  -0.936  -2.198  0.00  0.00    +0.046 A 
ATOM     28  C   UNL     1       6.863   0.152  -1.799  0.00  0.00    +0.122 A 
ATOM     29  O   UNL     1       7.372   1.225  -2.426  0.00  0.00    -0.466 OA
ATOM     30  C   UNL     1       8.378   0.841  -3.227  0.00  0.00    +0.195 A 
ENDBRANCH  25  28
ENDBRANCH  21  25
ENDBRANCH   1  22
BRANCH   6  31
ATOM     31  O   UNL     1       8.989   0.897   8.468  0.00  0.00    -0.507 OA
ATOM     32  H   UNL     1       8.896   1.782   8.845  0.00  0.00    +0.292 HD
ENDBRANCH   6  31
TORSDOF 5
