REMARK  Name = ZINC63744055
REMARK  7 active torsions:
REMARK  status: ('A' for Active; 'I' for Inactive)
REMARK    1  A    between atoms: C_1  and  C_2
REMARK    2  A    between atoms: C_4  and  C_32
REMARK    3  A    between atoms: N_10  and  C_11
REMARK    4  A    between atoms: N_13  and  C_14
REMARK    5  A    between atoms: N_20  and  C_21
REMARK    6  A    between atoms: C_21  and  C_22
REMARK    7  A    between atoms: C_22  and  C_23
REMARK                            x       y       z     vdW  Elec       q    Type
REMARK                         _______ _______ _______ _____ _____    ______ ____
ROOT
ATOM      1  C   UNL     1       3.314  -0.545  -0.443  0.00  0.00    +0.066 C 
ATOM      2  C   UNL     1       3.752   0.671   0.333  0.00  0.00    +0.044 A 
ATOM      3  C   UNL     1       4.458   1.686  -0.293  0.00  0.00    +0.046 A 
ATOM      4  C   UNL     1       4.841   2.787   0.457  0.00  0.00    +0.044 A 
ATOM      5  N   UNL     1       4.523   2.835   1.740  0.00  0.00    -0.217 NA
ATOM      6  C   UNL     1       3.847   1.848   2.307  0.00  0.00    +0.231 A 
ATOM      7  N   UNL     1       3.462   0.785   1.618  0.00  0.00    -0.217 NA
ATOM      8  N   UNL     1       3.530   1.933   3.657  0.00  0.00    -0.297 N 
ATOM      9  C   UNL     1       2.711   0.997   4.227  0.00  0.00    +0.198 C 
ATOM     10  N   UNL     1       3.105   0.343   5.306  0.00  0.00    -0.129 NA
ATOM     11  N   UNL     1       1.488   0.738   3.682  0.00  0.00    -0.357 N 
ATOM     12  C   UNL     1       5.611   3.914  -0.181  0.00  0.00    +0.066 C 
ATOM     13  H   UNL     1       3.889   2.655   4.195  0.00  0.00    +0.171 HD
ATOM     14  H   UNL     1       0.881   0.122   4.121  0.00  0.00    +0.162 HD
ENDROOT
BRANCH  10  15
ATOM     15  C   UNL     1       4.357   0.493   5.761  0.00  0.00    +0.330 C 
ATOM     16  O   UNL     1       5.103   1.302   5.238  0.00  0.00    -0.250 OA
ATOM     17  N   UNL     1       4.792  -0.250   6.798  0.00  0.00    -0.268 N 
ATOM     18  H   UNL     1       4.204  -0.907   7.204  0.00  0.00    +0.156 HD
BRANCH  17  19
ATOM     19  C   UNL     1       6.089  -0.074   7.290  0.00  0.00    +0.035 A 
ATOM     20  C   UNL     1       6.677   1.184   7.269  0.00  0.00    +0.023 A 
ATOM     21  C   UNL     1       7.958   1.354   7.755  0.00  0.00    +0.002 A 
ATOM     22  C   UNL     1       8.656   0.274   8.263  0.00  0.00    +0.000 A 
ATOM     23  C   UNL     1       8.074  -0.980   8.286  0.00  0.00    +0.002 A 
ATOM     24  C   UNL     1       6.791  -1.156   7.806  0.00  0.00    +0.023 A 
ENDBRANCH  17  19
ENDBRANCH  10  15
BRANCH  11  25
ATOM     25  C   UNL     1       1.090   1.392   2.432  0.00  0.00    +0.120 C 
BRANCH  25  26
ATOM     26  C   UNL     1      -0.437   1.426   2.338  0.00  0.00    +0.054 C 
BRANCH  26  27
ATOM     27  C   UNL     1      -0.847   2.153   1.084  0.00  0.00    -0.040 C 
ATOM     28  C   UNL     1      -2.099   2.524   0.731  0.00  0.00    -0.001 A 
ATOM     29  C   UNL     1      -3.404   2.365   1.384  0.00  0.00    +0.010 A 
ATOM     30  C   UNL     1      -4.508   2.852   0.772  0.00  0.00    +0.001 A 
ATOM     31  C   UNL     1      -4.436   3.501  -0.468  0.00  0.00    +0.002 A 
ATOM     32  C   UNL     1      -3.274   3.684  -1.130  0.00  0.00    +0.026 A 
ATOM     33  C   UNL     1      -2.051   3.213  -0.578  0.00  0.00    +0.043 A 
ATOM     34  N   UNL     1      -0.817   3.267  -1.017  0.00  0.00    -0.380 N 
ATOM     35  C   UNL     1       0.059   2.622  -0.033  0.00  0.00    +0.144 C 
ATOM     36  H   UNL     1      -0.530   3.670  -1.852  0.00  0.00    +0.160 HD
ENDBRANCH  26  27
ENDBRANCH  25  26
ENDBRANCH  11  25
TORSDOF 5
