REMARK  Name = ZINC01057128
REMARK  9 active torsions:
REMARK  status: ('A' for Active; 'I' for Inactive)
REMARK    1  A    between atoms: C_1  and  C_2
REMARK    2  A    between atoms: C_2  and  C_34
REMARK    3  A    between atoms: C_6  and  C_22
REMARK    4  A    between atoms: C_8  and  C_20
REMARK    5  A    between atoms: C_9  and  N_19
REMARK    6  A    between atoms: N_10  and  C_11
REMARK    7  A    between atoms: C_14  and  O_17
REMARK    8  A    between atoms: O_17  and  C_18
REMARK    9  A    between atoms: C_26  and  N_28
REMARK                            x       y       z     vdW  Elec       q    Type
REMARK                         _______ _______ _______ _____ _____    ______ ____
ROOT
ATOM      1  C   UNL     1       0.339   3.870   3.178  0.00  0.00    +0.011 C 
ATOM      2  C   UNL     1      -0.641   3.946   2.005  0.00  0.00    -0.023 C 
ATOM      3  C   UNL     1       0.094   4.430   0.752  0.00  0.00    +0.058 C 
ATOM      4  C   UNL     1       1.184   3.450   0.394  0.00  0.00    +0.025 C 
ATOM      5  C   UNL     1       1.051   2.134   0.664  0.00  0.00    +0.025 C 
ATOM      6  C   UNL     1       2.130   1.152   0.282  0.00  0.00    +0.097 C 
ATOM      7  C   UNL     1       3.432   1.852   0.024  0.00  0.00    +0.077 C 
ATOM      8  C   UNL     1       3.475   3.188  -0.214  0.00  0.00    +0.107 C 
ATOM      9  N   UNL     1       2.314   3.927  -0.216  0.00  0.00    -0.260 N 
ATOM     10  C   UNL     1      -0.098   1.638   1.304  0.00  0.00    +0.162 C 
ATOM     11  O   UNL     1      -0.191   0.446   1.523  0.00  0.00    -0.292 OA
ATOM     12  C   UNL     1      -1.218   2.553   1.717  0.00  0.00    +0.086 C 
ATOM     13  C   UNL     1      -1.774   4.916   2.343  0.00  0.00    +0.011 C 
ENDROOT
BRANCH   9  14
ATOM     14  C   UNL     1       2.287   5.178  -0.847  0.00  0.00    +0.040 A 
ATOM     15  C   UNL     1       2.662   6.317  -0.146  0.00  0.00    +0.027 A 
ATOM     16  C   UNL     1       2.642   7.549  -0.770  0.00  0.00    +0.047 A 
ATOM     17  C   UNL     1       2.235   7.650  -2.093  0.00  0.00    +0.120 A 
ATOM     18  C   UNL     1       1.855   6.513  -2.791  0.00  0.00    +0.047 A 
ATOM     19  C   UNL     1       1.881   5.280  -2.171  0.00  0.00    +0.027 A 
BRANCH  17  20
ATOM     20  O   UNL     1       2.209   8.864  -2.705  0.00  0.00    -0.495 OA
ATOM     21  C   UNL     1       2.614   9.992  -1.926  0.00  0.00    +0.277 C 
ENDBRANCH  17  20
ENDBRANCH   9  14
BRANCH   6  22
ATOM     22  C   UNL     1       1.709   0.416  -0.964  0.00  0.00    -0.033 A 
ATOM     23  C   UNL     1       1.460   1.116  -2.130  0.00  0.00    +0.005 A 
ATOM     24  C   UNL     1       1.074   0.440  -3.272  0.00  0.00    +0.003 A 
ATOM     25  C   UNL     1       0.939  -0.935  -3.249  0.00  0.00    +0.033 A 
ATOM     26  C   UNL     1       1.189  -1.635  -2.084  0.00  0.00    +0.126 A 
ATOM     27  C   UNL     1       1.578  -0.960  -0.942  0.00  0.00    +0.037 A 
BRANCH  26  28
ATOM     28  N   UNL     1       1.044  -3.108  -2.060  0.00  0.00    +0.056 N 
ATOM     29  O   UNL     1       0.705  -3.703  -3.067  0.00  0.00    -0.126 OA
ATOM     30  O   UNL     1       1.265  -3.725  -1.033  0.00  0.00    -0.126 OA
ENDBRANCH  26  28
ENDBRANCH   6  22
BRANCH   8  31
ATOM     31  N   UNL     1       4.680   3.804  -0.454  0.00  0.00    -0.345 N 
ATOM     32  H   UNL     1       5.486   3.272  -0.546  0.00  0.00    +0.144 HD
ATOM     33  H   UNL     1       4.724   4.770  -0.532  0.00  0.00    +0.144 HD
ENDBRANCH   8  31
BRANCH   7  34
ATOM     34  C   UNL     1       4.649   1.098   0.029  0.00  0.00    +0.099 C 
ATOM     35  N   UNL     1       5.615   0.500   0.033  0.00  0.00    -0.191 NA
ENDBRANCH   7  34
TORSDOF 6
