REMARK  Name = ZINC16024995
REMARK  6 active torsions:
REMARK  status: ('A' for Active; 'I' for Inactive)
REMARK    1  A    between atoms: C_1  and  C_2
REMARK    2  A    between atoms: C_2  and  C_4
REMARK    3  A    between atoms: C_2  and  O_35
REMARK    4  A    between atoms: N_12  and  C_15
REMARK    5  A    between atoms: C_15  and  C_16
REMARK    6  A    between atoms: C_16  and  C_17
REMARK                            x       y       z     vdW  Elec       q    Type
REMARK                         _______ _______ _______ _____ _____    ______ ____
ROOT
ATOM      1  C   UNL     1       0.718  -0.497  -1.257  0.00  0.00    +0.096 C 
ATOM      2  C   UNL     1       0.718  -2.040  -1.305  0.00  0.00    +0.109 C 
ATOM      3  C   UNL     1       0.514  -2.393  -2.805  0.00  0.00    +0.122 C 
ATOM      4  C   UNL     1      -0.832  -3.082  -2.820  0.00  0.00    +0.228 C 
ATOM      5  O   UNL     1      -1.377  -3.532  -3.805  0.00  0.00    -0.275 OA
ATOM      6  N   UNL     1      -1.327  -3.119  -1.578  0.00  0.00    -0.241 N 
ATOM      7  C   UNL     1      -0.534  -2.561  -0.635  0.00  0.00    +0.227 C 
ATOM      8  O   UNL     1      -0.778  -2.483   0.550  0.00  0.00    -0.275 OA
ATOM      9  C   UNL     1       0.421  -1.034  -3.511  0.00  0.00    +0.136 C 
ATOM     10  N   UNL     1      -0.024  -0.074  -2.474  0.00  0.00    -0.293 NA
ATOM     11  C   UNL     1       1.735  -0.642  -4.125  0.00  0.00    +0.004 A 
ATOM     12  C   UNL     1       2.996  -0.434  -3.613  0.00  0.00    +0.023 A 
ATOM     13  C   UNL     1       4.034  -0.071  -4.454  0.00  0.00    +0.018 A 
ATOM     14  C   UNL     1       3.800   0.082  -5.809  0.00  0.00    +0.017 A 
ATOM     15  C   UNL     1       2.538  -0.125  -6.326  0.00  0.00    +0.025 A 
ATOM     16  C   UNL     1       1.488  -0.490  -5.486  0.00  0.00    +0.039 A 
ATOM     17  N   UNL     1       0.144  -0.750  -5.765  0.00  0.00    -0.283 N 
ATOM     18  C   UNL     1      -0.551  -1.076  -4.658  0.00  0.00    +0.243 C 
ATOM     19  O   UNL     1      -1.731  -1.349  -4.598  0.00  0.00    -0.273 OA
ATOM     20 BR   UNL     1       5.767   0.215  -3.752  0.00  0.00    -0.050 Br
ATOM     21  H   UNL     1      -1.021  -0.126  -2.325  0.00  0.00    +0.124 HD
ATOM     22  H   UNL     1      -0.244  -0.701  -6.653  0.00  0.00    +0.155 HD
ENDROOT
BRANCH   1  24
ATOM     23  C   UNL     1       0.853  -0.327   1.232  0.00  0.00    +0.039 C 
ATOM     24  C   UNL     1       0.002  -0.004   0.002  0.00  0.00    +0.129 C 
BRANCH  24  25
ATOM     25  O   UNL     1      -0.194   1.409  -0.084  0.00  0.00    -0.390 OA
ATOM     26  H   UNL     1      -0.644   1.791   0.682  0.00  0.00    +0.210 HD
ENDBRANCH  24  25
ENDBRANCH   1  24
BRANCH   6  27
ATOM     27  C   UNL     1      -2.624  -3.720  -1.260  0.00  0.00    +0.121 C 
BRANCH  27  28
ATOM     28  C   UNL     1      -2.432  -5.202  -0.930  0.00  0.00    +0.054 C 
BRANCH  28  29
ATOM     29  C   UNL     1      -3.767  -5.821  -0.602  0.00  0.00    -0.046 A 
ATOM     30  C   UNL     1      -4.227  -5.822   0.701  0.00  0.00    +0.004 A 
ATOM     31  C   UNL     1      -5.451  -6.390   1.001  0.00  0.00    +0.000 A 
ATOM     32  C   UNL     1      -6.215  -6.956  -0.002  0.00  0.00    +0.000 A 
ATOM     33  C   UNL     1      -5.755  -6.954  -1.306  0.00  0.00    +0.000 A 
ATOM     34  C   UNL     1      -4.533  -6.382  -1.607  0.00  0.00    +0.004 A 
ENDBRANCH  28  29
ENDBRANCH  27  28
ENDBRANCH   6  27
TORSDOF 5
