REMARK  Name = ZINC67604550
REMARK  7 active torsions:
REMARK  status: ('A' for Active; 'I' for Inactive)
REMARK    1  A    between atoms: C_6  and  O_7
REMARK    2  A    between atoms: O_7  and  C_8
REMARK    3  A    between atoms: C_8  and  C_9
REMARK    4  A    between atoms: C_9  and  C_11
REMARK    5  A    between atoms: C_9  and  O_22
REMARK    6  A    between atoms: C_11  and  N_12
REMARK    7  A    between atoms: N_15  and  C_16
REMARK                            x       y       z     vdW  Elec       q    Type
REMARK                         _______ _______ _______ _____ _____    ______ ____
ROOT
ATOM      1  C   UNL     1      -3.576  -0.886   0.031  0.00  0.00    +0.169 C 
ENDROOT
BRANCH   1   2
ATOM      2  O   UNL     1      -3.585  -1.634   1.248  0.00  0.00    -0.387 OA
ATOM      3  H   UNL     1      -3.648  -1.089   2.045  0.00  0.00    +0.210 HD
ENDBRANCH   1   2
BRANCH   1   4
ATOM      4  C   UNL     1      -2.375   0.063   0.025  0.00  0.00    +0.261 C 
BRANCH   4   5
ATOM      5  O   UNL     1      -1.166  -0.700   0.009  0.00  0.00    -0.489 OA
BRANCH   5  11
ATOM      6  C   UNL     1      -0.017   1.382   0.010  0.00  0.00    +0.049 A 
ATOM      7  C   UNL     1       1.170   2.092   0.002  0.00  0.00    +0.053 A 
ATOM      8  C   UNL     1       2.381   1.419  -0.013  0.00  0.00    +0.166 A 
ATOM      9  C   UNL     1       2.402   0.027  -0.021  0.00  0.00    +0.170 A 
ATOM     10  C   UNL     1       1.212  -0.682  -0.012  0.00  0.00    +0.095 A 
ATOM     11  C   UNL     1       0.002  -0.004   0.002  0.00  0.00    +0.124 A 
ATOM     12  O   UNL     1       3.702  -0.390  -0.037  0.00  0.00    -0.452 OA
ATOM     13  C   UNL     1       4.468   0.757  -0.451  0.00  0.00    +0.466 C 
ATOM     14  O   UNL     1       3.668   1.875  -0.024  0.00  0.00    -0.453 OA
ENDBRANCH   5  11
ENDBRANCH   4   5
ENDBRANCH   1   4
BRANCH   1  15
ATOM     15  C   UNL     1      -4.868  -0.073  -0.078  0.00  0.00    +0.140 C 
BRANCH  15  16
ATOM     16  N   UNL     1      -6.017  -0.981  -0.072  0.00  0.00    -0.297 N 
ATOM     17  C   UNL     1      -7.268  -0.485  -0.159  0.00  0.00    +0.300 C 
ATOM     18  O   UNL     1      -7.441   0.715  -0.242  0.00  0.00    -0.253 OA
ATOM     19  N   UNL     1      -8.325  -1.321  -0.153  0.00  0.00    -0.296 N 
ATOM     20  H   UNL     1      -5.879  -1.939  -0.005  0.00  0.00    +0.150 HD
ATOM     21  H   UNL     1      -8.187  -2.278  -0.086  0.00  0.00    +0.151 HD
BRANCH  19  22
ATOM     22  C   UNL     1      -9.685  -0.782  -0.248  0.00  0.00    +0.079 C 
ATOM     23  C   UNL     1     -10.182  -0.397   1.149  0.00  0.00    +0.050 C 
ATOM     24  C   UNL     1     -11.629   0.091   1.050  0.00  0.00    +0.161 C 
ATOM     25  O   UNL     1     -12.437  -0.934   0.469  0.00  0.00    -0.380 OA
ATOM     26  C   UNL     1     -12.049  -1.302  -0.856  0.00  0.00    +0.161 C 
ATOM     27  C   UNL     1     -10.618  -1.846  -0.834  0.00  0.00    +0.050 C 
ENDBRANCH  19  22
ENDBRANCH  15  16
ENDBRANCH   1  15
TORSDOF 7
