REMARK  Name = ZINC37488229
REMARK  11 active torsions:
REMARK  status: ('A' for Active; 'I' for Inactive)
REMARK    1  A    between atoms: C_1  and  C_2
REMARK    2  A    between atoms: C_2  and  C_3
REMARK    3  A    between atoms: C_3  and  C_5
REMARK    4  A    between atoms: C_3  and  N_6
REMARK    5  A    between atoms: N_6  and  C_7
REMARK    6  A    between atoms: C_8  and  N_20
REMARK    7  A    between atoms: N_9  and  C_16
REMARK    8  A    between atoms: N_12  and  C_15
REMARK    9  A    between atoms: C_16  and  C_17
REMARK   10  A    between atoms: C_17  and  C_18
REMARK   11  A    between atoms: C_17  and  C_19
REMARK                            x       y       z     vdW  Elec       q    Type
REMARK                         _______ _______ _______ _____ _____    ______ ____
ROOT
ATOM      1  C   UNL     1      -3.478   0.055   1.312  0.00  0.00    +0.131 A 
ATOM      2  C   UNL     1      -4.080   0.507   2.455  0.00  0.00    +0.127 A 
ATOM      3  N   UNL     1      -5.441   0.710   2.467  0.00  0.00    -0.280 N 
ATOM      4  C   UNL     1      -6.175   0.467   1.366  0.00  0.00    +0.333 A 
ATOM      5  O   UNL     1      -7.376   0.652   1.395  0.00  0.00    -0.246 OA
ATOM      6  N   UNL     1      -5.600   0.023   0.234  0.00  0.00    -0.262 N 
ATOM      7  C   UNL     1      -4.270  -0.185   0.174  0.00  0.00    +0.279 A 
ATOM      8  O   UNL     1      -3.756  -0.582  -0.858  0.00  0.00    -0.265 OA
ATOM      9  C   UNL     1      -6.428  -0.233  -0.948  0.00  0.00    +0.157 C 
ENDROOT
BRANCH   2  10
ATOM     10  N   UNL     1      -3.330   0.755   3.583  0.00  0.00    -0.343 N 
ATOM     11  H   UNL     1      -2.371   0.610   3.569  0.00  0.00    +0.144 HD
ATOM     12  H   UNL     1      -3.761   1.075   4.391  0.00  0.00    +0.144 HD
ENDBRANCH   2  10
BRANCH   1  13
ATOM     13  N   UNL     1      -2.082  -0.162   1.273  0.00  0.00    -0.334 N 
ATOM     14  H   UNL     1      -1.554  -0.070   2.082  0.00  0.00    +0.147 HD
BRANCH  13  15
ATOM     15  C   UNL     1      -1.431  -0.524   0.011  0.00  0.00    +0.067 C 
ATOM     16  C   UNL     1      -1.545  -2.035  -0.205  0.00  0.00    +0.028 C 
BRANCH  15  18
ATOM     17  C   UNL     1       0.159   1.397   0.157  0.00  0.00    +0.005 C 
ATOM     18  C   UNL     1       0.045  -0.126   0.065  0.00  0.00    +0.018 C 
ENDBRANCH  15  18
ENDBRANCH  13  15
ENDBRANCH   1  13
BRANCH   3  19
ATOM     19  C   UNL     1      -6.095   1.192   3.686  0.00  0.00    +0.131 C 
BRANCH  19  20
ATOM     20  C   UNL     1      -6.123   2.722   3.678  0.00  0.00    +0.003 C 
ATOM     21  C   UNL     1      -6.914   3.224   4.888  0.00  0.00    +0.009 C 
ATOM     22  C   UNL     1      -4.692   3.259   3.747  0.00  0.00    +0.009 C 
ENDBRANCH  19  20
ENDBRANCH   3  19
TORSDOF 6
