REMARK  Name = ZINC04956330
REMARK  1 active torsions:
REMARK  status: ('A' for Active; 'I' for Inactive)
REMARK    1  A    between atoms: C_5  and  N_6
REMARK                            x       y       z     vdW  Elec       q    Type
REMARK                         _______ _______ _______ _____ _____    ______ ____
ROOT
ATOM      1  C   UNL     1      -1.288   1.951   0.045  0.00  0.00    +0.064 A 
ATOM      2  C   UNL     1      -0.016   1.359   0.009  0.00  0.00    +0.046 A 
ATOM      3  C   UNL     1       0.002  -0.004   0.002  0.00  0.00    +0.013 A 
ATOM      4  S   UNL     1      -1.703  -0.467   0.099  0.00  0.00    -0.068 S 
ATOM      5  C   UNL     1      -2.396   1.179   0.107  0.00  0.00    +0.166 A 
ATOM      6  C   UNL     1       1.218  -0.883  -0.085  0.00  0.00    +0.044 C 
ATOM      7  C   UNL     1       1.597  -1.362   1.321  0.00  0.00    +0.006 C 
ATOM      8  C   UNL     1       2.466  -0.319   2.019  0.00  0.00    +0.010 C 
ATOM      9  C   UNL     1       1.762   1.032   2.111  0.00  0.00    +0.096 C 
ATOM     10  C   UNL     1       2.154   1.885   0.909  0.00  0.00    +0.217 C 
ATOM     11  O   UNL     1       3.275   2.328   0.773  0.00  0.00    -0.275 OA
ATOM     12  N   UNL     1       1.176   2.119   0.002  0.00  0.00    -0.285 N 
ATOM     13  H   UNL     1       1.295   2.817  -0.661  0.00  0.00    +0.155 HD
ENDROOT
BRANCH   5  14
ATOM     14  N   UNL     1      -3.817   1.592   0.166  0.00  0.00    +0.063 N 
ATOM     15  O   UNL     1      -4.108   2.775   0.162  0.00  0.00    -0.126 OA
ATOM     16  O   UNL     1      -4.694   0.749   0.218  0.00  0.00    -0.126 OA
ENDBRANCH   5  14
TORSDOF 1
