REMARK  Name = ZINC29208290
REMARK  8 active torsions:
REMARK  status: ('A' for Active; 'I' for Inactive)
REMARK    1  A    between atoms: C_1  and  C_2
REMARK    2  A    between atoms: C_6  and  O_8
REMARK    3  A    between atoms: O_8  and  C_9
REMARK    4  A    between atoms: C_9  and  C_10
REMARK    5  A    between atoms: C_10  and  N_11
REMARK    6  A    between atoms: C_12  and  C_14
REMARK    7  A    between atoms: N_16  and  C_23
REMARK    8  A    between atoms: C_17  and  C_20
REMARK                            x       y       z     vdW  Elec       q    Type
REMARK                         _______ _______ _______ _____ _____    ______ ____
ROOT
ATOM      1  C   UNL     1       1.279  -0.718  -0.014  0.00  0.00    +0.123 C 
ATOM      2  N   UNL     1       2.447  -0.161  -0.022  0.00  0.00    -0.178 NA
ATOM      3  N   UNL     1       3.506  -1.066  -0.036  0.00  0.00    -0.212 N 
ATOM      4  C   UNL     1       2.965  -2.434  -0.039  0.00  0.00    +0.189 C 
ATOM      5  C   UNL     1       1.438  -2.222  -0.018  0.00  0.00    +0.096 C 
ENDROOT
BRANCH   3   6
ATOM      6  C   UNL     1       4.861  -0.730  -0.047  0.00  0.00    +0.052 A 
ATOM      7  C   UNL     1       5.827  -1.729  -0.056  0.00  0.00    +0.025 A 
ATOM      8  C   UNL     1       7.166  -1.392  -0.072  0.00  0.00    +0.002 A 
ATOM      9  C   UNL     1       7.546  -0.062  -0.068  0.00  0.00    +0.000 A 
ATOM     10  C   UNL     1       6.588   0.935  -0.053  0.00  0.00    +0.002 A 
ATOM     11  C   UNL     1       5.247   0.606  -0.043  0.00  0.00    +0.025 A 
ENDBRANCH   3   6
BRANCH   4  12
ATOM     12  C   UNL     1       3.411  -3.183   1.191  0.00  0.00    +0.233 C 
ATOM     13  O   UNL     1       3.822  -2.574   2.156  0.00  0.00    -0.274 OA
ATOM     14  N   UNL     1       3.354  -4.529   1.218  0.00  0.00    -0.328 N 
ATOM     15  H   UNL     1       3.679  -5.075   2.115  0.00  0.00    +0.145 HD
ATOM     16  H   UNL     1       2.981  -5.081   0.343  0.00  0.00    +0.145 HD
ENDBRANCH   4  12
BRANCH   1  18
ATOM     17  N   UNL     1      -0.016   1.344   0.009  0.00  0.00    -0.307 N 
ATOM     18  C   UNL     1       0.002  -0.004   0.002  0.00  0.00    +0.260 C 
ATOM     19  O   UNL     1      -1.044  -0.627   0.009  0.00  0.00    -0.269 OA
ATOM     20  H   UNL     1       0.929   1.907   0.008  0.00  0.00    +0.149 HD
BRANCH  17  21
ATOM     21  C   UNL     1      -1.295   2.059   0.019  0.00  0.00    +0.145 C 
BRANCH  21  22
ATOM     22  C   UNL     1      -1.036   3.567   0.026  0.00  0.00    +0.247 C 
BRANCH  22  23
ATOM     23  O   UNL     1      -0.400   3.946  -1.196  0.00  0.00    -0.490 OA
BRANCH  23  29
ATOM     24  C   UNL     1       1.498   7.516  -3.931  0.00  0.00    +0.044 C 
ATOM     25  C   UNL     1       0.826   7.039  -2.669  0.00  0.00    -0.047 A 
ATOM     26  C   UNL     1       0.516   7.941  -1.668  0.00  0.00    +0.003 A 
ATOM     27  C   UNL     1      -0.100   7.507  -0.509  0.00  0.00    +0.004 A 
ATOM     28  C   UNL     1      -0.408   6.169  -0.349  0.00  0.00    +0.045 A 
ATOM     29  C   UNL     1      -0.098   5.262  -1.351  0.00  0.00    +0.121 A 
ATOM     30  C   UNL     1       0.525   5.700  -2.511  0.00  0.00    +0.049 A 
ENDBRANCH  23  29
ENDBRANCH  22  23
ENDBRANCH  21  22
ENDBRANCH  17  21
ENDBRANCH   1  18
TORSDOF 7
