REMARK  Name = ZINC39468803
REMARK  3 active torsions:
REMARK  status: ('A' for Active; 'I' for Inactive)
REMARK    1  A    between atoms: C_4  and  O_27
REMARK    2  A    between atoms: C_5  and  C_7
REMARK    3  A    between atoms: C_24  and  O_25
REMARK                            x       y       z     vdW  Elec       q    Type
REMARK                         _______ _______ _______ _____ _____    ______ ____
ROOT
ATOM      1  C   UNL     1       1.245  -2.165  -0.022  0.00  0.00    +0.023 C 
ATOM      2  C   UNL     1       0.951  -2.841  -1.143  0.00  0.00    -0.011 C 
ATOM      3  C   UNL     1       0.992  -4.346  -1.143  0.00  0.00    +0.016 C 
ATOM      4  C   UNL     1       1.242  -4.867  -2.551  0.00  0.00    -0.003 C 
ATOM      5  C   UNL     1       1.923  -6.242  -2.521  0.00  0.00    -0.020 C 
ATOM      6  C   UNL     1       1.489  -6.948  -3.813  0.00  0.00    +0.159 C 
ATOM      7  O   UNL     1       2.096  -8.246  -3.903  0.00  0.00    -0.297 OA
ATOM      8  P   UNL     1       1.953  -9.227  -2.611  0.00  0.00    +0.421 P 
ATOM      9  O   UNL     1       3.053 -10.311  -2.635  0.00  0.00    -0.239 OA
ATOM     10  N   UNL     1       2.150  -8.239  -1.308  0.00  0.00    -0.267 NA
ATOM     11  N   UNL     1       1.544  -6.999  -1.334  0.00  0.00    +0.399 N 
ATOM     12  C   UNL     1       2.006  -6.358  -0.093  0.00  0.00    -0.046 C 
ATOM     13  C   UNL     1       2.120  -4.833  -0.237  0.00  0.00    +0.008 C 
ATOM     14  C   UNL     1       2.015  -4.175   1.113  0.00  0.00    +0.021 C 
ATOM     15  C   UNL     1       1.601  -2.913   1.206  0.00  0.00    +0.121 C 
ATOM     16  O   UNL     1       0.554  -9.883  -2.587  0.00  0.00    -0.128 OA
ATOM     17  H   UNL     1       2.671  -8.527  -0.542  0.00  0.00    +0.113 HD
ATOM     18  H   UNL     1       0.541  -7.102  -1.307  0.00  0.00    -0.055 HD
ENDROOT
BRANCH   1  23
ATOM     19  C   UNL     1      -0.017   1.376   0.010  0.00  0.00    +0.001 A 
ATOM     20  C   UNL     1       1.169   2.089   0.002  0.00  0.00    +0.004 A 
ATOM     21  C   UNL     1       2.382   1.426  -0.013  0.00  0.00    +0.046 A 
ATOM     22  C   UNL     1       2.416   0.041  -0.021  0.00  0.00    +0.125 A 
ATOM     23  C   UNL     1       1.219  -0.683  -0.013  0.00  0.00    +0.027 A 
ATOM     24  C   UNL     1       0.002  -0.004   0.002  0.00  0.00    +0.012 A 
BRANCH  22  25
ATOM     25  O   UNL     1       3.607  -0.612  -0.036  0.00  0.00    -0.506 OA
ATOM     26  H   UNL     1       3.960  -0.806   0.843  0.00  0.00    +0.292 HD
ENDBRANCH  22  25
ENDBRANCH   1  23
BRANCH  15  27
ATOM     27  O   UNL     1       1.501  -2.317   2.423  0.00  0.00    -0.506 OA
ATOM     28  H   UNL     1       1.756  -2.887   3.162  0.00  0.00    +0.292 HD
ENDBRANCH  15  27
TORSDOF 3
