REMARK  Name = ZINC37299421
REMARK  6 active torsions:
REMARK  status: ('A' for Active; 'I' for Inactive)
REMARK    1  A    between atoms: C_1  and  C_2
REMARK    2  A    between atoms: C_2  and  C_4
REMARK    3  A    between atoms: C_2  and  N_12
REMARK    4  A    between atoms: C_8  and  C_10
REMARK    5  A    between atoms: N_12  and  C_13
REMARK    6  A    between atoms: C_17  and  N_19
REMARK                            x       y       z     vdW  Elec       q    Type
REMARK                         _______ _______ _______ _____ _____    ______ ____
ROOT
ATOM      1  N   UNL     1       0.711  -0.489   1.189  0.00  0.00    -0.337 N 
ATOM      2  H   UNL     1       1.654  -0.707   1.135  0.00  0.00    +0.147 HD
ENDROOT
BRANCH   1   3
ATOM      3  C   UNL     1       0.027  -0.639   2.398  0.00  0.00    +0.030 A 
ATOM      4  C   UNL     1      -1.326  -0.333   2.475  0.00  0.00    +0.024 A 
ATOM      5  C   UNL     1      -1.999  -0.481   3.672  0.00  0.00    +0.024 A 
ATOM      6  C   UNL     1      -1.327  -0.934   4.794  0.00  0.00    +0.071 A 
ATOM      7  C   UNL     1       0.020  -1.240   4.720  0.00  0.00    +0.146 A 
ATOM      8  C   UNL     1       0.697  -1.099   3.524  0.00  0.00    +0.057 A 
ATOM      9 CL   UNL     1      -2.176  -1.120   6.296  0.00  0.00    -0.081 Cl
BRANCH   7  10
ATOM     10  N   UNL     1       0.736  -1.723   5.922  0.00  0.00    +0.058 N 
ATOM     11  O   UNL     1       1.913  -1.990   5.858  0.00  0.00    -0.126 OA
ATOM     12  O   UNL     1       0.143  -1.852   6.968  0.00  0.00    -0.126 OA
ENDBRANCH   7  10
ENDBRANCH   1   3
BRANCH   1  14
ATOM     13  C   UNL     1      -0.019   1.526   0.010  0.00  0.00    +0.033 C 
ATOM     14  C   UNL     1       0.002  -0.004   0.002  0.00  0.00    +0.098 C 
BRANCH  14  15
ATOM     15  C   UNL     1       0.707  -0.490  -1.238  0.00  0.00    -0.026 A 
ATOM     16  C   UNL     1       2.090  -0.510  -1.282  0.00  0.00    +0.005 A 
ATOM     17  C   UNL     1       2.746  -0.955  -2.416  0.00  0.00    +0.002 A 
ATOM     18  C   UNL     1       2.024  -1.382  -3.512  0.00  0.00    +0.019 A 
ATOM     19  C   UNL     1       0.628  -1.365  -3.474  0.00  0.00    +0.052 A 
ATOM     20  C   UNL     1      -0.027  -0.919  -2.324  0.00  0.00    +0.024 A 
BRANCH  19  21
ATOM     21  C   UNL     1      -0.127  -1.806  -4.607  0.00  0.00    +0.099 C 
ATOM     22  N   UNL     1      -0.727  -2.157  -5.506  0.00  0.00    -0.191 NA
ENDBRANCH  19  21
ENDBRANCH  14  15
ENDBRANCH   1  14
TORSDOF 5
