REMARK  Name = ZINC46934582
REMARK  8 active torsions:
REMARK  status: ('A' for Active; 'I' for Inactive)
REMARK    1  A    between atoms: C_1  and  C_2
REMARK    2  A    between atoms: N_7  and  C_9
REMARK    3  A    between atoms: C_9  and  C_10
REMARK    4  A    between atoms: C_13  and  N_16
REMARK    5  A    between atoms: C_17  and  C_19
REMARK    6  A    between atoms: C_20  and  C_21
REMARK    7  A    between atoms: N_23  and  C_30
REMARK    8  A    between atoms: N_26  and  C_29
REMARK                            x       y       z     vdW  Elec       q    Type
REMARK                         _______ _______ _______ _____ _____    ______ ____
ROOT
ATOM      1  N   UNL     1       1.679  -8.317   3.560  0.00  0.00    -0.282 N 
ATOM      2  C   UNL     1       2.462  -9.038   2.735  0.00  0.00    +0.241 C 
ATOM      3  O   UNL     1       3.477  -8.547   2.274  0.00  0.00    -0.270 OA
ATOM      4  H   UNL     1       0.903  -8.726   3.974  0.00  0.00    +0.155 HD
ENDROOT
BRANCH   1   8
ATOM      5  C   UNL     1       2.589  -4.327   4.337  0.00  0.00    -0.064 A 
ATOM      6  C   UNL     1       1.272  -4.749   4.350  0.00  0.00    +0.003 A 
ATOM      7  C   UNL     1       0.967  -6.071   4.092  0.00  0.00    +0.023 A 
ATOM      8  C   UNL     1       1.984  -6.977   3.821  0.00  0.00    +0.034 A 
ATOM      9  C   UNL     1       3.306  -6.550   3.809  0.00  0.00    +0.023 A 
ATOM     10  C   UNL     1       3.604  -5.225   4.062  0.00  0.00    +0.003 A 
BRANCH   5  11
ATOM     11  C   UNL     1       2.918  -2.884   4.619  0.00  0.00    -0.043 C 
BRANCH  11  17
ATOM     12  C   UNL     1       3.228   1.589   2.653  0.00  0.00    +0.005 C 
ATOM     13  C   UNL     1       3.023   0.103   2.349  0.00  0.00    -0.031 C 
ATOM     14  C   UNL     1       4.114  -0.377   1.387  0.00  0.00    -0.001 C 
ATOM     15  C   UNL     1       3.947  -1.881   1.152  0.00  0.00    -0.018 C 
ATOM     16  C   UNL     1       3.997  -2.610   2.496  0.00  0.00    -0.078 C 
ATOM     17  N   UNL     1       2.914  -2.126   3.360  0.00  0.00    +0.383 N 
ATOM     18  C   UNL     1       3.107  -0.700   3.649  0.00  0.00    -0.075 C 
ATOM     19  H   UNL     1       2.029  -2.257   2.894  0.00  0.00    -0.081 HD
ENDBRANCH  11  17
ENDBRANCH   5  11
ENDBRANCH   1   8
BRANCH   2  20
ATOM     20  C   UNL     1       2.106 -10.368   2.403  0.00  0.00    +0.068 C 
ATOM     21  C   UNL     1       2.825 -11.052   1.483  0.00  0.00    +0.020 C 
BRANCH  21  22
ATOM     22  C   UNL     1       3.981 -10.421   0.840  0.00  0.00    +0.056 A 
ATOM     23  C   UNL     1       5.271 -10.724   1.239  0.00  0.00    +0.103 A 
ATOM     24  N   UNL     1       6.318 -10.119   0.619  0.00  0.00    -0.303 N 
ATOM     25  C   UNL     1       6.130  -9.233  -0.372  0.00  0.00    +0.331 A 
ATOM     26  O   UNL     1       7.101  -8.719  -0.893  0.00  0.00    -0.246 OA
ATOM     27  N   UNL     1       4.904  -8.895  -0.806  0.00  0.00    -0.264 N 
ATOM     28  C   UNL     1       3.805  -9.450  -0.254  0.00  0.00    +0.263 A 
ATOM     29  O   UNL     1       2.693  -9.151  -0.647  0.00  0.00    -0.267 OA
ATOM     30  C   UNL     1       4.760  -7.921  -1.891  0.00  0.00    +0.157 C 
ATOM     31  C   UNL     1       7.684 -10.441   1.042  0.00  0.00    +0.153 C 
ENDBRANCH  21  22
ENDBRANCH   2  20
TORSDOF 5
