REMARK  Name = ZINC45335283
REMARK  8 active torsions:
REMARK  status: ('A' for Active; 'I' for Inactive)
REMARK    1  A    between atoms: C_1  and  C_2
REMARK    2  A    between atoms: C_2  and  C_3
REMARK    3  A    between atoms: C_10  and  C_12
REMARK    4  A    between atoms: C_15  and  S_18
REMARK    5  A    between atoms: N_16  and  C_17
REMARK    6  A    between atoms: S_18  and  C_19
REMARK    7  A    between atoms: C_19  and  C_20
REMARK    8  A    between atoms: C_33  and  C_35
REMARK                            x       y       z     vdW  Elec       q    Type
REMARK                         _______ _______ _______ _____ _____    ______ ____
ROOT
ATOM      1  S   UNL     1       1.818  -0.783 -11.284  0.00  0.00    -0.077 S 
ENDROOT
BRANCH   1   5
ATOM      2  C   UNL     1       0.807  -0.611  -7.512  0.00  0.00    +0.171 A 
ATOM      3  N   UNL     1      -0.093   0.153  -8.089  0.00  0.00    -0.128 NA
ATOM      4  N   UNL     1       0.114   0.195  -9.357  0.00  0.00    -0.122 NA
ATOM      5  C   UNL     1       1.158  -0.539  -9.669  0.00  0.00    +0.192 A 
ATOM      6  N   UNL     1       1.640  -1.074  -8.507  0.00  0.00    -0.305 N 
ATOM      7  C   UNL     1       2.798  -1.958  -8.352  0.00  0.00    +0.153 C 
BRANCH   2  14
ATOM      8  C   UNL     1       0.718  -0.497  -1.257  0.00  0.00    -0.007 C 
ATOM      9  C   UNL     1       0.853  -2.022  -1.200  0.00  0.00    +0.009 C 
ATOM     10  C   UNL     1       1.799  -2.475  -2.323  0.00  0.00    +0.043 C 
ATOM     11  C   UNL     1       1.382  -1.799  -3.589  0.00  0.00    -0.006 A 
ATOM     12  C   UNL     1       0.543  -0.733  -3.724  0.00  0.00    -0.036 A 
ATOM     13  C   UNL     1       0.307  -0.283  -5.017  0.00  0.00    +0.023 A 
ATOM     14  C   UNL     1       0.910  -0.910  -6.075  0.00  0.00    +0.057 A 
ATOM     15  S   UNL     1       1.852  -2.187  -5.254  0.00  0.00    -0.090 S 
ATOM     16  C   UNL     1      -0.088  -0.091  -2.491  0.00  0.00    +0.039 C 
BRANCH   8  18
ATOM     17  C   UNL     1      -0.019   1.526   0.010  0.00  0.00    +0.004 C 
ATOM     18  C   UNL     1       0.002  -0.004   0.002  0.00  0.00    +0.000 C 
ENDBRANCH   8  18
ENDBRANCH   2  14
ENDBRANCH   1   5
BRANCH   1  19
ATOM     19  C   UNL     1       0.732   0.197 -12.355  0.00  0.00    +0.173 C 
BRANCH  19  20
ATOM     20  C   UNL     1       1.191   0.074 -13.785  0.00  0.00    +0.230 C 
ATOM     21  O   UNL     1       2.157  -0.608 -14.055  0.00  0.00    -0.274 OA
ATOM     22  N   UNL     1       0.529   0.722 -14.764  0.00  0.00    -0.266 N 
ATOM     23  C   UNL     1      -0.585   1.518 -14.466  0.00  0.00    +0.058 A 
ATOM     24  C   UNL     1      -0.432   2.735 -13.823  0.00  0.00    +0.025 A 
ATOM     25  C   UNL     1      -1.541   3.518 -13.557  0.00  0.00    +0.002 A 
ATOM     26  C   UNL     1      -2.801   3.091 -13.934  0.00  0.00    +0.002 A 
ATOM     27  C   UNL     1      -2.964   1.873 -14.568  0.00  0.00    +0.025 A 
ATOM     28  C   UNL     1      -1.859   1.079 -14.827  0.00  0.00    +0.055 A 
ATOM     29  N   UNL     1      -2.005  -0.182 -15.418  0.00  0.00    -0.284 N 
ATOM     30  C   UNL     1      -1.224  -0.545 -16.459  0.00  0.00    +0.219 C 
ATOM     31  O   UNL     1      -1.303  -1.669 -16.908  0.00  0.00    -0.275 OA
ATOM     32  C   UNL     1      -0.258   0.437 -17.067  0.00  0.00    +0.118 C 
ATOM     33  C   UNL     1       0.965   0.611 -16.158  0.00  0.00    +0.087 C 
ATOM     34  C   UNL     1       1.724   1.879 -16.555  0.00  0.00    +0.029 C 
ATOM     35  H   UNL     1      -2.670  -0.800 -15.077  0.00  0.00    +0.155 HD
ENDBRANCH  19  20
ENDBRANCH   1  19
TORSDOF 5
