REMARK  Name = ZINC00497841
REMARK  2 active torsions:
REMARK  status: ('A' for Active; 'I' for Inactive)
REMARK    1  A    between atoms: C_5  and  O_15
REMARK    2  A    between atoms: N_8  and  O_9
REMARK                            x       y       z     vdW  Elec       q    Type
REMARK                         _______ _______ _______ _____ _____    ______ ____
ROOT
ATOM      1  C   UNL     1       1.292   3.366   2.458  0.00  0.00    +0.062 C 
ATOM      2  C   UNL     1       0.409   3.555   1.209  0.00  0.00    +0.031 C 
ATOM      3  C   UNL     1       1.203   3.115   0.007  0.00  0.00    +0.122 C 
ATOM      4  C   UNL     1       1.286   1.562  -0.002  0.00  0.00    +0.131 C 
ATOM      5  C   UNL     1       1.992   1.347  -1.347  0.00  0.00    +0.060 C 
ATOM      6  C   UNL     1       1.301   2.414  -2.242  0.00  0.00    +0.118 C 
ATOM      7  N   UNL     1       0.755   3.457  -1.331  0.00  0.00    -0.185 NA
ATOM      8  C   UNL     1       2.056   1.211   1.234  0.00  0.00    +0.140 A 
ATOM      9  C   UNL     1       2.055   2.064   2.365  0.00  0.00    +0.110 A 
ATOM     10  N   UNL     1       2.798   1.537   3.288  0.00  0.00    -0.054 NA
ATOM     11  O   UNL     1       3.292   0.324   2.803  0.00  0.00    -0.242 OA
ATOM     12  N   UNL     1       2.806   0.190   1.476  0.00  0.00    -0.051 NA
ENDROOT
BRANCH   7  13
ATOM     13  O   UNL     1       1.223   4.788  -1.716  0.00  0.00    -0.312 OA
ATOM     14  H   UNL     1       0.948   5.060  -2.603  0.00  0.00    +0.237 HD
ENDBRANCH   7  13
BRANCH   4  15
ATOM     15  O   UNL     1      -0.011   0.963   0.007  0.00  0.00    -0.381 OA
ATOM     16  H   UNL     1       0.002  -0.004   0.002  0.00  0.00    +0.211 HD
ENDBRANCH   4  15
TORSDOF 2
