REMARK  Name = ZINC42960554
REMARK  6 active torsions:
REMARK  status: ('A' for Active; 'I' for Inactive)
REMARK    1  A    between atoms: C_1  and  C_2
REMARK    2  A    between atoms: C_4  and  C_26
REMARK    3  A    between atoms: N_5  and  C_7
REMARK    4  A    between atoms: C_7  and  C_8
REMARK    5  A    between atoms: N_10  and  N_11
REMARK    6  A    between atoms: N_14  and  C_15
REMARK                            x       y       z     vdW  Elec       q    Type
REMARK                         _______ _______ _______ _____ _____    ______ ____
ROOT
ATOM      1  N   UNL     1       3.075  -5.110   2.818  0.00  0.00    -0.218 N 
ATOM      2  C   UNL     1       3.339  -6.179   3.595  0.00  0.00    +0.316 C 
ATOM      3  O   UNL     1       4.491  -6.492   3.827  0.00  0.00    -0.251 OA
ATOM      4  N   UNL     1       2.327  -6.902   4.114  0.00  0.00    -0.291 N 
ATOM      5  H   UNL     1       3.803  -4.590   2.444  0.00  0.00    +0.174 HD
ATOM      6  H   UNL     1       1.408  -6.653   3.928  0.00  0.00    +0.151 HD
ENDROOT
BRANCH   4   7
ATOM      7  C   UNL     1       2.615  -8.065   4.958  0.00  0.00    +0.105 C 
ATOM      8  C   UNL     1       1.441  -9.039   4.891  0.00  0.00    +0.027 C 
ATOM      9  C   UNL     1       1.661 -10.135   5.941  0.00  0.00    +0.007 C 
ATOM     10  C   UNL     1       1.485  -9.516   7.326  0.00  0.00    +0.035 C 
ATOM     11  C   UNL     1       2.326  -8.274   7.462  0.00  0.00    -0.042 A 
ATOM     12  C   UNL     1       2.841  -7.605   6.375  0.00  0.00    -0.024 A 
ATOM     13  C   UNL     1       3.604  -6.461   6.570  0.00  0.00    +0.006 A 
ATOM     14  C   UNL     1       3.851  -5.992   7.843  0.00  0.00    +0.000 A 
ATOM     15  C   UNL     1       3.336  -6.666   8.935  0.00  0.00    +0.000 A 
ATOM     16  C   UNL     1       2.579  -7.801   8.743  0.00  0.00    +0.004 A 
ENDBRANCH   4   7
BRANCH   1  19
ATOM     17  C   UNL     1       1.482  -3.682   1.773  0.00  0.00    +0.251 C 
ATOM     18  O   UNL     1       2.393  -3.031   1.306  0.00  0.00    -0.272 OA
ATOM     19  N   UNL     1       1.747  -4.751   2.550  0.00  0.00    -0.232 N 
ATOM     20  H   UNL     1       1.019  -5.271   2.923  0.00  0.00    +0.173 HD
BRANCH  17  21
ATOM     21  C   UNL     1       0.055  -3.295   1.485  0.00  0.00    +0.240 C 
BRANCH  21  26
ATOM     22  C   UNL     1      -0.018   1.503   0.010  0.00  0.00    +0.067 C 
ATOM     23  C   UNL     1       0.002  -0.004   0.002  0.00  0.00    +0.060 A 
ATOM     24  C   UNL     1       0.008  -0.818  -1.135  0.00  0.00    +0.047 A 
ATOM     25  C   UNL     1       0.028  -2.107  -0.725  0.00  0.00    +0.037 A 
ATOM     26  N   UNL     1       0.034  -2.109   0.625  0.00  0.00    -0.259 N 
ATOM     27  N   UNL     1       0.023  -0.777   1.058  0.00  0.00    -0.176 NA
ATOM     28  C   UNL     1       0.040  -3.323  -1.615  0.00  0.00    +0.065 C 
ENDBRANCH  21  26
ENDBRANCH  17  21
ENDBRANCH   1  19
TORSDOF 4
