REMARK  Name = ZINC62100122
REMARK  3 active torsions:
REMARK  status: ('A' for Active; 'I' for Inactive)
REMARK    1  A    between atoms: C_4  and  N_18
REMARK    2  A    between atoms: C_6  and  S_7
REMARK    3  A    between atoms: S_7  and  N_10
REMARK                            x       y       z     vdW  Elec       q    Type
REMARK                         _______ _______ _______ _____ _____    ______ ____
ROOT
ATOM      1  S   UNL     1      -1.513  -0.904   0.012  0.00  0.00    +0.061 S 
ATOM      2  O   UNL     1      -1.220  -2.185   0.553  0.00  0.00    -0.153 OA
ATOM      3  O   UNL     1      -2.493  -0.044   0.577  0.00  0.00    -0.153 OA
ENDROOT
BRANCH   1   4
ATOM      4  N   UNL     1      -1.949  -1.146  -1.567  0.00  0.00    -0.175 NA
ATOM      5  C   UNL     1      -2.783  -0.144  -2.227  0.00  0.00    +0.119 C 
ATOM      6  C   UNL     1      -4.131  -0.769  -2.607  0.00  0.00    +0.113 C 
ATOM      7  C   UNL     1      -3.953  -1.563  -3.881  0.00  0.00    +0.214 C 
ATOM      8  O   UNL     1      -4.434  -1.155  -4.917  0.00  0.00    -0.276 OA
ATOM      9  N   UNL     1      -3.269  -2.711  -3.873  0.00  0.00    -0.314 N 
ATOM     10  C   UNL     1      -2.684  -3.226  -2.628  0.00  0.00    +0.121 C 
ATOM     11  C   UNL     1      -1.479  -2.349  -2.249  0.00  0.00    +0.128 C 
ATOM     12  H   UNL     1      -3.158  -3.209  -4.698  0.00  0.00    +0.149 HD
ENDBRANCH   1   4
BRANCH   1  18
ATOM     13  C   UNL     1      -0.017   1.378   0.010  0.00  0.00    +0.031 A 
ATOM     14  C   UNL     1       1.170   2.089   0.002  0.00  0.00    +0.042 A 
ATOM     15  C   UNL     1       2.379   1.419  -0.013  0.00  0.00    +0.144 A 
ATOM     16  C   UNL     1       2.400   0.028  -0.021  0.00  0.00    +0.062 A 
ATOM     17  C   UNL     1       1.207  -0.681  -0.013  0.00  0.00    +0.054 A 
ATOM     18  C   UNL     1       0.002  -0.004   0.002  0.00  0.00    +0.107 A 
ATOM     19  F   UNL     1       3.537   2.113  -0.022  0.00  0.00    -0.204 F 
BRANCH  16  20
ATOM     20  N   UNL     1       3.620  -0.654  -0.037  0.00  0.00    -0.356 N 
ATOM     21  H   UNL     1       4.454  -0.158  -0.043  0.00  0.00    +0.142 HD
ATOM     22  H   UNL     1       3.634  -1.624  -0.043  0.00  0.00    +0.142 HD
ENDBRANCH  16  20
ENDBRANCH   1  18
TORSDOF 3
