REMARK  Name = ZINC12887287
REMARK  10 active torsions:
REMARK  status: ('A' for Active; 'I' for Inactive)
REMARK    1  A    between atoms: C_1  and  C_2
REMARK    2  A    between atoms: C_2  and  C_3
REMARK    3  A    between atoms: C_3  and  N_4
REMARK    4  A    between atoms: C_5  and  C_7
REMARK    5  A    between atoms: C_7  and  C_9
REMARK    6  A    between atoms: C_7  and  N_14
REMARK    7  A    between atoms: C_9  and  C_11
REMARK    8  A    between atoms: C_9  and  C_12
REMARK    9  A    between atoms: C_12  and  C_13
REMARK   10  A    between atoms: C_15  and  C_17
REMARK                            x       y       z     vdW  Elec       q    Type
REMARK                         _______ _______ _______ _____ _____    ______ ____
ROOT
ATOM      1  C   UNL     1      -1.586   0.447   1.463  0.00  0.00    +0.167 C 
ATOM      2  C   UNL     1      -0.182  -0.159   1.604  0.00  0.00    +0.069 C 
ATOM      3  C   UNL     1       0.800   0.895   2.046  0.00  0.00    -0.015 A 
ATOM      4  C   UNL     1       2.134   0.685   2.579  0.00  0.00    +0.003 A 
ATOM      5  C   UNL     1       2.868  -0.472   2.855  0.00  0.00    +0.010 A 
ATOM      6  C   UNL     1       4.132  -0.298   3.363  0.00  0.00    +0.001 A 
ATOM      7  C   UNL     1       4.664   0.959   3.598  0.00  0.00    +0.002 A 
ATOM      8  C   UNL     1       3.958   2.121   3.337  0.00  0.00    +0.026 A 
ATOM      9  C   UNL     1       2.672   1.974   2.820  0.00  0.00    +0.047 A 
ATOM     10  N   UNL     1       1.722   2.885   2.457  0.00  0.00    -0.356 N 
ATOM     11  H   UNL     1       1.822   3.848   2.512  0.00  0.00    +0.166 HD
ATOM     12  C   UNL     1       0.608   2.233   2.003  0.00  0.00    +0.046 A 
ATOM     13  C   UNL     1      -0.680   2.864   1.530  0.00  0.00    +0.155 C 
ATOM     14  N   UNL     1      -1.441   1.779   0.867  0.00  0.00    -0.273 N 
ATOM     15  C   UNL     1      -1.887   2.231  -0.312  0.00  0.00    +0.248 C 
ATOM     16  O   UNL     1      -2.709   1.671  -1.012  0.00  0.00    -0.270 OA
ATOM     17  C   UNL     1      -1.234   3.505  -0.630  0.00  0.00    +0.042 A 
ATOM     18  C   UNL     1      -0.460   3.898   0.480  0.00  0.00    -0.009 A 
ATOM     19  C   UNL     1       0.303   5.044   0.457  0.00  0.00    +0.006 A 
ATOM     20  C   UNL     1       0.267   5.805  -0.708  0.00  0.00    +0.000 A 
ATOM     21  C   UNL     1      -0.497   5.435  -1.796  0.00  0.00    +0.001 A 
ATOM     22  C   UNL     1      -1.267   4.281  -1.791  0.00  0.00    +0.013 A 
ENDROOT
BRANCH   1  24
ATOM     23  N   UNL     1      -2.431  -0.543   3.567  0.00  0.00    -0.302 N 
ATOM     24  C   UNL     1      -2.231   0.562   2.821  0.00  0.00    +0.235 C 
ATOM     25  O   UNL     1      -2.569   1.648   3.242  0.00  0.00    -0.274 OA
ATOM     26  H   UNL     1      -2.224  -1.418   3.203  0.00  0.00    +0.150 HD
BRANCH  23  27
ATOM     27  C   UNL     1      -2.962  -0.421   4.927  0.00  0.00    +0.162 C 
BRANCH  27  29
ATOM     28  N   UNL     1      -2.450  -1.333   7.168  0.00  0.00    -0.314 N 
ATOM     29  C   UNL     1      -2.226  -1.368   5.840  0.00  0.00    +0.234 C 
ATOM     30  O   UNL     1      -1.433  -2.161   5.379  0.00  0.00    -0.274 OA
ATOM     31  H   UNL     1      -3.137  -0.751   7.530  0.00  0.00    +0.149 HD
BRANCH  28  32
ATOM     32  C   UNL     1      -1.655  -2.174   8.067  0.00  0.00    +0.104 C 
BRANCH  32  34
ATOM     33  C   UNL     1      -1.276  -2.824  10.450  0.00  0.00    +0.005 C 
ATOM     34  C   UNL     1      -2.106  -1.946   9.511  0.00  0.00    +0.015 C 
ENDBRANCH  32  34
ENDBRANCH  28  32
ENDBRANCH  27  29
BRANCH  27  35
ATOM     35  C   UNL     1      -4.452  -0.769   4.926  0.00  0.00    +0.015 C 
ATOM     36  C   UNL     1      -5.220   0.281   4.121  0.00  0.00    +0.010 C 
BRANCH  35  37
ATOM     37  C   UNL     1      -4.654  -2.146   4.291  0.00  0.00    +0.002 C 
ATOM     38  C   UNL     1      -4.118  -3.226   5.233  0.00  0.00    +0.004 C 
ENDBRANCH  35  37
ENDBRANCH  27  35
ENDBRANCH  23  27
ENDBRANCH   1  24
TORSDOF 7
