REMARK  Name = ZINC45159965
REMARK  10 active torsions:
REMARK  status: ('A' for Active; 'I' for Inactive)
REMARK    1  A    between atoms: C_1  and  C_2
REMARK    2  A    between atoms: C_2  and  C_4
REMARK    3  A    between atoms: C_2  and  O_10
REMARK    4  A    between atoms: O_10  and  C_11
REMARK    5  A    between atoms: C_11  and  C_12
REMARK    6  A    between atoms: C_12  and  C_13
REMARK    7  A    between atoms: C_13  and  N_14
REMARK    8  A    between atoms: N_17  and  N_18
REMARK    9  A    between atoms: C_19  and  C_21
REMARK   10  A    between atoms: C_25  and  N_27
REMARK                            x       y       z     vdW  Elec       q    Type
REMARK                         _______ _______ _______ _____ _____    ______ ____
ROOT
ATOM      1  N   UNL     1      -5.292  -1.935  -2.425  0.00  0.00    -0.298 N 
ATOM      2  C   UNL     1      -6.019  -2.194  -3.530  0.00  0.00    +0.316 C 
ATOM      3  O   UNL     1      -5.539  -2.007  -4.631  0.00  0.00    -0.251 OA
ATOM      4  N   UNL     1      -7.279  -2.659  -3.414  0.00  0.00    -0.218 N 
ATOM      5  H   UNL     1      -5.675  -2.084  -1.546  0.00  0.00    +0.150 HD
ATOM      6  H   UNL     1      -7.802  -2.845  -4.209  0.00  0.00    +0.174 HD
ENDROOT
BRANCH   4   7
ATOM      7  N   UNL     1      -7.832  -2.875  -2.144  0.00  0.00    -0.229 N 
ATOM      8  C   UNL     1      -9.092  -3.341  -2.029  0.00  0.00    +0.260 C 
ATOM      9  O   UNL     1      -9.748  -3.574  -3.025  0.00  0.00    -0.269 OA
ATOM     10  H   UNL     1      -7.309  -2.689  -1.349  0.00  0.00    +0.173 HD
BRANCH   8  11
ATOM     11  C   UNL     1      -9.675  -3.568  -0.689  0.00  0.00    +0.040 A 
ATOM     12  C   UNL     1      -8.927  -3.296   0.457  0.00  0.00    +0.013 A 
ATOM     13  C   UNL     1      -9.477  -3.509   1.704  0.00  0.00    +0.003 A 
ATOM     14  C   UNL     1     -10.769  -3.993   1.819  0.00  0.00    +0.033 A 
ATOM     15  C   UNL     1     -11.516  -4.265   0.687  0.00  0.00    +0.127 A 
ATOM     16  C   UNL     1     -10.979  -4.050  -0.566  0.00  0.00    +0.045 A 
BRANCH  15  17
ATOM     17  N   UNL     1     -12.897  -4.782   0.820  0.00  0.00    +0.056 N 
ATOM     18  O   UNL     1     -13.370  -4.966   1.917  0.00  0.00    -0.126 OA
ATOM     19  O   UNL     1     -13.551  -5.020  -0.169  0.00  0.00    -0.126 OA
ENDBRANCH  15  17
ENDBRANCH   8  11
ENDBRANCH   4   7
BRANCH   1  20
ATOM     20  C   UNL     1      -3.923  -1.429  -2.551  0.00  0.00    +0.108 C 
BRANCH  20  21
ATOM     21  C   UNL     1      -3.326  -1.221  -1.157  0.00  0.00    +0.047 C 
BRANCH  21  22
ATOM     22  C   UNL     1      -1.896  -0.693  -1.289  0.00  0.00    +0.162 C 
BRANCH  22  23
ATOM     23  O   UNL     1      -1.339  -0.499   0.012  0.00  0.00    -0.372 OA
BRANCH  23  25
ATOM     24  C   UNL     1      -0.019   1.526   0.010  0.00  0.00    +0.043 C 
ATOM     25  C   UNL     1       0.002  -0.004   0.002  0.00  0.00    +0.145 C 
BRANCH  25  26
ATOM     26  C   UNL     1       0.731  -0.503   1.223  0.00  0.00    -0.019 A 
ATOM     27  C   UNL     1       0.053  -0.656   2.418  0.00  0.00    +0.006 A 
ATOM     28  C   UNL     1       0.722  -1.114   3.538  0.00  0.00    +0.000 A 
ATOM     29  C   UNL     1       2.068  -1.420   3.463  0.00  0.00    +0.000 A 
ATOM     30  C   UNL     1       2.745  -1.267   2.267  0.00  0.00    +0.000 A 
ATOM     31  C   UNL     1       2.076  -0.813   1.146  0.00  0.00    +0.006 A 
ENDBRANCH  25  26
ENDBRANCH  23  25
ENDBRANCH  22  23
ENDBRANCH  21  22
ENDBRANCH  20  21
ENDBRANCH   1  20
TORSDOF 9
