REMARK  Name = ZINC64776016
REMARK  7 active torsions:
REMARK  status: ('A' for Active; 'I' for Inactive)
REMARK    1  A    between atoms: C_1  and  C_2
REMARK    2  A    between atoms: C_2  and  C_4
REMARK    3  A    between atoms: C_2  and  N_18
REMARK    4  A    between atoms: N_6  and  C_7
REMARK    5  A    between atoms: C_7  and  C_8
REMARK    6  A    between atoms: C_8  and  C_9
REMARK    7  A    between atoms: N_28  and  C_33
REMARK                            x       y       z     vdW  Elec       q    Type
REMARK                         _______ _______ _______ _____ _____    ______ ____
ROOT
ATOM      1  C   UNL     1      -0.019   1.526   0.010  0.00  0.00    +0.038 C 
ATOM      2  C   UNL     1       0.002  -0.004   0.002  0.00  0.00    +0.157 C 
ENDROOT
BRANCH   2   3
ATOM      3  N   UNL     1       0.688  -0.476  -1.203  0.00  0.00    -0.303 N 
ATOM      4  C   UNL     1       0.301  -0.205  -2.522  0.00  0.00    +0.039 A 
ATOM      5  C   UNL     1      -0.674   0.659  -3.006  0.00  0.00    +0.024 A 
ATOM      6  C   UNL     1      -0.882   0.789  -4.365  0.00  0.00    +0.002 A 
ATOM      7  C   UNL     1      -0.122   0.059  -5.263  0.00  0.00    +0.001 A 
ATOM      8  C   UNL     1       0.845  -0.811  -4.804  0.00  0.00    +0.010 A 
ATOM      9  C   UNL     1       1.062  -0.958  -3.433  0.00  0.00    +0.003 A 
ATOM     10  C   UNL     1       1.968  -1.810  -2.663  0.00  0.00    +0.006 C 
ATOM     11  C   UNL     1       2.732  -2.857  -2.994  0.00  0.00    +0.094 C 
ATOM     12  N   UNL     1       3.370  -3.448  -1.886  0.00  0.00    -0.269 N 
ATOM     13  N   UNL     1       2.590  -3.582  -0.714  0.00  0.00    -0.224 N 
ATOM     14  C   UNL     1       1.796  -2.530  -0.351  0.00  0.00    +0.256 C 
ATOM     15  O   UNL     1       1.066  -2.578   0.616  0.00  0.00    -0.272 OA
ATOM     16  C   UNL     1       1.888  -1.301  -1.229  0.00  0.00    +0.194 C 
ATOM     17  C   UNL     1       2.631  -4.809   0.086  0.00  0.00    +0.156 C 
ATOM     18  H   UNL     1       4.292  -3.747  -1.925  0.00  0.00    +0.170 HD
ENDBRANCH   2   3
BRANCH   2  19
ATOM     19  C   UNL     1      -1.412  -0.526   0.013  0.00  0.00    +0.233 C 
ATOM     20  O   UNL     1      -1.808  -1.223  -0.897  0.00  0.00    -0.274 OA
ATOM     21  N   UNL     1      -2.236  -0.217   1.033  0.00  0.00    -0.313 N 
ATOM     22  H   UNL     1      -1.920   0.341   1.761  0.00  0.00    +0.149 HD
BRANCH  21  23
ATOM     23  C   UNL     1      -3.611  -0.724   1.044  0.00  0.00    +0.108 C 
BRANCH  23  24
ATOM     24  C   UNL     1      -4.327  -0.231   2.302  0.00  0.00    +0.052 C 
BRANCH  24  25
ATOM     25  C   UNL     1      -5.741  -0.752   2.313  0.00  0.00    -0.040 C 
ATOM     26  C   UNL     1      -6.192  -1.865   2.936  0.00  0.00    -0.001 A 
ATOM     27  C   UNL     1      -5.528  -2.884   3.757  0.00  0.00    +0.010 A 
ATOM     28  C   UNL     1      -6.261  -3.906   4.254  0.00  0.00    +0.001 A 
ATOM     29  C   UNL     1      -7.635  -4.016   4.005  0.00  0.00    +0.002 A 
ATOM     30  C   UNL     1      -8.316  -3.120   3.260  0.00  0.00    +0.026 A 
ATOM     31  C   UNL     1      -7.645  -2.004   2.688  0.00  0.00    +0.043 A 
ATOM     32  N   UNL     1      -8.075  -1.016   1.941  0.00  0.00    -0.380 N 
ATOM     33  C   UNL     1      -6.943  -0.134   1.635  0.00  0.00    +0.144 C 
ATOM     34  H   UNL     1      -8.989  -0.888   1.643  0.00  0.00    +0.160 HD
ENDBRANCH  24  25
ENDBRANCH  23  24
ENDBRANCH  21  23
ENDBRANCH   2  19
TORSDOF 5
