REMARK  Name = ZINC02430217
REMARK  11 active torsions:
REMARK  status: ('A' for Active; 'I' for Inactive)
REMARK    1  A    between atoms: C_1  and  C_2
REMARK    2  A    between atoms: N_8  and  C_9
REMARK    3  A    between atoms: C_9  and  C_10
REMARK    4  A    between atoms: C_10  and  C_11
REMARK    5  A    between atoms: C_14  and  O_19
REMARK    6  A    between atoms: C_15  and  O_17
REMARK    7  A    between atoms: O_17  and  C_18
REMARK    8  A    between atoms: O_19  and  C_20
REMARK    9  A    between atoms: C_21  and  C_29
REMARK   10  A    between atoms: C_23  and  C_27
REMARK   11  A    between atoms: C_24  and  N_26
REMARK                            x       y       z     vdW  Elec       q    Type
REMARK                         _______ _______ _______ _____ _____    ______ ____
ROOT
ATOM      1  C   UNL     1       0.430   5.247  -3.791  0.00  0.00    +0.064 C 
ATOM      2  C   UNL     1       0.326   6.742  -3.633  0.00  0.00    +0.022 A 
ATOM      3  C   UNL     1       0.851   7.550  -4.578  0.00  0.00    +0.068 A 
ATOM      4  C   UNL     1       0.756   8.950  -4.435  0.00  0.00    +0.141 A 
ATOM      5  C   UNL     1       0.123   9.466  -3.324  0.00  0.00    +0.072 A 
ATOM      6  C   UNL     1      -0.411   8.588  -2.372  0.00  0.00    +0.259 A 
ATOM      7  O   UNL     1      -0.979   9.031  -1.385  0.00  0.00    -0.267 OA
ATOM      8  N   UNL     1      -0.296   7.258  -2.540  0.00  0.00    -0.312 N 
ATOM      9  C   UNL     1      -0.000  10.952  -3.131  0.00  0.00    +0.103 C 
ATOM     10  C   UNL     1       0.266  11.666  -4.427  0.00  0.00    +0.098 C 
ATOM     11  C   UNL     1       0.881  11.041  -5.459  0.00  0.00    +0.199 C 
ATOM     12  O   UNL     1       1.280   9.760  -5.379  0.00  0.00    -0.441 OA
ENDROOT
BRANCH   9  13
ATOM     13  C   UNL     1       0.997  11.407  -2.096  0.00  0.00    -0.031 A 
ATOM     14  C   UNL     1       2.349  11.214  -2.309  0.00  0.00    +0.008 A 
ATOM     15  C   UNL     1       3.267  11.633  -1.365  0.00  0.00    +0.050 A 
ATOM     16  C   UNL     1       2.834  12.239  -0.197  0.00  0.00    +0.166 A 
ATOM     17  C   UNL     1       1.471  12.429   0.020  0.00  0.00    +0.167 A 
ATOM     18  C   UNL     1       0.557  12.011  -0.933  0.00  0.00    +0.054 A 
ATOM     19  O   UNL     1       1.303  13.040   1.229  0.00  0.00    -0.453 OA
ATOM     20  C   UNL     1       2.591  13.589   1.565  0.00  0.00    +0.466 C 
ATOM     21  O   UNL     1       3.519  12.731   0.876  0.00  0.00    -0.453 OA
ENDBRANCH   9  13
BRANCH  11  22
ATOM     22  N   UNL     1       1.103  11.737  -6.622  0.00  0.00    -0.328 N 
ATOM     23  H   UNL     1       1.542  11.303  -7.370  0.00  0.00    +0.145 HD
ATOM     24  H   UNL     1       0.821  12.662  -6.695  0.00  0.00    +0.145 HD
ENDBRANCH  11  22
BRANCH  10  25
ATOM     25  C   UNL     1      -0.137  13.032  -4.572  0.00  0.00    +0.101 C 
ATOM     26  N   UNL     1      -0.457  14.116  -4.688  0.00  0.00    -0.191 NA
ENDBRANCH  10  25
BRANCH   8  27
ATOM     27  C   UNL     1      -0.855   6.352  -1.533  0.00  0.00    +0.130 C 
BRANCH  27  28
ATOM     28  C   UNL     1       0.207   6.050  -0.474  0.00  0.00    +0.057 C 
BRANCH  28  29
ATOM     29  C   UNL     1      -0.368   5.119   0.562  0.00  0.00    -0.042 A 
ATOM     30  C   UNL     1      -1.003   5.634   1.677  0.00  0.00    +0.007 A 
ATOM     31  C   UNL     1      -1.532   4.784   2.629  0.00  0.00    +0.049 A 
ATOM     32  C   UNL     1      -1.432   3.411   2.465  0.00  0.00    +0.161 A 
ATOM     33  C   UNL     1      -0.787   2.893   1.346  0.00  0.00    +0.162 A 
ATOM     34  C   UNL     1      -0.259   3.751   0.395  0.00  0.00    +0.053 A 
BRANCH  33  35
ATOM     35  O   UNL     1      -0.682   1.547   1.184  0.00  0.00    -0.491 OA
ATOM     36  C   UNL     1      -0.013   1.086   0.008  0.00  0.00    +0.277 C 
ENDBRANCH  33  35
BRANCH  32  37
ATOM     37  O   UNL     1      -1.957   2.573   3.399  0.00  0.00    -0.491 OA
ATOM     38  C   UNL     1      -2.603   3.176   4.521  0.00  0.00    +0.277 C 
ENDBRANCH  32  37
ENDBRANCH  28  29
ENDBRANCH  27  28
ENDBRANCH   8  27
TORSDOF 8
