REMARK  Name = ZINC37822299
REMARK  5 active torsions:
REMARK  status: ('A' for Active; 'I' for Inactive)
REMARK    1  A    between atoms: C_6  and  C_7
REMARK    2  A    between atoms: C_7  and  N_8
REMARK    3  A    between atoms: N_8  and  C_9
REMARK    4  A    between atoms: C_9  and  C_10
REMARK    5  A    between atoms: C_13  and  C_15
REMARK                            x       y       z     vdW  Elec       q    Type
REMARK                         _______ _______ _______ _____ _____    ______ ____
ROOT
ATOM      1  N   UNL     1      -2.289  -1.132  -1.117  0.00  0.00    -0.290 N 
ATOM      2  C   UNL     1      -2.590  -0.118  -1.953  0.00  0.00    +0.203 C 
ATOM      3  O   UNL     1      -2.360   1.027  -1.625  0.00  0.00    -0.277 OA
ENDROOT
BRANCH   2   4
ATOM      4  C   UNL     1      -3.211  -0.407  -3.295  0.00  0.00    +0.027 C 
ATOM      5  C   UNL     1      -2.080  -0.739  -4.299  0.00  0.00    +0.060 C 
ATOM      6  S   UNL     1      -2.746   0.080  -5.816  0.00  0.00    -0.181 S 
ATOM      7  C   UNL     1      -3.679   1.413  -4.941  0.00  0.00    -0.011 C 
ATOM      8  N   UNL     1      -4.036   0.731  -3.678  0.00  0.00    +0.393 N 
ATOM      9  H   UNL     1      -4.991   0.414  -3.756  0.00  0.00    -0.084 HD
ATOM     10  H   UNL     1      -3.995   1.412  -2.933  0.00  0.00    -0.084 HD
ENDBRANCH   2   4
BRANCH   1  11
ATOM     11  C   UNL     1      -1.786  -0.847   0.229  0.00  0.00    +0.143 C 
BRANCH  11  17
ATOM     12  C   UNL     1       0.338   0.451  -0.043  0.00  0.00    +0.006 A 
ATOM     13  C   UNL     1       1.717   0.529  -0.074  0.00  0.00    +0.015 A 
ATOM     14  C   UNL     1       2.479  -0.608   0.133  0.00  0.00    +0.018 A 
ATOM     15  C   UNL     1       1.859  -1.821   0.371  0.00  0.00    +0.015 A 
ATOM     16  C   UNL     1       0.479  -1.898   0.402  0.00  0.00    +0.006 A 
ATOM     17  C   UNL     1      -0.281  -0.762   0.195  0.00  0.00    -0.030 A 
ATOM     18 BR   UNL     1       4.366  -0.502   0.090  0.00  0.00    -0.050 Br
ENDBRANCH  11  17
ENDBRANCH   1  11
BRANCH   1  19
ATOM     19  C   UNL     1      -2.466  -2.519  -1.554  0.00  0.00    +0.203 C 
BRANCH  19  20
ATOM     20  C   UNL     1      -3.848  -2.990  -1.183  0.00  0.00    +0.228 C 
ATOM     21  O   UNL     1      -4.610  -2.242  -0.609  0.00  0.00    -0.274 OA
ATOM     22  N   UNL     1      -4.237  -4.244  -1.488  0.00  0.00    -0.328 N 
ATOM     23  H   UNL     1      -3.627  -4.843  -1.946  0.00  0.00    +0.145 HD
ATOM     24  H   UNL     1      -5.126  -4.548  -1.248  0.00  0.00    +0.145 HD
ENDBRANCH  19  20
ENDBRANCH   1  19
TORSDOF 5
