REMARK  Name = ZINC05348192
REMARK  4 active torsions:
REMARK  status: ('A' for Active; 'I' for Inactive)
REMARK    1  A    between atoms: C_11  and  O_18
REMARK    2  A    between atoms: C_13  and  O_17
REMARK    3  A    between atoms: O_18  and  C_19
REMARK    4  A    between atoms: C_19  and  C_20
REMARK                            x       y       z     vdW  Elec       q    Type
REMARK                         _______ _______ _______ _____ _____    ______ ____
ROOT
ATOM      1  C   UNL     1       2.697  -2.620  -0.039  0.00  0.00    +0.021 A 
ATOM      2  C   UNL     1       1.447  -2.041  -0.024  0.00  0.00    +0.017 A 
ATOM      3  C   UNL     1       1.330  -0.652  -0.014  0.00  0.00    +0.065 A 
ATOM      4  C   UNL     1       2.477   0.157  -0.021  0.00  0.00    +0.141 A 
ATOM      5  C   UNL     1       3.729  -0.448  -0.036  0.00  0.00    +0.067 A 
ATOM      6  C   UNL     1       3.834  -1.824  -0.045  0.00  0.00    +0.044 A 
ATOM      7 CL   UNL     1       5.403  -2.566  -0.064  0.00  0.00    -0.083 Cl
ATOM      8  O   UNL     1       2.379   1.502  -0.012  0.00  0.00    -0.454 OA
ATOM      9  C   UNL     1       1.204   2.163   0.002  0.00  0.00    +0.146 A 
ATOM     10  C   UNL     1       1.192   3.551   0.010  0.00  0.00    +0.092 A 
ATOM     11  C   UNL     1      -0.012   4.238   0.025  0.00  0.00    +0.128 A 
ATOM     12  C   UNL     1      -1.221   3.552   0.033  0.00  0.00    +0.092 A 
ATOM     13  C   UNL     1      -1.232   2.169   0.020  0.00  0.00    +0.135 A 
ATOM     14  C   UNL     1      -0.018   1.468   0.010  0.00  0.00    +0.106 A 
ATOM     15  C   UNL     1       0.002  -0.004   0.002  0.00  0.00    +0.204 A 
ATOM     16  O   UNL     1      -1.026  -0.656   0.009  0.00  0.00    -0.286 OA
ENDROOT
BRANCH  13  17
ATOM     17  O   UNL     1      -2.410   1.496   0.022  0.00  0.00    -0.506 OA
ATOM     18  H   UNL     1      -2.747   1.296   0.906  0.00  0.00    +0.292 HD
ENDBRANCH  13  17
BRANCH  11  19
ATOM     19  O   UNL     1      -0.010   5.595   0.032  0.00  0.00    -0.483 OA
BRANCH  19  20
ATOM     20  C   UNL     1      -1.282   6.246   0.048  0.00  0.00    +0.324 C 
BRANCH  20  21
ATOM     21  C   UNL     1      -1.083   7.739   0.054  0.00  0.00    +0.248 C 
ATOM     22  O   UNL     1       0.038   8.201   0.046  0.00  0.00    -0.272 OA
ATOM     23  N   UNL     1      -2.151   8.562   0.069  0.00  0.00    -0.327 N 
ATOM     24  H   UNL     1      -3.047   8.192   0.075  0.00  0.00    +0.145 HD
ATOM     25  H   UNL     1      -2.022   9.523   0.073  0.00  0.00    +0.145 HD
ENDBRANCH  20  21
ENDBRANCH  19  20
ENDBRANCH  11  19
TORSDOF 4
