REMARK  Name = ZINC03938480
REMARK  7 active torsions:
REMARK  status: ('A' for Active; 'I' for Inactive)
REMARK    1  A    between atoms: C_1  and  O_2
REMARK    2  A    between atoms: O_2  and  N_3
REMARK    3  A    between atoms: N_6  and  C_11
REMARK    4  A    between atoms: C_8  and  C_10
REMARK    5  A    between atoms: C_10  and  N_45
REMARK    6  A    between atoms: C_17  and  C_24
REMARK    7  A    between atoms: N_19  and  C_21
REMARK                            x       y       z     vdW  Elec       q    Type
REMARK                         _______ _______ _______ _____ _____    ______ ____
ROOT
ATOM      1  C   UNL     1       3.023  -0.530  -1.820  0.00  0.00    +0.137 A 
ATOM      2  C   UNL     1       3.129  -1.923  -1.879  0.00  0.00    +0.162 A 
ATOM      3  C   UNL     1       2.161  -2.695  -1.294  0.00  0.00    +0.057 A 
ATOM      4  C   UNL     1       1.096  -2.049  -0.653  0.00  0.00    +0.066 A 
ATOM      5  C   UNL     1       0.021  -2.811  -0.002  0.00  0.00    +0.205 A 
ATOM      6  O   UNL     1       0.019  -4.030   0.003  0.00  0.00    -0.286 OA
ATOM      7  C   UNL     1      -1.054  -2.039   0.644  0.00  0.00    +0.126 A 
ATOM      8  C   UNL     1      -0.994  -0.661   0.612  0.00  0.00    +0.106 A 
ATOM      9  N   UNL     1       0.002  -0.004   0.002  0.00  0.00    -0.329 N 
ATOM     10  C   UNL     1       1.045  -0.644  -0.626  0.00  0.00    +0.124 A 
ATOM     11  F   UNL     1       4.175  -2.502  -2.509  0.00  0.00    -0.202 F 
ATOM     12  N   UNL     1       2.006   0.138  -1.208  0.00  0.00    -0.327 N 
ATOM     13  H   UNL     1       1.962   1.163  -1.184  0.00  0.00    +0.169 HD
ENDROOT
BRANCH   1  17
ATOM     14  N   UNL     1       5.301   1.427  -5.552  0.00  0.00    -0.092 NA
ATOM     15  C   UNL     1       4.692   1.308  -4.433  0.00  0.00    +0.077 C 
ATOM     16  C   UNL     1       4.011   0.065  -3.887  0.00  0.00    +0.160 C 
ATOM     17  N   UNL     1       4.003   0.250  -2.413  0.00  0.00    -0.308 N 
ATOM     18  C   UNL     1       3.709   1.697  -2.240  0.00  0.00    +0.114 C 
ATOM     19  C   UNL     1       4.500   2.381  -3.376  0.00  0.00    +0.038 C 
BRANCH  14  21
ATOM     20  C   UNL     1       6.097   0.595  -7.642  0.00  0.00    +0.313 C 
ATOM     21  O   UNL     1       5.391   0.320  -6.430  0.00  0.00    -0.397 OA
ENDBRANCH  14  21
BRANCH  19  22
ATOM     22  C   UNL     1       3.699   3.552  -3.948  0.00  0.00    -0.075 C 
BRANCH  22  25
ATOM     23  H   UNL     1       4.830   3.635  -5.666  0.00  0.00    -0.090 HD
ATOM     24  H   UNL     1       4.006   5.042  -5.336  0.00  0.00    -0.090 HD
ATOM     25  N   UNL     1       4.533   4.271  -4.928  0.00  0.00    +0.379 N 
ATOM     26  H   UNL     1       5.363   4.646  -4.454  0.00  0.00    -0.090 HD
ENDBRANCH  22  25
ENDBRANCH  19  22
ENDBRANCH   1  17
BRANCH   9  27
ATOM     27  C   UNL     1      -0.018   1.461   0.010  0.00  0.00    +0.089 C 
ATOM     28  C   UNL     1      -0.969   2.149   0.991  0.00  0.00    +0.027 C 
ATOM     29  C   UNL     1      -1.280   2.153  -0.508  0.00  0.00    +0.027 C 
ENDBRANCH   9  27
BRANCH   7  30
ATOM     30  C   UNL     1      -2.167  -2.724   1.318  0.00  0.00    +0.392 C 
ATOM     31  O   UNL     1      -2.206  -3.938   1.345  0.00  0.00    -0.240 OA
ATOM     32  O   UNL     1      -3.144  -2.005   1.905  0.00  0.00    -0.240 OA
ENDBRANCH   7  30
TORSDOF 6
