REMARK  Name = ZINC37883952
REMARK  4 active torsions:
REMARK  status: ('A' for Active; 'I' for Inactive)
REMARK    1  A    between atoms: C_1  and  C_2
REMARK    2  A    between atoms: C_5  and  N_9
REMARK    3  A    between atoms: N_9  and  C_10
REMARK    4  A    between atoms: C_15  and  O_17
REMARK                            x       y       z     vdW  Elec       q    Type
REMARK                         _______ _______ _______ _____ _____    ______ ____
ROOT
ATOM      1  N   UNL     1       0.057  -4.170  -0.025  0.00  0.00    -0.334 N 
ATOM      2  H   UNL     1       0.068  -4.661   0.812  0.00  0.00    +0.147 HD
ENDROOT
BRANCH   1   7
ATOM      3  C   UNL     1      -0.018   1.503   0.010  0.00  0.00    +0.044 C 
ATOM      4  C   UNL     1       0.002  -0.004   0.002  0.00  0.00    -0.048 A 
ATOM      5  C   UNL     1       0.006  -0.687  -1.200  0.00  0.00    +0.005 A 
ATOM      6  C   UNL     1       0.024  -2.068  -1.212  0.00  0.00    +0.026 A 
ATOM      7  C   UNL     1       0.039  -2.772  -0.016  0.00  0.00    +0.063 A 
ATOM      8  C   UNL     1       0.036  -2.083   1.192  0.00  0.00    +0.144 A 
ATOM      9  C   UNL     1       0.023  -0.700   1.197  0.00  0.00    +0.043 A 
ATOM     10  F   UNL     1       0.050  -2.763   2.359  0.00  0.00    -0.204 F 
ENDBRANCH   1   7
BRANCH   1  11
ATOM     11  C   UNL     1       0.060  -4.894  -1.298  0.00  0.00    +0.127 C 
ATOM     12  C   UNL     1       1.507  -5.106  -1.798  0.00  0.00    +0.184 C 
ATOM     13  O   UNL     1       1.873  -6.420  -1.321  0.00  0.00    -0.375 OA
ATOM     14  C   UNL     1       0.697  -7.236  -1.514  0.00  0.00    +0.193 C 
ATOM     15  C   UNL     1      -0.488  -6.327  -1.108  0.00  0.00    +0.162 C 
BRANCH  15  16
ATOM     16  O   UNL     1      -1.610  -6.551  -1.964  0.00  0.00    -0.388 OA
ATOM     17  H   UNL     1      -1.994  -7.435  -1.886  0.00  0.00    +0.210 HD
ENDBRANCH  15  16
ENDBRANCH   1  11
TORSDOF 3
