REMARK  Name = ZINC15465145
REMARK  10 active torsions:
REMARK  status: ('A' for Active; 'I' for Inactive)
REMARK    1  A    between atoms: C_1  and  C_2
REMARK    2  A    between atoms: C_5  and  C_31
REMARK    3  A    between atoms: C_6  and  N_8
REMARK    4  A    between atoms: C_10  and  C_15
REMARK    5  A    between atoms: N_17  and  C_18
REMARK    6  A    between atoms: C_23  and  C_24
REMARK    7  A    between atoms: N_26  and  C_27
REMARK    8  A    between atoms: C_27  and  C_28
REMARK    9  A    between atoms: C_27  and  C_29
REMARK   10  A    between atoms: C_27  and  C_30
REMARK                            x       y       z     vdW  Elec       q    Type
REMARK                         _______ _______ _______ _____ _____    ______ ____
ROOT
ATOM      1  C   UNL     1      -7.142   4.478   2.162  0.00  0.00    +0.222 C 
ATOM      2  O   UNL     1      -6.679   5.516   2.584  0.00  0.00    -0.275 OA
ATOM      3  N   UNL     1      -8.478   4.309   2.105  0.00  0.00    -0.285 N 
ATOM      4  H   UNL     1      -8.849   3.513   1.693  0.00  0.00    +0.155 HD
ENDROOT
BRANCH   1   7
ATOM      5  N   UNL     1      -4.112   2.455   2.368  0.00  0.00    -0.270 N 
ATOM      6  C   UNL     1      -4.748   3.727   2.003  0.00  0.00    +0.127 C 
ATOM      7  C   UNL     1      -6.223   3.376   1.700  0.00  0.00    +0.102 C 
ATOM      8  C   UNL     1      -6.422   2.098   2.547  0.00  0.00    +0.110 C 
ATOM      9  C   UNL     1      -5.028   1.525   2.687  0.00  0.00    +0.221 C 
ATOM     10  O   UNL     1      -4.775   0.392   3.037  0.00  0.00    -0.275 OA
BRANCH   5  16
ATOM     11  C   UNL     1      -0.013   1.069   0.034  0.00  0.00    +0.044 C 
ATOM     12  C   UNL     1      -0.717   1.569   1.269  0.00  0.00    -0.049 A 
ATOM     13  C   UNL     1       0.004   1.817   2.423  0.00  0.00    +0.004 A 
ATOM     14  C   UNL     1      -0.638   2.276   3.558  0.00  0.00    +0.005 A 
ATOM     15  C   UNL     1      -2.002   2.488   3.543  0.00  0.00    -0.029 A 
ATOM     16  C   UNL     1      -2.729   2.241   2.386  0.00  0.00    +0.039 A 
ATOM     17  C   UNL     1      -2.081   1.784   1.246  0.00  0.00    +0.027 A 
ATOM     18  C   UNL     1      -2.702   2.989   4.781  0.00  0.00    +0.045 C 
ENDBRANCH   5  16
ENDBRANCH   1   7
BRANCH   3  19
ATOM     19  C   UNL     1      -9.325   5.278   2.637  0.00  0.00    +0.046 A 
ATOM     20  C   UNL     1      -8.877   6.117   3.648  0.00  0.00    +0.024 A 
ATOM     21  C   UNL     1      -9.717   7.080   4.172  0.00  0.00    +0.002 A 
ATOM     22  C   UNL     1     -11.014   7.210   3.700  0.00  0.00    +0.001 A 
ATOM     23  C   UNL     1     -11.477   6.382   2.701  0.00  0.00    +0.015 A 
ATOM     24  C   UNL     1     -10.637   5.407   2.158  0.00  0.00    +0.058 A 
BRANCH  24  25
ATOM     25  C   UNL     1     -11.127   4.518   1.088  0.00  0.00    +0.246 C 
ATOM     26  O   UNL     1     -10.426   3.611   0.682  0.00  0.00    -0.270 OA
ATOM     27  N   UNL     1     -12.353   4.709   0.561  0.00  0.00    -0.307 N 
ATOM     28  H   UNL     1     -12.913   5.432   0.885  0.00  0.00    +0.150 HD
BRANCH  27  29
ATOM     29  C   UNL     1     -12.840   3.826  -0.501  0.00  0.00    +0.026 C 
ATOM     30  C   UNL     1     -12.879   2.385   0.011  0.00  0.00    +0.031 C 
ATOM     31  C   UNL     1     -14.247   4.257  -0.919  0.00  0.00    +0.031 C 
ATOM     32  C   UNL     1     -11.901   3.913  -1.707  0.00  0.00    +0.031 C 
ENDBRANCH  27  29
ENDBRANCH  24  25
ENDBRANCH   3  19
TORSDOF 5
