REMARK  Name = ZINC66708705
REMARK  4 active torsions:
REMARK  status: ('A' for Active; 'I' for Inactive)
REMARK    1  A    between atoms: C_1  and  C_2
REMARK    2  A    between atoms: C_2  and  C_4
REMARK    3  A    between atoms: C_2  and  N_21
REMARK    4  A    between atoms: C_10  and  C_13
REMARK                            x       y       z     vdW  Elec       q    Type
REMARK                         _______ _______ _______ _____ _____    ______ ____
ROOT
ATOM      1  C   UNL     1       0.609  -0.451  -1.303  0.00  0.00    +0.236 C 
ATOM      2  O   UNL     1       1.568  -1.194  -1.302  0.00  0.00    -0.274 OA
ATOM      3  N   UNL     1       0.088  -0.024  -2.470  0.00  0.00    -0.295 N 
ATOM      4  C   UNL     1      -0.999   0.968  -2.496  0.00  0.00    +0.136 C 
ATOM      5  C   UNL     1      -2.120   0.433  -3.395  0.00  0.00    +0.179 C 
ATOM      6  O   UNL     1      -1.570   0.059  -4.661  0.00  0.00    -0.369 OA
ATOM      7  C   UNL     1      -0.609  -0.997  -4.593  0.00  0.00    +0.166 C 
ATOM      8  C   UNL     1       0.593  -0.531  -3.756  0.00  0.00    +0.144 C 
ENDROOT
BRANCH   7   9
ATOM      9  C   UNL     1      -0.148  -1.348  -5.984  0.00  0.00    -0.016 A 
ATOM     10  C   UNL     1       0.080  -0.346  -6.909  0.00  0.00    +0.008 A 
ATOM     11  C   UNL     1       0.503  -0.667  -8.185  0.00  0.00    +0.022 A 
ATOM     12  C   UNL     1       0.699  -1.990  -8.537  0.00  0.00    +0.059 A 
ATOM     13  C   UNL     1       0.471  -2.993  -7.610  0.00  0.00    +0.060 A 
ATOM     14  C   UNL     1       0.053  -2.670  -6.332  0.00  0.00    +0.027 A 
ATOM     15 CL   UNL     1       0.716  -4.654  -8.050  0.00  0.00    -0.082 Cl
ATOM     16 CL   UNL     1       1.230  -2.393 -10.140  0.00  0.00    -0.082 Cl
ENDBRANCH   7   9
BRANCH   1  18
ATOM     17  C   UNL     1       0.550   1.373   0.376  0.00  0.00    +0.038 C 
ATOM     18  C   UNL     1       0.001  -0.005   0.002  0.00  0.00    +0.157 C 
BRANCH  18  19
ATOM     19  N   UNL     1       0.340  -0.968   1.053  0.00  0.00    -0.289 N 
ATOM     20  C   UNL     1      -0.452  -1.090   2.136  0.00  0.00    +0.298 C 
ATOM     21  O   UNL     1      -1.448  -0.400   2.242  0.00  0.00    -0.253 OA
ATOM     22  N   UNL     1      -0.140  -1.975   3.103  0.00  0.00    -0.313 N 
ATOM     23  H   UNL     1       1.135  -1.518   0.969  0.00  0.00    +0.151 HD
ATOM     24  H   UNL     1       0.654  -2.525   3.019  0.00  0.00    +0.146 HD
ATOM     25  H   UNL     1      -0.711  -2.063   3.883  0.00  0.00    +0.146 HD
ENDBRANCH  18  19
ENDBRANCH   1  18
TORSDOF 3
