REMARK  Name = ZINC49455267
REMARK  4 active torsions:
REMARK  status: ('A' for Active; 'I' for Inactive)
REMARK    1  A    between atoms: C_4  and  O_10
REMARK    2  A    between atoms: C_5  and  N_7
REMARK    3  A    between atoms: O_10  and  C_11
REMARK    4  A    between atoms: C_11  and  C_13
REMARK                            x       y       z     vdW  Elec       q    Type
REMARK                         _______ _______ _______ _____ _____    ______ ____
ROOT
ATOM      1  C   UNL     1       6.014  -0.580  -0.281  0.00  0.00    +0.124 A 
ATOM      2  C   UNL     1       7.190   0.151  -0.391  0.00  0.00    +0.033 A 
ATOM      3  C   UNL     1       8.414  -0.541  -0.514  0.00  0.00    +0.038 A 
ATOM      4  C   UNL     1       8.445  -1.925  -0.518  0.00  0.00    +0.030 A 
ATOM      5  N   UNL     1       7.304  -2.636  -0.417  0.00  0.00    -0.325 N 
ATOM      6  H   UNL     1       7.350  -3.605  -0.430  0.00  0.00    +0.169 HD
ATOM      7  C   UNL     1       6.105  -2.042  -0.293  0.00  0.00    +0.263 A 
ATOM      8  O   UNL     1       5.096  -2.718  -0.197  0.00  0.00    -0.267 OA
ATOM      9  C   UNL     1       9.745  -2.681  -0.628  0.00  0.00    +0.054 C 
ATOM     10  C   UNL     1      10.829  -1.830  -1.282  0.00  0.00    +0.014 C 
ATOM     11  C   UNL     1      10.972  -0.512  -0.508  0.00  0.00    +0.080 C 
ATOM     12  C   UNL     1       9.661   0.232  -0.643  0.00  0.00    +0.165 C 
ATOM     13  O   UNL     1       9.638   1.427  -0.851  0.00  0.00    -0.292 OA
ENDROOT
BRANCH   1  14
ATOM     14  C   UNL     1       4.715   0.096  -0.148  0.00  0.00    +0.350 C 
ATOM     15  O   UNL     1       4.659   1.310  -0.140  0.00  0.00    -0.244 OA
BRANCH  14  16
ATOM     16  O   UNL     1       3.586  -0.632  -0.037  0.00  0.00    -0.420 OA
BRANCH  16  20
ATOM     17  C   UNL     1      -0.016   1.379   0.006  0.00  0.00    +0.002 A 
ATOM     18  C   UNL     1       0.615   1.069   1.196  0.00  0.00    +0.004 A 
ATOM     19  C   UNL     1       1.821   0.396   1.185  0.00  0.00    +0.049 A 
ATOM     20  C   UNL     1       2.399   0.030  -0.023  0.00  0.00    +0.162 A 
ATOM     21  C   UNL     1       1.763   0.342  -1.216  0.00  0.00    +0.168 A 
ATOM     22  C   UNL     1       0.557   1.016  -1.199  0.00  0.00    +0.036 A 
BRANCH  21  23
ATOM     23  N   UNL     1       2.377  -0.046  -2.506  0.00  0.00    +0.060 N 
ATOM     24  O   UNL     1       1.822   0.226  -3.545  0.00  0.00    -0.126 OA
ATOM     25  O   UNL     1       3.432  -0.635  -2.520  0.00  0.00    -0.126 OA
ENDBRANCH  21  23
ENDBRANCH  16  20
ENDBRANCH  14  16
ENDBRANCH   1  14
TORSDOF 4
