REMARK  Name = ZINC09491405
REMARK  11 active torsions:
REMARK  status: ('A' for Active; 'I' for Inactive)
REMARK    1  A    between atoms: C_1  and  C_2
REMARK    2  A    between atoms: C_2  and  C_3
REMARK    3  A    between atoms: C_3  and  C_4
REMARK    4  A    between atoms: C_4  and  C_5
REMARK    5  A    between atoms: C_8  and  N_11
REMARK    6  A    between atoms: C_12  and  C_26
REMARK    7  A    between atoms: C_15  and  S_16
REMARK    8  A    between atoms: S_16  and  C_17
REMARK    9  A    between atoms: C_17  and  C_19
REMARK   10  A    between atoms: C_17  and  C_20
REMARK   11  A    between atoms: C_29  and  C_32
REMARK                            x       y       z     vdW  Elec       q    Type
REMARK                         _______ _______ _______ _____ _____    ______ ____
ROOT
ATOM      1  N   UNL     1       0.311  -1.728   3.416  0.00  0.00    -0.270 N 
ATOM      2  C   UNL     1      -0.226  -2.900   2.932  0.00  0.00    +0.169 A 
ATOM      3  N   UNL     1      -0.803  -2.616   1.787  0.00  0.00    -0.128 NA
ATOM      4  N   UNL     1      -0.670  -1.365   1.527  0.00  0.00    -0.122 NA
ATOM      5  C   UNL     1       0.007  -0.772   2.485  0.00  0.00    +0.197 A 
ENDROOT
BRANCH   2   6
ATOM      6  C   UNL     1      -0.165  -4.228   3.579  0.00  0.00    +0.020 A 
ATOM      7  C   UNL     1      -0.420  -5.382   2.837  0.00  0.00    +0.012 A 
ATOM      8  C   UNL     1      -0.357  -6.618   3.446  0.00  0.00    +0.004 A 
ATOM      9  C   UNL     1      -0.051  -6.715   4.792  0.00  0.00    -0.050 A 
ATOM     10  C   UNL     1       0.197  -5.574   5.535  0.00  0.00    +0.004 A 
ATOM     11  C   UNL     1       0.142  -4.332   4.937  0.00  0.00    +0.012 A 
ATOM     12  C   UNL     1       0.010  -8.068   5.452  0.00  0.00    +0.044 C 
ENDBRANCH   2   6
BRANCH   1  16
ATOM     13  C   UNL     1       2.424  -1.201   6.971  0.00  0.00    -0.047 A 
ATOM     14  C   UNL     1       1.169  -0.638   6.823  0.00  0.00    +0.005 A 
ATOM     15  C   UNL     1       0.467  -0.811   5.647  0.00  0.00    +0.026 A 
ATOM     16  C   UNL     1       1.022  -1.551   4.611  0.00  0.00    +0.051 A 
ATOM     17  C   UNL     1       2.279  -2.120   4.764  0.00  0.00    +0.026 A 
ATOM     18  C   UNL     1       2.979  -1.939   5.941  0.00  0.00    +0.005 A 
BRANCH  13  19
ATOM     19  C   UNL     1       3.187  -1.011   8.256  0.00  0.00    +0.035 C 
BRANCH  19  20
ATOM     20  C   UNL     1       2.845  -2.145   9.225  0.00  0.00    +0.004 C 
BRANCH  20  22
ATOM     21  C   UNL     1       3.277  -3.086  11.499  0.00  0.00    +0.004 C 
ATOM     22  C   UNL     1       3.620  -1.952  10.530  0.00  0.00    -0.003 C 
ENDBRANCH  20  22
ENDBRANCH  19  20
ENDBRANCH  13  19
ENDBRANCH   1  16
BRANCH   5  23
ATOM     23  S   UNL     1       0.437   0.935   2.560  0.00  0.00    -0.073 S 
BRANCH  23  24
ATOM     24  C   UNL     1      -0.299   1.513   1.011  0.00  0.00    +0.137 C 
ATOM     25  C   UNL     1       0.417   0.856  -0.170  0.00  0.00    +0.029 C 
BRANCH  24  26
ATOM     26  C   UNL     1      -0.158   3.010   0.915  0.00  0.00    +0.233 C 
ATOM     27  O   UNL     1       0.732   3.574   1.515  0.00  0.00    -0.274 OA
ATOM     28  N   UNL     1      -1.020   3.722   0.163  0.00  0.00    -0.239 N 
ATOM     29  C   UNL     1      -0.894   5.061   0.078  0.00  0.00    +0.303 C 
ATOM     30  O   UNL     1      -0.002   5.627   0.679  0.00  0.00    -0.253 OA
ATOM     31  N   UNL     1      -1.756   5.773  -0.675  0.00  0.00    -0.313 N 
ATOM     32  H   UNL     1      -1.732   3.270  -0.317  0.00  0.00    +0.159 HD
ATOM     33  H   UNL     1      -2.468   5.321  -1.155  0.00  0.00    +0.146 HD
ATOM     34  H   UNL     1      -1.665   6.736  -0.736  0.00  0.00    +0.146 HD
ENDBRANCH  24  26
ENDBRANCH  23  24
ENDBRANCH   5  23
TORSDOF 8
