REMARK  Name = ZINC43631298
REMARK  7 active torsions:
REMARK  status: ('A' for Active; 'I' for Inactive)
REMARK    1  A    between atoms: C_1  and  C_2
REMARK    2  A    between atoms: C_2  and  C_3
REMARK    3  A    between atoms: C_3  and  N_4
REMARK    4  A    between atoms: C_5  and  C_30
REMARK    5  A    between atoms: C_6  and  C_9
REMARK    6  A    between atoms: N_15  and  C_23
REMARK    7  A    between atoms: N_26  and  C_29
REMARK                            x       y       z     vdW  Elec       q    Type
REMARK                         _______ _______ _______ _____ _____    ______ ____
ROOT
ATOM      1  C   UNL     1      -0.527  -5.301   1.995  0.00  0.00    -0.033 C 
ATOM      2  C   UNL     1      -0.193  -5.637   3.471  0.00  0.00    -0.007 C 
ATOM      3  C   UNL     1      -0.494  -7.155   3.521  0.00  0.00    +0.003 C 
ATOM      4  C   UNL     1       0.494  -7.844   4.480  0.00  0.00    +0.110 C 
ATOM      5  N   UNL     1       1.667  -8.200   3.675  0.00  0.00    -0.299 N 
ATOM      6  C   UNL     1       1.397  -8.134   2.359  0.00  0.00    +0.206 C 
ATOM      7  O   UNL     1       2.176  -8.429   1.478  0.00  0.00    -0.277 OA
ATOM      8  C   UNL     1      -0.026  -7.639   2.127  0.00  0.00    +0.018 C 
ATOM      9  N   UNL     1      -0.070  -6.475   1.220  0.00  0.00    +0.394 N 
ATOM     10  C   UNL     1      -1.055  -6.767   0.154  0.00  0.00    -0.077 C 
ATOM     11  C   UNL     1      -1.104  -8.314   0.073  0.00  0.00    -0.019 C 
ATOM     12  C   UNL     1      -0.961  -8.715   1.570  0.00  0.00    -0.004 C 
ATOM     13  H   UNL     1       0.843  -6.302   0.827  0.00  0.00    -0.079 HD
ENDROOT
BRANCH   5  14
ATOM     14  C   UNL     1       2.967  -8.580   4.233  0.00  0.00    +0.072 C 
ATOM     15  C   UNL     1       4.040  -7.605   3.740  0.00  0.00    +0.004 C 
ATOM     16  C   UNL     1       5.407  -8.053   4.262  0.00  0.00    -0.077 C 
ATOM     17  N   UNL     1       5.705  -9.402   3.767  0.00  0.00    +0.378 N 
ATOM     18  C   UNL     1       4.721 -10.355   4.293  0.00  0.00    -0.077 C 
ATOM     19  C   UNL     1       3.328  -9.995   3.773  0.00  0.00    +0.004 C 
ATOM     20  C   UNL     1       7.051  -9.797   4.205  0.00  0.00    -0.096 C 
ATOM     21  H   UNL     1       5.668  -9.405   2.758  0.00  0.00    -0.082 HD
ENDBRANCH   5  14
BRANCH   1  24
ATOM     22  N   UNL     1       0.762  -1.976   1.234  0.00  0.00    -0.268 N 
ATOM     23  C   UNL     1      -0.170  -2.785   1.779  0.00  0.00    +0.038 A 
ATOM     24  C   UNL     1       0.214  -4.064   1.558  0.00  0.00    -0.020 A 
ATOM     25  C   UNL     1       1.422  -4.035   0.853  0.00  0.00    +0.136 A 
ATOM     26  N   UNL     1       1.748  -2.783   0.653  0.00  0.00    -0.179 NA
ATOM     27  C   UNL     1      -1.415  -2.345   2.505  0.00  0.00    +0.065 C 
BRANCH  22  28
ATOM     28  C   UNL     1       0.742  -0.511   1.242  0.00  0.00    +0.143 C 
BRANCH  28  30
ATOM     29  C   UNL     1      -0.019   1.526   0.010  0.00  0.00    +0.005 C 
ATOM     30  C   UNL     1       0.002  -0.004   0.002  0.00  0.00    +0.020 C 
ENDBRANCH  28  30
ENDBRANCH  22  28
ENDBRANCH   1  24
TORSDOF 4
