REMARK  Name = ZINC67564473
REMARK  12 active torsions:
REMARK  status: ('A' for Active; 'I' for Inactive)
REMARK    1  A    between atoms: C_1  and  C_2
REMARK    2  A    between atoms: C_6  and  C_29
REMARK    3  A    between atoms: C_7  and  O_8
REMARK    4  A    between atoms: O_8  and  C_9
REMARK    5  A    between atoms: C_9  and  C_10
REMARK    6  A    between atoms: C_10  and  C_12
REMARK    7  A    between atoms: C_10  and  O_28
REMARK    8  A    between atoms: C_12  and  N_13
REMARK    9  A    between atoms: N_16  and  C_17
REMARK   10  A    between atoms: C_19  and  C_24
REMARK   11  A    between atoms: C_22  and  C_23
REMARK   12  A    between atoms: N_26  and  C_27
REMARK                            x       y       z     vdW  Elec       q    Type
REMARK                         _______ _______ _______ _____ _____    ______ ____
ROOT
ATOM      1  N   UNL     1      -2.200   2.291   6.016  0.00  0.00    -0.297 N 
ATOM      2  C   UNL     1      -3.264   2.779   6.684  0.00  0.00    +0.304 C 
ATOM      3  O   UNL     1      -4.390   2.539   6.293  0.00  0.00    -0.253 OA
ATOM      4  N   UNL     1      -3.079   3.532   7.787  0.00  0.00    -0.269 N 
ATOM      5  H   UNL     1      -1.302   2.483   6.328  0.00  0.00    +0.150 HD
ATOM      6  H   UNL     1      -2.187   3.655   8.146  0.00  0.00    +0.156 HD
ENDROOT
BRANCH   4   7
ATOM      7  C   UNL     1      -4.176   4.135   8.414  0.00  0.00    +0.038 A 
ATOM      8  C   UNL     1      -5.324   4.410   7.688  0.00  0.00    +0.036 A 
ATOM      9  C   UNL     1      -6.414   5.011   8.317  0.00  0.00    +0.038 A 
ATOM     10  C   UNL     1      -6.342   5.331   9.674  0.00  0.00    +0.013 A 
ATOM     11  C   UNL     1      -5.194   5.053  10.388  0.00  0.00    +0.006 A 
ATOM     12  C   UNL     1      -4.116   4.452   9.765  0.00  0.00    -0.029 A 
ATOM     13  C   UNL     1      -2.869   4.146  10.554  0.00  0.00    +0.045 C 
BRANCH   9  14
ATOM     14  C   UNL     1      -7.642   5.309   7.549  0.00  0.00    +0.244 C 
ATOM     15  O   UNL     1      -7.703   5.030   6.367  0.00  0.00    -0.270 OA
ATOM     16  N   UNL     1      -8.694   5.889   8.159  0.00  0.00    -0.314 N 
ATOM     17  C   UNL     1      -9.911   6.184   7.399  0.00  0.00    +0.128 C 
ATOM     18  H   UNL     1      -8.646   6.112   9.102  0.00  0.00    +0.149 HD
ENDBRANCH   9  14
ENDBRANCH   4   7
BRANCH   1  19
ATOM     19  C   UNL     1      -2.400   1.473   4.817  0.00  0.00    +0.140 C 
BRANCH  19  20
ATOM     20  C   UNL     1      -1.041   1.051   4.255  0.00  0.00    +0.169 C 
BRANCH  20  21
ATOM     21  O   UNL     1      -0.383   0.196   5.191  0.00  0.00    -0.387 OA
ATOM     22  H   UNL     1      -0.871  -0.614   5.395  0.00  0.00    +0.210 HD
ENDBRANCH  20  21
BRANCH  20  23
ATOM     23  C   UNL     1      -1.245   0.302   2.936  0.00  0.00    +0.261 C 
BRANCH  23  24
ATOM     24  O   UNL     1       0.026   0.011   2.353  0.00  0.00    -0.489 OA
BRANCH  24  31
ATOM     25  C   UNL     1      -0.041   1.555  -0.012  0.00  0.00    +0.047 C 
ATOM     26  C   UNL     1      -0.009   0.049  -0.026  0.00  0.00    -0.009 A 
ATOM     27  C   UNL     1      -0.006  -0.632  -1.228  0.00  0.00    +0.007 A 
ATOM     28  C   UNL     1       0.023  -2.014  -1.242  0.00  0.00    +0.001 A 
ATOM     29  C   UNL     1       0.049  -2.719  -0.053  0.00  0.00    +0.007 A 
ATOM     30  C   UNL     1       0.046  -2.043   1.152  0.00  0.00    -0.009 A 
ATOM     31  C   UNL     1       0.023  -0.656   1.169  0.00  0.00    +0.126 A 
ATOM     32  C   UNL     1       0.075  -2.812   2.448  0.00  0.00    +0.047 C 
ENDBRANCH  24  31
ENDBRANCH  23  24
ENDBRANCH  20  23
ENDBRANCH  19  20
ENDBRANCH   1  19
TORSDOF 8
