REMARK  Name = ZINC43977506
REMARK  6 active torsions:
REMARK  status: ('A' for Active; 'I' for Inactive)
REMARK    1  A    between atoms: C_3  and  C_6
REMARK    2  A    between atoms: N_8  and  C_9
REMARK    3  A    between atoms: C_12  and  N_15
REMARK    4  A    between atoms: N_18  and  C_19
REMARK    5  A    between atoms: C_19  and  C_20
REMARK    6  A    between atoms: C_20  and  C_21
REMARK                            x       y       z     vdW  Elec       q    Type
REMARK                         _______ _______ _______ _____ _____    ______ ____
ROOT
ATOM      1  C   UNL     1       5.604  -0.509   0.020  0.00  0.00    +0.034 A 
ATOM      2  C   UNL     1       6.263   0.589  -0.516  0.00  0.00    +0.025 A 
ATOM      3  C   UNL     1       7.642   0.648  -0.488  0.00  0.00    +0.025 A 
ATOM      4  C   UNL     1       8.370  -0.391   0.078  0.00  0.00    +0.035 A 
ATOM      5  C   UNL     1       7.711  -1.489   0.614  0.00  0.00    +0.025 A 
ATOM      6  C   UNL     1       6.332  -1.545   0.591  0.00  0.00    +0.025 A 
ENDROOT
BRANCH   4   7
ATOM      7  N   UNL     1       9.770  -0.331   0.107  0.00  0.00    -0.269 N 
ATOM      8  C   UNL     1      10.495  -1.457  -0.038  0.00  0.00    +0.304 C 
ATOM      9  O   UNL     1       9.937  -2.535  -0.110  0.00  0.00    -0.253 OA
ATOM     10  N   UNL     1      11.840  -1.389  -0.103  0.00  0.00    -0.299 N 
ATOM     11  H   UNL     1      10.216   0.521   0.232  0.00  0.00    +0.156 HD
ATOM     12  H   UNL     1      12.285  -0.529  -0.046  0.00  0.00    +0.150 HD
BRANCH  10  13
ATOM     13  C   UNL     1      12.629  -2.613  -0.261  0.00  0.00    +0.110 C 
BRANCH  13  14
ATOM     14  C   UNL     1      14.117  -2.259  -0.306  0.00  0.00    +0.054 C 
BRANCH  14  15
ATOM     15  C   UNL     1      14.928  -3.518  -0.468  0.00  0.00    -0.046 A 
ATOM     16  C   UNL     1      15.359  -4.211   0.648  0.00  0.00    +0.005 A 
ATOM     17  C   UNL     1      16.103  -5.366   0.500  0.00  0.00    +0.020 A 
ATOM     18  C   UNL     1      16.417  -5.829  -0.766  0.00  0.00    +0.041 A 
ATOM     19  C   UNL     1      15.986  -5.135  -1.882  0.00  0.00    +0.020 A 
ATOM     20  C   UNL     1      15.237  -3.983  -1.733  0.00  0.00    +0.005 A 
ATOM     21 CL   UNL     1      17.353  -7.280  -0.952  0.00  0.00    -0.084 Cl
ENDBRANCH  14  15
ENDBRANCH  13  14
ENDBRANCH  10  13
ENDBRANCH   4   7
BRANCH   1  24
ATOM     22  C   UNL     1       3.534  -1.134   1.013  0.00  0.00    +0.284 C 
ATOM     23  O   UNL     1       4.144  -1.667   1.921  0.00  0.00    -0.266 OA
ATOM     24  N   UNL     1       4.205  -0.569  -0.009  0.00  0.00    -0.279 N 
ATOM     25  H   UNL     1       3.720  -0.203  -0.765  0.00  0.00    +0.155 HD
BRANCH  22  28
ATOM     26  C   UNL     1      -0.058  -1.385   1.615  0.00  0.00    +0.042 A 
ATOM     27  C   UNL     1       1.267  -1.639   2.001  0.00  0.00    +0.054 A 
ATOM     28  C   UNL     1       2.068  -1.107   1.031  0.00  0.00    +0.189 A 
ATOM     29  O   UNL     1       1.273  -0.551   0.093  0.00  0.00    -0.458 OA
ATOM     30  C   UNL     1      -0.009  -0.717   0.441  0.00  0.00    +0.196 A 
ENDBRANCH  22  28
ENDBRANCH   1  24
TORSDOF 6
