REMARK  Name = ZINC06584633
REMARK  6 active torsions:
REMARK  status: ('A' for Active; 'I' for Inactive)
REMARK    1  A    between atoms: C_1  and  C_2
REMARK    2  A    between atoms: C_3  and  C_27
REMARK    3  A    between atoms: C_11  and  C_13
REMARK    4  A    between atoms: C_13  and  S_14
REMARK    5  A    between atoms: S_14  and  C_15
REMARK    6  A    between atoms: C_17  and  C_22
REMARK                            x       y       z     vdW  Elec       q    Type
REMARK                         _______ _______ _______ _____ _____    ______ ____
ROOT
ATOM      1  S   UNL     1       4.439   6.864  -0.002  0.00  0.00    -0.078 S 
ENDROOT
BRANCH   1   2
ATOM      2  C   UNL     1       2.703   6.564   0.012  0.00  0.00    +0.194 A 
ATOM      3  N   UNL     1       2.244   5.316   0.010  0.00  0.00    -0.201 NA
ATOM      4  C   UNL     1       0.930   5.090   0.021  0.00  0.00    +0.173 A 
ATOM      5  N   UNL     1       0.079   6.116   0.028  0.00  0.00    -0.194 NA
ATOM      6  C   UNL     1       0.541   7.362   0.036  0.00  0.00    +0.217 A 
ATOM      7  N   UNL     1       1.852   7.586   0.026  0.00  0.00    -0.189 NA
ATOM      8  N   UNL     1      -0.340   8.425   0.051  0.00  0.00    -0.327 N 
ATOM      9  H   UNL     1      -0.003   9.334   0.053  0.00  0.00    +0.145 HD
ATOM     10  H   UNL     1      -1.296   8.262   0.059  0.00  0.00    +0.145 HD
BRANCH   4  11
ATOM     11  C   UNL     1       0.419   3.708   0.018  0.00  0.00    +0.056 A 
ATOM     12  C   UNL     1      -0.879   3.266   0.028  0.00  0.00    +0.019 A 
ATOM     13  C   UNL     1      -1.086   1.906   0.017  0.00  0.00    +0.008 A 
ATOM     14  C   UNL     1      -0.013   1.076   0.008  0.00  0.00    +0.046 A 
ATOM     15  S   UNL     1       1.330   2.173   0.001  0.00  0.00    -0.094 S 
ENDBRANCH   4  11
ENDBRANCH   1   2
BRANCH   1  16
ATOM     16  C   UNL     1       4.446   8.674   0.007  0.00  0.00    +0.151 C 
BRANCH  16  27
ATOM     17  C   UNL     1      10.394  11.766  -0.031  0.00  0.00    +0.045 C 
ATOM     18  C   UNL     1       9.888  10.347  -0.034  0.00  0.00    -0.026 A 
ATOM     19  C   UNL     1      10.750   9.318  -0.047  0.00  0.00    -0.008 A 
ATOM     20  S   UNL     1       9.686   7.887  -0.045  0.00  0.00    -0.073 S 
ATOM     21  C   UNL     1       8.116   8.712  -0.026  0.00  0.00    +0.116 A 
ATOM     22  C   UNL     1       8.462  10.076  -0.022  0.00  0.00    +0.075 A 
ATOM     23  C   UNL     1       7.362  10.994  -0.007  0.00  0.00    +0.260 A 
ATOM     24  O   UNL     1       7.560  12.197  -0.002  0.00  0.00    -0.267 OA
ATOM     25  N   UNL     1       6.107  10.508  -0.004  0.00  0.00    -0.310 N 
ATOM     26  H   UNL     1       5.359  11.124   0.002  0.00  0.00    +0.170 HD
ATOM     27  C   UNL     1       5.868   9.171  -0.003  0.00  0.00    +0.121 A 
ATOM     28  N   UNL     1       6.849   8.309  -0.017  0.00  0.00    -0.226 NA
ATOM     29  C   UNL     1      12.257   9.362  -0.061  0.00  0.00    +0.052 C 
ENDBRANCH  16  27
ENDBRANCH   1  16
TORSDOF 4
