REMARK  Name = ZINC43851004
REMARK  7 active torsions:
REMARK  status: ('A' for Active; 'I' for Inactive)
REMARK    1  A    between atoms: C_1  and  O_2
REMARK    2  A    between atoms: O_2  and  C_3
REMARK    3  A    between atoms: C_8  and  C_9
REMARK    4  A    between atoms: C_9  and  C_11
REMARK    5  A    between atoms: C_9  and  O_27
REMARK    6  A    between atoms: C_11  and  N_12
REMARK    7  A    between atoms: N_15  and  C_16
REMARK                            x       y       z     vdW  Elec       q    Type
REMARK                         _______ _______ _______ _____ _____    ______ ____
ROOT
ATOM      1  N   UNL     1      -2.058  -3.736   0.811  0.00  0.00    -0.296 N 
ATOM      2  C   UNL     1      -3.377  -4.011   0.790  0.00  0.00    +0.304 C 
ATOM      3  O   UNL     1      -4.055  -3.668  -0.158  0.00  0.00    -0.253 OA
ATOM      4  N   UNL     1      -3.944  -4.667   1.822  0.00  0.00    -0.269 N 
ATOM      5  H   UNL     1      -1.516  -4.010   1.568  0.00  0.00    +0.150 HD
ATOM      6  H   UNL     1      -3.393  -5.000   2.547  0.00  0.00    +0.156 HD
ENDROOT
BRANCH   4   7
ATOM      7  C   UNL     1      -5.331  -4.868   1.847  0.00  0.00    +0.038 A 
ATOM      8  C   UNL     1      -6.016  -4.835   3.054  0.00  0.00    +0.027 A 
ATOM      9  C   UNL     1      -7.383  -5.032   3.081  0.00  0.00    +0.051 A 
ATOM     10  C   UNL     1      -8.075  -5.264   1.903  0.00  0.00    +0.173 A 
ATOM     11  C   UNL     1      -7.390  -5.298   0.690  0.00  0.00    +0.174 A 
ATOM     12  C   UNL     1      -6.021  -5.095   0.664  0.00  0.00    +0.073 A 
ATOM     13  O   UNL     1      -8.287  -5.540  -0.310  0.00  0.00    -0.395 OA
ATOM     14  C   UNL     1      -9.461  -6.059   0.343  0.00  0.00    +0.589 C 
ATOM     15  O   UNL     1      -9.401  -5.485   1.661  0.00  0.00    -0.395 OA
ATOM     16  F   UNL     1     -10.618  -5.643  -0.323  0.00  0.00    -0.125 F 
ATOM     17  F   UNL     1      -9.408  -7.456   0.412  0.00  0.00    -0.125 F 
ENDBRANCH   4   7
BRANCH   1  18
ATOM     18  C   UNL     1      -1.441  -3.023  -0.311  0.00  0.00    +0.142 C 
BRANCH  18  19
ATOM     19  C   UNL     1       0.054  -2.841  -0.039  0.00  0.00    +0.165 C 
BRANCH  19  25
ATOM     20  C   UNL     1       0.617  -0.618  -1.054  0.00  0.00    +0.126 A 
ATOM     21  C   UNL     1       1.184   0.152  -2.059  0.00  0.00    +0.046 A 
ATOM     22  C   UNL     1       1.791  -0.462  -3.138  0.00  0.00    +0.004 A 
ATOM     23  C   UNL     1       1.833  -1.842  -3.216  0.00  0.00    +0.001 A 
ATOM     24  C   UNL     1       1.267  -2.611  -2.216  0.00  0.00    +0.010 A 
ATOM     25  C   UNL     1       0.664  -2.002  -1.132  0.00  0.00    +0.024 A 
BRANCH  20  27
ATOM     26  C   UNL     1       0.008   1.413   0.023  0.00  0.00    +0.277 C 
ATOM     27  O   UNL     1       0.020  -0.016   0.009  0.00  0.00    -0.495 OA
ENDBRANCH  20  27
ENDBRANCH  19  25
BRANCH  19  28
ATOM     28  O   UNL     1       0.692  -4.119  -0.006  0.00  0.00    -0.386 OA
ATOM     29  H   UNL     1       0.611  -4.620  -0.830  0.00  0.00    +0.210 HD
ENDBRANCH  19  28
ENDBRANCH  18  19
ENDBRANCH   1  18
TORSDOF 6
