REMARK  Name = ZINC65602226
REMARK  10 active torsions:
REMARK  status: ('A' for Active; 'I' for Inactive)
REMARK    1  A    between atoms: C_1  and  C_2
REMARK    2  A    between atoms: C_2  and  N_3
REMARK    3  A    between atoms: N_3  and  C_4
REMARK    4  A    between atoms: N_3  and  C_6
REMARK    5  A    between atoms: C_4  and  C_5
REMARK    6  A    between atoms: C_6  and  C_7
REMARK    7  A    between atoms: C_6  and  C_25
REMARK    8  A    between atoms: C_7  and  N_8
REMARK    9  A    between atoms: C_9  and  C_11
REMARK   10  A    between atoms: N_13  and  C_14
REMARK                            x       y       z     vdW  Elec       q    Type
REMARK                         _______ _______ _______ _____ _____    ______ ____
ROOT
ATOM      1  N   UNL     1       1.460  -1.254   4.199  0.00  0.00    -0.309 N 
ATOM      2  C   UNL     1       2.106  -1.057   5.365  0.00  0.00    +0.299 C 
ATOM      3  O   UNL     1       3.203  -1.546   5.540  0.00  0.00    -0.265 OA
ATOM      4  H   UNL     1       0.583  -0.864   4.058  0.00  0.00    +0.149 HD
ENDROOT
BRANCH   2   5
ATOM      5  C   UNL     1       1.473  -0.237   6.440  0.00  0.00    +0.303 C 
ATOM      6  O   UNL     1       0.376   0.252   6.265  0.00  0.00    -0.265 OA
ATOM      7  N   UNL     1       2.120  -0.040   7.606  0.00  0.00    -0.276 N 
ATOM      8  H   UNL     1       3.026  -0.365   7.719  0.00  0.00    +0.155 HD
BRANCH   7   9
ATOM      9  C   UNL     1       1.483   0.633   8.653  0.00  0.00    +0.052 A 
ATOM     10  C   UNL     1       0.108   0.507   8.842  0.00  0.00    +0.028 A 
ATOM     11  C   UNL     1      -0.479   1.191   9.891  0.00  0.00    +0.050 A 
ATOM     12  C   UNL     1       0.317   1.977  10.717  0.00  0.00    +0.154 A 
ATOM     13  N   UNL     1       1.620   2.074  10.509  0.00  0.00    -0.234 NA
ATOM     14  C   UNL     1       2.214   1.432   9.523  0.00  0.00    +0.136 A 
ATOM     15  N   UNL     1      -0.267   2.673  11.780  0.00  0.00    -0.222 N 
ATOM     16  C   UNL     1       0.380   3.478  12.661  0.00  0.00    +0.116 A 
ATOM     17  C   UNL     1      -0.539   3.958  13.530  0.00  0.00    +0.041 A 
ATOM     18  C   UNL     1      -1.786   3.433  13.172  0.00  0.00    +0.135 A 
ATOM     19  N   UNL     1      -1.626   2.669  12.123  0.00  0.00    -0.173 NA
ENDBRANCH   7   9
ENDBRANCH   2   5
BRANCH   1  20
ATOM     20  C   UNL     1       2.081  -2.058   3.144  0.00  0.00    +0.097 C 
BRANCH  20  21
ATOM     21  C   UNL     1       1.204  -2.019   1.890  0.00  0.00    +0.016 C 
BRANCH  21  22
ATOM     22  C   UNL     1       1.896  -2.754   0.771  0.00  0.00    +0.093 A 
ATOM     23  C   UNL     1       1.529  -3.947   0.269  0.00  0.00    +0.043 A 
ATOM     24  C   UNL     1       2.449  -4.259  -0.759  0.00  0.00    +0.041 A 
ATOM     25  C   UNL     1       3.322  -3.238  -0.824  0.00  0.00    +0.195 A 
ATOM     26  O   UNL     1       2.979  -2.327   0.101  0.00  0.00    -0.469 OA
ENDBRANCH  21  22
BRANCH  21  27
ATOM     27  N   UNL     1       0.980  -0.623   1.493  0.00  0.00    +0.387 N 
ATOM     28  H   UNL     1       0.470  -0.144   2.221  0.00  0.00    -0.081 HD
BRANCH  27  30
ATOM     29  C   UNL     1       2.046   1.534   1.035  0.00  0.00    -0.017 C 
ATOM     30  C   UNL     1       2.273   0.041   1.284  0.00  0.00    -0.081 C 
ENDBRANCH  27  30
BRANCH  27  31
ATOM     31  C   UNL     1       0.203  -0.587   0.246  0.00  0.00    -0.081 C 
ATOM     32  C   UNL     1      -1.194  -1.158   0.499  0.00  0.00    -0.017 C 
ENDBRANCH  27  31
ENDBRANCH  21  27
ENDBRANCH  20  21
ENDBRANCH   1  20
TORSDOF 8
