REMARK  Name = ZINC40390436
REMARK  8 active torsions:
REMARK  status: ('A' for Active; 'I' for Inactive)
REMARK    1  A    between atoms: C_1  and  C_2
REMARK    2  A    between atoms: C_2  and  C_3
REMARK    3  A    between atoms: C_3  and  C_5
REMARK    4  A    between atoms: C_3  and  N_6
REMARK    5  A    between atoms: C_7  and  C_9
REMARK    6  A    between atoms: C_15  and  C_17
REMARK    7  A    between atoms: C_22  and  C_23
REMARK    8  A    between atoms: C_29  and  C_31
REMARK                            x       y       z     vdW  Elec       q    Type
REMARK                         _______ _______ _______ _____ _____    ______ ____
ROOT
ATOM      1  C   UNL     1       4.296   0.727   2.280  0.00  0.00    +0.190 C 
ATOM      2  C   UNL     1       5.216  -0.301   1.575  0.00  0.00    +0.194 C 
ATOM      3  O   UNL     1       6.514   0.011   2.133  0.00  0.00    -0.353 OA
ATOM      4  C   UNL     1       6.272   0.343   3.509  0.00  0.00    +0.142 C 
ATOM      5  N   UNL     1       4.883   0.822   3.636  0.00  0.00    -0.255 N 
ATOM      6  C   UNL     1       4.272   1.255   4.756  0.00  0.00    +0.250 C 
ATOM      7  O   UNL     1       4.868   1.251   5.815  0.00  0.00    -0.270 OA
ATOM      8  C   UNL     1       7.235   1.448   3.945  0.00  0.00    +0.074 C 
ATOM      9  C   UNL     1       6.952   1.821   5.404  0.00  0.00    +0.112 C 
ATOM     10  N   UNL     1       7.011   0.604   6.224  0.00  0.00    -0.295 N 
ATOM     11  C   UNL     1       6.181  -0.547   5.841  0.00  0.00    +0.112 C 
ATOM     12  C   UNL     1       6.472  -0.899   4.378  0.00  0.00    +0.074 C 
ATOM     13  C   UNL     1       7.811   0.543   7.306  0.00  0.00    +0.282 C 
ATOM     14  O   UNL     1       8.413   1.535   7.675  0.00  0.00    -0.267 OA
ENDROOT
BRANCH   6  15
ATOM     15  C   UNL     1       2.875   1.736   4.696  0.00  0.00    +0.040 A 
ATOM     16  C   UNL     1       2.486   2.641   3.707  0.00  0.00    +0.013 A 
ATOM     17  C   UNL     1       1.181   3.085   3.656  0.00  0.00    +0.001 A 
ATOM     18  C   UNL     1       0.258   2.636   4.584  0.00  0.00    +0.000 A 
ATOM     19  C   UNL     1       0.637   1.739   5.567  0.00  0.00    +0.004 A 
ATOM     20  C   UNL     1       1.937   1.282   5.625  0.00  0.00    -0.038 A 
ATOM     21  C   UNL     1       2.346   0.301   6.693  0.00  0.00    +0.044 C 
ENDBRANCH   6  15
BRANCH  13  22
ATOM     22  C   UNL     1       7.957  -0.718   8.041  0.00  0.00    +0.189 A 
ATOM     23  C   UNL     1       8.620  -0.886   9.223  0.00  0.00    +0.054 A 
ATOM     24  C   UNL     1       8.506  -2.244   9.559  0.00  0.00    +0.042 A 
ATOM     25  C   UNL     1       7.789  -2.838   8.580  0.00  0.00    +0.196 A 
ATOM     26  O   UNL     1       7.455  -1.914   7.669  0.00  0.00    -0.458 OA
ENDBRANCH  13  22
BRANCH   1  28
ATOM     27  N   UNL     1       2.035   0.438   1.319  0.00  0.00    -0.311 N 
ATOM     28  C   UNL     1       2.879   0.219   2.347  0.00  0.00    +0.236 C 
ATOM     29  O   UNL     1       2.497  -0.387   3.326  0.00  0.00    -0.274 OA
ATOM     30  H   UNL     1       2.341   0.923   0.536  0.00  0.00    +0.149 HD
BRANCH  27  31
ATOM     31  C   UNL     1       0.658  -0.056   1.383  0.00  0.00    +0.070 C 
ATOM     32  C   UNL     1       0.616  -1.512   0.916  0.00  0.00    +0.028 C 
BRANCH  31  34
ATOM     33  C   UNL     1      -0.290   2.227   1.017  0.00  0.00    +0.005 C 
ATOM     34  C   UNL     1      -0.233   0.797   0.477  0.00  0.00    +0.018 C 
ENDBRANCH  31  34
ENDBRANCH  27  31
ENDBRANCH   1  28
TORSDOF 5
