REMARK  Name = ZINC36588758
REMARK  18 active torsions:
REMARK  status: ('A' for Active; 'I' for Inactive)
REMARK    1  A    between atoms: C_1  and  C_2
REMARK    2  A    between atoms: C_2  and  C_3
REMARK    3  A    between atoms: C_2  and  C_4
REMARK    4  A    between atoms: C_2  and  N_5
REMARK    5  A    between atoms: C_6  and  C_8
REMARK    6  A    between atoms: C_8  and  C_10
REMARK    7  A    between atoms: C_8  and  N_19
REMARK    8  A    between atoms: C_13  and  O_18
REMARK    9  A    between atoms: C_14  and  O_16
REMARK   10  A    between atoms: O_16  and  C_17
REMARK   11  A    between atoms: N_19  and  C_36
REMARK   12  A    between atoms: C_20  and  C_22
REMARK   13  A    between atoms: C_22  and  C_23
REMARK   14  A    between atoms: C_22  and  C_29
REMARK   15  A    between atoms: C_22  and  O_35
REMARK   16  A    between atoms: C_36  and  C_37
REMARK   17  A    between atoms: C_36  and  C_38
REMARK   18  A    between atoms: C_36  and  C_39
REMARK                            x       y       z     vdW  Elec       q    Type
REMARK                         _______ _______ _______ _____ _____    ______ ____
ROOT
ATOM      1  N   UNL     1       4.357   0.799  -4.942  0.00  0.00    -0.278 N 
ATOM      2  C   UNL     1       4.151  -0.467  -5.356  0.00  0.00    +0.258 C 
ATOM      3  O   UNL     1       3.316  -0.699  -6.205  0.00  0.00    -0.272 OA
ENDROOT
BRANCH   1   4
ATOM      4  C   UNL     1       4.821   1.058  -3.577  0.00  0.00    +0.030 C 
ATOM      5  C   UNL     1       3.870   0.391  -2.581  0.00  0.00    +0.031 C 
ATOM      6  C   UNL     1       6.228   0.485  -3.400  0.00  0.00    +0.031 C 
ATOM      7  C   UNL     1       4.849   2.566  -3.325  0.00  0.00    +0.031 C 
ENDBRANCH   1   4
BRANCH   1   8
ATOM      8  C   UNL     1       4.117   1.917  -5.858  0.00  0.00    +0.193 C 
BRANCH   8   9
ATOM      9  C   UNL     1       2.657   2.291  -5.823  0.00  0.00    -0.015 A 
ATOM     10  C   UNL     1       1.736   1.422  -5.269  0.00  0.00    +0.010 A 
ATOM     11  C   UNL     1       0.396   1.760  -5.234  0.00  0.00    +0.049 A 
ATOM     12  C   UNL     1      -0.027   2.972  -5.756  0.00  0.00    +0.158 A 
ATOM     13  C   UNL     1       0.900   3.846  -6.314  0.00  0.00    +0.162 A 
ATOM     14  C   UNL     1       2.243   3.504  -6.341  0.00  0.00    +0.055 A 
BRANCH  13  15
ATOM     15  O   UNL     1       0.491   5.037  -6.828  0.00  0.00    -0.491 OA
ATOM     16  C   UNL     1       1.498   5.885  -7.385  0.00  0.00    +0.277 C 
ENDBRANCH  13  15
BRANCH  12  17
ATOM     17  O   UNL     1      -1.345   3.305  -5.724  0.00  0.00    -0.503 OA
ATOM     18  H   UNL     1      -1.610   3.782  -4.925  0.00  0.00    +0.292 HD
ENDBRANCH  12  17
ENDBRANCH   8   9
BRANCH   8  20
ATOM     19  N   UNL     1       4.061   2.229  -8.311  0.00  0.00    -0.309 N 
ATOM     20  C   UNL     1       4.498   1.511  -7.258  0.00  0.00    +0.239 C 
ATOM     21  O   UNL     1       5.198   0.537  -7.437  0.00  0.00    -0.273 OA
ATOM     22  H   UNL     1       3.501   3.009  -8.168  0.00  0.00    +0.149 HD
BRANCH  19  24
ATOM     23  C   UNL     1       3.917   0.420  -9.951  0.00  0.00    +0.031 C 
ATOM     24  C   UNL     1       4.432   1.834  -9.672  0.00  0.00    +0.026 C 
ATOM     25  C   UNL     1       5.955   1.859  -9.814  0.00  0.00    +0.031 C 
ATOM     26  C   UNL     1       3.810   2.810 -10.674  0.00  0.00    +0.031 C 
ENDBRANCH  19  24
ENDBRANCH   8  20
ENDBRANCH   1   8
BRANCH   2  27
ATOM     27  C   UNL     1       4.957  -1.593  -4.764  0.00  0.00    +0.192 C 
BRANCH  27  28
ATOM     28  C   UNL     1       4.333  -2.029  -3.463  0.00  0.00    -0.003 A 
ATOM     29  C   UNL     1       2.971  -1.893  -3.271  0.00  0.00    +0.007 A 
ATOM     30  C   UNL     1       2.399  -2.292  -2.077  0.00  0.00    +0.000 A 
ATOM     31  C   UNL     1       3.188  -2.827  -1.077  0.00  0.00    +0.000 A 
ATOM     32  C   UNL     1       4.550  -2.964  -1.270  0.00  0.00    +0.000 A 
ATOM     33  C   UNL     1       5.122  -2.568  -2.465  0.00  0.00    +0.007 A 
ENDBRANCH  27  28
BRANCH  27  34
ATOM     34  C   UNL     1       4.978  -2.755  -5.724  0.00  0.00    -0.003 A 
ATOM     35  C   UNL     1       3.804  -3.187  -6.312  0.00  0.00    +0.007 A 
ATOM     36  C   UNL     1       3.824  -4.252  -7.193  0.00  0.00    +0.000 A 
ATOM     37  C   UNL     1       5.017  -4.885  -7.486  0.00  0.00    +0.000 A 
ATOM     38  C   UNL     1       6.191  -4.452  -6.899  0.00  0.00    +0.000 A 
ATOM     39  C   UNL     1       6.173  -3.384  -6.022  0.00  0.00    +0.007 A 
ENDBRANCH  27  34
BRANCH  27  40
ATOM     40  O   UNL     1       6.294  -1.148  -4.526  0.00  0.00    -0.371 OA
ATOM     41  H   UNL     1       6.736  -0.794  -5.309  0.00  0.00    +0.212 HD
ENDBRANCH  27  40
ENDBRANCH   2  27
TORSDOF 11
