REMARK  Name = ZINC15840807
REMARK  10 active torsions:
REMARK  status: ('A' for Active; 'I' for Inactive)
REMARK    1  A    between atoms: C_1  and  C_2
REMARK    2  A    between atoms: C_2  and  O_3
REMARK    3  A    between atoms: O_3  and  C_4
REMARK    4  A    between atoms: C_7  and  N_14
REMARK    5  A    between atoms: C_15  and  C_17
REMARK    6  A    between atoms: C_17  and  C_19
REMARK    7  A    between atoms: C_17  and  O_20
REMARK    8  A    between atoms: O_20  and  C_21
REMARK    9  A    between atoms: C_23  and  C_28
REMARK   10  A    between atoms: C_25  and  C_27
REMARK                            x       y       z     vdW  Elec       q    Type
REMARK                         _______ _______ _______ _____ _____    ______ ____
ROOT
ATOM      1  N   UNL     1      -1.892  -6.005  -0.008  0.00  0.00    -0.282 N 
ATOM      2  C   UNL     1      -0.807  -6.798  -0.113  0.00  0.00    +0.258 C 
ATOM      3  O   UNL     1       0.304  -6.311  -0.088  0.00  0.00    -0.271 OA
ATOM      4  H   UNL     1      -2.778  -6.399   0.035  0.00  0.00    +0.155 HD
ENDROOT
BRANCH   1   8
ATOM      5  C   UNL     1      -1.415  -1.835   0.147  0.00  0.00    +0.146 A 
ATOM      6  C   UNL     1      -0.490  -2.677   0.720  0.00  0.00    +0.049 A 
ATOM      7  C   UNL     1      -0.650  -4.058   0.668  0.00  0.00    +0.027 A 
ATOM      8  C   UNL     1      -1.742  -4.616   0.038  0.00  0.00    +0.043 A 
ATOM      9  C   UNL     1      -2.705  -3.778  -0.559  0.00  0.00    +0.025 A 
ATOM     10  C   UNL     1      -2.545  -2.372  -0.501  0.00  0.00    +0.114 A 
ATOM     11  N   UNL     1      -3.454  -1.575  -1.071  0.00  0.00    -0.251 NA
ATOM     12  C   UNL     1      -4.506  -2.067  -1.680  0.00  0.00    +0.111 A 
ATOM     13  C   UNL     1      -4.726  -3.440  -1.768  0.00  0.00    +0.020 A 
ATOM     14  C   UNL     1      -3.832  -4.310  -1.211  0.00  0.00    +0.013 A 
BRANCH   5  15
ATOM     15  O   UNL     1      -1.241  -0.488   0.210  0.00  0.00    -0.490 OA
BRANCH  15  17
ATOM     16  C   UNL     1      -0.051   1.514   0.855  0.00  0.00    +0.048 C 
ATOM     17  C   UNL     1      -0.075  -0.015   0.887  0.00  0.00    +0.226 C 
ENDBRANCH  15  17
ENDBRANCH   5  15
ENDBRANCH   1   8
BRANCH   2  18
ATOM     18  C   UNL     1      -0.974  -8.288  -0.262  0.00  0.00    +0.256 C 
ATOM     19  C   UNL     1      -1.608  -8.859   1.008  0.00  0.00    +0.062 C 
BRANCH  18  20
ATOM     20  O   UNL     1       0.304  -8.892  -0.469  0.00  0.00    -0.480 OA
BRANCH  20  21
ATOM     21  C   UNL     1       0.347  -9.982  -1.280  0.00  0.00    +0.122 A 
ATOM     22  C   UNL     1       1.568 -10.539  -1.631  0.00  0.00    +0.049 A 
ATOM     23  C   UNL     1       1.609 -11.650  -2.451  0.00  0.00    -0.047 A 
ATOM     24  C   UNL     1       0.435 -12.201  -2.930  0.00  0.00    +0.007 A 
ATOM     25  C   UNL     1      -0.783 -11.644  -2.586  0.00  0.00    -0.047 A 
ATOM     26  C   UNL     1      -0.830 -10.536  -1.762  0.00  0.00    +0.049 A 
ATOM     27  C   UNL     1      -2.062 -12.247  -3.110  0.00  0.00    +0.044 C 
ATOM     28  C   UNL     1       2.935 -12.260  -2.827  0.00  0.00    +0.044 C 
ENDBRANCH  20  21
ENDBRANCH  18  20
ENDBRANCH   2  18
TORSDOF 6
