REMARK  Name = ZINC05714493
REMARK  7 active torsions:
REMARK  status: ('A' for Active; 'I' for Inactive)
REMARK    1  A    between atoms: C_1  and  C_2
REMARK    2  A    between atoms: C_2  and  C_3
REMARK    3  A    between atoms: C_2  and  C_4
REMARK    4  A    between atoms: C_2  and  O_5
REMARK    5  A    between atoms: O_5  and  C_6
REMARK    6  A    between atoms: N_8  and  C_10
REMARK    7  A    between atoms: N_14  and  C_17
REMARK                            x       y       z     vdW  Elec       q    Type
REMARK                         _______ _______ _______ _____ _____    ______ ____
ROOT
ATOM      1  C   UNL     1      -1.136  -2.159   0.001  0.00  0.00    +0.164 C 
ATOM      2  C   UNL     1      -2.455  -2.721   0.581  0.00  0.00    +0.051 C 
ATOM      3  C   UNL     1      -2.680  -3.968  -0.307  0.00  0.00    +0.110 C 
ATOM      4  N   UNL     1      -1.976  -3.688  -1.564  0.00  0.00    -0.297 N 
ATOM      5  C   UNL     1      -1.099  -2.680  -1.418  0.00  0.00    +0.236 C 
ATOM      6  O   UNL     1      -0.382  -2.250  -2.298  0.00  0.00    -0.274 OA
ENDROOT
BRANCH   4   7
ATOM      7  C   UNL     1      -2.201  -4.414  -2.816  0.00  0.00    +0.076 C 
ATOM      8  C   UNL     1      -0.895  -5.075  -3.263  0.00  0.00    +0.022 C 
ATOM      9  C   UNL     1      -1.130  -5.834  -4.571  0.00  0.00    +0.002 C 
ATOM     10  C   UNL     1      -1.602  -4.857  -5.650  0.00  0.00    +0.000 C 
ATOM     11  C   UNL     1      -2.907  -4.195  -5.203  0.00  0.00    +0.002 C 
ATOM     12  C   UNL     1      -2.672  -3.437  -3.895  0.00  0.00    +0.022 C 
ENDBRANCH   4   7
BRANCH   1  15
ATOM     13  C   UNL     1       0.002  -0.004   0.002  0.00  0.00    +0.401 C 
ATOM     14  O   UNL     1       1.062  -0.597  -0.011  0.00  0.00    -0.226 OA
ATOM     15  N   UNL     1      -1.156  -0.694   0.009  0.00  0.00    -0.270 N 
ATOM     16  H   UNL     1      -2.002  -0.220   0.020  0.00  0.00    +0.153 HD
BRANCH  13  17
ATOM     17  O   UNL     1      -0.016   1.342   0.009  0.00  0.00    -0.445 OA
BRANCH  17  19
ATOM     18  C   UNL     1       2.044   1.625  -1.258  0.00  0.00    +0.055 C 
ATOM     19  C   UNL     1       1.268   2.019   0.001  0.00  0.00    +0.107 C 
ATOM     20  C   UNL     1       1.047   3.533   0.011  0.00  0.00    +0.055 C 
ATOM     21  C   UNL     1       2.068   1.612   1.240  0.00  0.00    +0.055 C 
ENDBRANCH  17  19
ENDBRANCH  13  17
ENDBRANCH   1  15
TORSDOF 4
