REMARK  Name = ZINC58235534
REMARK  6 active torsions:
REMARK  status: ('A' for Active; 'I' for Inactive)
REMARK    1  A    between atoms: C_1  and  C_2
REMARK    2  A    between atoms: C_2  and  C_3
REMARK    3  A    between atoms: C_3  and  C_21
REMARK    4  A    between atoms: N_6  and  C_20
REMARK    5  A    between atoms: C_9  and  C_14
REMARK    6  A    between atoms: C_21  and  C_22
REMARK                            x       y       z     vdW  Elec       q    Type
REMARK                         _______ _______ _______ _____ _____    ______ ____
ROOT
ATOM      1  C   UNL     1       0.718  -0.497  -1.257  0.00  0.00    +0.186 C 
ATOM      2  C   UNL     1       2.134   0.021  -1.264  0.00  0.00    +0.263 C 
ATOM      3  O   UNL     1       2.695   0.275  -0.219  0.00  0.00    -0.271 OA
ATOM      4  N   UNL     1       2.775   0.201  -2.438  0.00  0.00    -0.268 N 
ATOM      5  C   UNL     1       2.069   0.022  -3.637  0.00  0.00    +0.079 A 
ATOM      6  C   UNL     1       2.742  -0.026  -4.846  0.00  0.00    +0.037 A 
ATOM      7  C   UNL     1       2.027  -0.217  -6.027  0.00  0.00    +0.003 A 
ATOM      8  C   UNL     1       0.641  -0.360  -5.987  0.00  0.00    +0.014 A 
ATOM      9  C   UNL     1      -0.025  -0.305  -4.779  0.00  0.00    +0.048 A 
ATOM     10  C   UNL     1       0.682  -0.109  -3.604  0.00  0.00    +0.143 A 
ATOM     11  O   UNL     1       0.026  -0.024  -2.414  0.00  0.00    -0.475 OA
ATOM     12  C   UNL     1       4.190   0.579  -2.460  0.00  0.00    +0.138 C 
ENDROOT
BRANCH   7  13
ATOM     13  C   UNL     1       2.741  -0.269  -7.326  0.00  0.00    +0.080 A 
ATOM     14  C   UNL     1       2.047  -0.451  -8.488  0.00  0.00    +0.076 A 
ATOM     15  S   UNL     1       3.380  -0.428  -9.680  0.00  0.00    -0.060 S 
ATOM     16  C   UNL     1       4.716  -0.181  -8.520  0.00  0.00    +0.156 A 
ATOM     17  N   UNL     1       4.065  -0.133  -7.372  0.00  0.00    -0.225 NA
ATOM     18  N   UNL     1       6.076  -0.065  -8.761  0.00  0.00    -0.338 N 
ATOM     19  H   UNL     1       6.413  -0.118  -9.668  0.00  0.00    +0.144 HD
ATOM     20  H   UNL     1       6.690   0.068  -8.022  0.00  0.00    +0.144 HD
ENDBRANCH   7  13
BRANCH   1  22
ATOM     21  C   UNL     1      -0.019   1.526   0.010  0.00  0.00    +0.008 C 
ATOM     22  C   UNL     1       0.002  -0.004   0.002  0.00  0.00    +0.054 C 
ENDBRANCH   1  22
BRANCH   1  23
ATOM     23  C   UNL     1       0.737  -2.027  -1.265  0.00  0.00    +0.054 C 
ATOM     24  C   UNL     1       1.560  -2.521  -2.457  0.00  0.00    +0.008 C 
ENDBRANCH   1  23
TORSDOF 3
