REMARK  Name = ZINC54698653
REMARK  7 active torsions:
REMARK  status: ('A' for Active; 'I' for Inactive)
REMARK    1  A    between atoms: C_1  and  C_2
REMARK    2  A    between atoms: C_2  and  C_3
REMARK    3  A    between atoms: C_2  and  C_4
REMARK    4  A    between atoms: C_2  and  C_5
REMARK    5  A    between atoms: C_7  and  C_11
REMARK    6  A    between atoms: N_8  and  C_10
REMARK    7  A    between atoms: C_16  and  N_17
REMARK                            x       y       z     vdW  Elec       q    Type
REMARK                         _______ _______ _______ _____ _____    ______ ____
ROOT
ATOM      1  C   UNL     1       0.393  -0.420  -1.012  0.00  0.00    +0.157 A 
ATOM      2  N   UNL     1       0.489  -1.663  -1.476  0.00  0.00    -0.211 NA
ATOM      3  C   UNL     1       1.112  -1.658  -2.637  0.00  0.00    +0.160 A 
ATOM      4  N   UNL     1       1.427  -0.375  -2.931  0.00  0.00    -0.248 N 
ATOM      5  N   UNL     1       0.946   0.402  -1.865  0.00  0.00    -0.154 NA
ATOM      6  C   UNL     1       2.128   0.107  -4.124  0.00  0.00    +0.174 C 
ENDROOT
BRANCH   3   7
ATOM      7  C   UNL     1       1.413  -2.841  -3.470  0.00  0.00    +0.041 A 
ATOM      8  C   UNL     1       1.135  -2.827  -4.837  0.00  0.00    +0.033 A 
ATOM      9  C   UNL     1       1.419  -3.935  -5.609  0.00  0.00    +0.042 A 
ATOM     10  C   UNL     1       1.979  -5.063  -5.033  0.00  0.00    +0.022 A 
ATOM     11  C   UNL     1       2.259  -5.091  -3.681  0.00  0.00    +0.025 A 
ATOM     12  C   UNL     1       1.986  -3.983  -2.891  0.00  0.00    +0.035 A 
ATOM     13 CL   UNL     1       1.071  -3.914  -7.310  0.00  0.00    -0.084 Cl
BRANCH  12  14
ATOM     14  N   UNL     1       2.274  -4.006  -1.528  0.00  0.00    -0.357 N 
ATOM     15  H   UNL     1       2.084  -3.230  -0.979  0.00  0.00    +0.142 HD
ATOM     16  H   UNL     1       2.664  -4.800  -1.129  0.00  0.00    +0.142 HD
ENDBRANCH  12  14
ENDBRANCH   3   7
BRANCH   1  18
ATOM     17  C   UNL     1      -0.168   1.496   0.459  0.00  0.00    +0.019 C 
ATOM     18  C   UNL     1      -0.256  -0.022   0.289  0.00  0.00    +0.024 C 
ATOM     19  C   UNL     1       0.466  -0.708   1.450  0.00  0.00    +0.019 C 
ATOM     20  C   UNL     1      -1.725  -0.450   0.278  0.00  0.00    +0.019 C 
ENDBRANCH   1  18
TORSDOF 3
