REMARK  Name = ZINC09356733
REMARK  6 active torsions:
REMARK  status: ('A' for Active; 'I' for Inactive)
REMARK    1  A    between atoms: C_1  and  C_2
REMARK    2  A    between atoms: C_2  and  C_26
REMARK    3  A    between atoms: N_3  and  N_4
REMARK    4  A    between atoms: C_5  and  C_7
REMARK    5  A    between atoms: C_8  and  C_18
REMARK    6  A    between atoms: C_29  and  O_32
REMARK                            x       y       z     vdW  Elec       q    Type
REMARK                         _______ _______ _______ _____ _____    ______ ____
ROOT
ATOM      1  C   UNL     1       0.046   0.084   4.782  0.00  0.00    +0.177 A 
ATOM      2  C   UNL     1       0.071  -0.490   6.048  0.00  0.00    +0.109 A 
ATOM      3  N   UNL     1       0.064   0.548   6.936  0.00  0.00    -0.187 N 
ATOM      4  N   UNL     1       0.033   1.726   6.177  0.00  0.00    -0.058 NA
ATOM      5  N   UNL     1       0.030   1.419   4.928  0.00  0.00    -0.124 NA
ATOM      6  C   UNL     1       0.081   0.455   8.331  0.00  0.00    +0.241 A 
ATOM      7  C   UNL     1       0.067   1.583   9.267  0.00  0.00    +0.206 A 
ATOM      8  N   UNL     1       0.091   1.107  10.482  0.00  0.00    -0.032 NA
ATOM      9  O   UNL     1       0.122  -0.306  10.395  0.00  0.00    -0.239 OA
ATOM     10  N   UNL     1       0.108  -0.651   9.021  0.00  0.00    -0.027 NA
ATOM     11  N   UNL     1       0.033   2.928   8.920  0.00  0.00    -0.337 N 
ATOM     12  H   UNL     1       0.017   3.188   7.985  0.00  0.00    +0.144 HD
ATOM     13  H   UNL     1       0.025   3.608   9.612  0.00  0.00    +0.144 HD
ENDROOT
BRANCH   2  14
ATOM     14  C   UNL     1       0.101  -1.931   6.369  0.00  0.00    +0.004 A 
ATOM     15  C   UNL     1       0.971  -2.414   7.349  0.00  0.00    +0.011 A 
ATOM     16  C   UNL     1       0.994  -3.760   7.645  0.00  0.00    +0.022 A 
ATOM     17  C   UNL     1       0.156  -4.635   6.972  0.00  0.00    +0.059 A 
ATOM     18  C   UNL     1      -0.709  -4.163   5.998  0.00  0.00    +0.060 A 
ATOM     19  C   UNL     1      -0.746  -2.816   5.697  0.00  0.00    +0.031 A 
ATOM     20 CL   UNL     1      -1.754  -5.266   5.159  0.00  0.00    -0.082 Cl
ATOM     21 CL   UNL     1       0.192  -6.329   7.350  0.00  0.00    -0.082 Cl
ENDBRANCH   2  14
BRANCH   1  23
ATOM     22  N   UNL     1       0.024   0.035   2.340  0.00  0.00    -0.201 N 
ATOM     23  C   UNL     1       0.044  -0.645   3.503  0.00  0.00    +0.286 C 
ATOM     24  O   UNL     1       0.060  -1.862   3.496  0.00  0.00    -0.267 OA
ATOM     25  H   UNL     1       0.011   1.005   2.345  0.00  0.00    +0.178 HD
BRANCH  22  28
ATOM     26  C   UNL     1      -0.018   1.503   0.010  0.00  0.00    +0.068 C 
ATOM     27  C   UNL     1       0.002  -0.004   0.002  0.00  0.00    +0.063 C 
ATOM     28  N   UNL     1       0.022  -0.659   1.123  0.00  0.00    -0.184 NA
BRANCH  27  29
ATOM     29  C   UNL     1      -0.000  -0.734  -1.279  0.00  0.00    -0.002 A 
ATOM     30  C   UNL     1      -0.015  -0.031  -2.486  0.00  0.00    +0.013 A 
ATOM     31  C   UNL     1      -0.017  -0.718  -3.681  0.00  0.00    +0.046 A 
ATOM     32  C   UNL     1      -0.003  -2.107  -3.686  0.00  0.00    +0.117 A 
ATOM     33  C   UNL     1       0.011  -2.810  -2.488  0.00  0.00    +0.046 A 
ATOM     34  C   UNL     1       0.019  -2.131  -1.289  0.00  0.00    +0.013 A 
BRANCH  32  35
ATOM     35  O   UNL     1      -0.005  -2.780  -4.866  0.00  0.00    -0.507 OA
ATOM     36  H   UNL     1       0.878  -2.966  -5.214  0.00  0.00    +0.292 HD
ENDBRANCH  32  35
ENDBRANCH  27  29
ENDBRANCH  22  28
ENDBRANCH   1  23
TORSDOF 5
