REMARK  Name = ZINC49183557
REMARK  4 active torsions:
REMARK  status: ('A' for Active; 'I' for Inactive)
REMARK    1  A    between atoms: C_1  and  C_2
REMARK    2  A    between atoms: C_2  and  N_3
REMARK    3  A    between atoms: N_6  and  N_7
REMARK    4  A    between atoms: C_8  and  C_10
REMARK                            x       y       z     vdW  Elec       q    Type
REMARK                         _______ _______ _______ _____ _____    ______ ____
ROOT
ATOM      1  N   UNL     1       1.969  -1.311  -3.456  0.00  0.00    -0.233 N 
ATOM      2  C   UNL     1       2.600  -1.745  -4.565  0.00  0.00    +0.233 C 
ATOM      3  O   UNL     1       2.725  -2.935  -4.764  0.00  0.00    -0.274 OA
ATOM      4  H   UNL     1       1.869  -0.359  -3.296  0.00  0.00    +0.173 HD
ENDROOT
BRANCH   1   8
ATOM      5  N   UNL     1       0.688  -0.476  -1.203  0.00  0.00    -0.298 N 
ATOM      6  C   UNL     1       0.827  -1.799  -1.425  0.00  0.00    +0.316 C 
ATOM      7  O   UNL     1       0.383  -2.599  -0.625  0.00  0.00    -0.251 OA
ATOM      8  N   UNL     1       1.458  -2.233  -2.534  0.00  0.00    -0.218 N 
ATOM      9  H   UNL     1       1.042   0.162  -1.842  0.00  0.00    +0.150 HD
ATOM     10  H   UNL     1       1.558  -3.185  -2.693  0.00  0.00    +0.174 HD
BRANCH   5  12
ATOM     11  C   UNL     1      -0.019   1.526   0.010  0.00  0.00    +0.024 C 
ATOM     12  C   UNL     1       0.002  -0.004   0.002  0.00  0.00    +0.102 C 
ENDBRANCH   5  12
ENDBRANCH   1   8
BRANCH   2  13
ATOM     13  C   UNL     1       3.150  -0.753  -5.557  0.00  0.00    +0.080 C 
ATOM     14  C   UNL     1       3.823  -1.501  -6.715  0.00  0.00    +0.017 C 
ATOM     15  C   UNL     1       4.212  -0.481  -7.788  0.00  0.00    +0.027 C 
ATOM     16  C   UNL     1       4.949   0.668  -7.166  0.00  0.00    -0.031 C 
ATOM     17  C   UNL     1       4.940   0.936  -5.900  0.00  0.00    -0.030 C 
ATOM     18  C   UNL     1       4.194   0.132  -4.874  0.00  0.00    +0.039 C 
ENDBRANCH   2  13
TORSDOF 3
