REMARK  Name = ZINC43004609
REMARK  11 active torsions:
REMARK  status: ('A' for Active; 'I' for Inactive)
REMARK    1  A    between atoms: C_1  and  C_2
REMARK    2  A    between atoms: C_2  and  N_3
REMARK    3  A    between atoms: N_3  and  C_4
REMARK    4  A    between atoms: N_3  and  C_6
REMARK    5  A    between atoms: C_4  and  C_5
REMARK    6  A    between atoms: C_6  and  C_7
REMARK    7  A    between atoms: C_7  and  C_8
REMARK    8  A    between atoms: C_8  and  N_9
REMARK    9  A    between atoms: N_12  and  N_13
REMARK   10  A    between atoms: C_14  and  C_16
REMARK   11  A    between atoms: C_16  and  C_17
REMARK                            x       y       z     vdW  Elec       q    Type
REMARK                         _______ _______ _______ _____ _____    ______ ____
ROOT
ATOM      1  N   UNL     1       3.163  -3.820  -1.556  0.00  0.00    -0.298 N 
ATOM      2  C   UNL     1       3.588  -5.061  -1.865  0.00  0.00    +0.316 C 
ATOM      3  O   UNL     1       3.298  -5.999  -1.148  0.00  0.00    -0.251 OA
ATOM      4  N   UNL     1       4.335  -5.262  -2.968  0.00  0.00    -0.218 N 
ATOM      5  H   UNL     1       3.395  -3.071  -2.128  0.00  0.00    +0.150 HD
ATOM      6  H   UNL     1       4.641  -6.155  -3.191  0.00  0.00    +0.174 HD
ENDROOT
BRANCH   4   7
ATOM      7  N   UNL     1       4.670  -4.181  -3.795  0.00  0.00    -0.233 N 
ATOM      8  C   UNL     1       5.417  -4.383  -4.898  0.00  0.00    +0.233 C 
ATOM      9  O   UNL     1       5.800  -5.499  -5.176  0.00  0.00    -0.274 OA
ATOM     10  H   UNL     1       4.364  -3.288  -3.572  0.00  0.00    +0.173 HD
BRANCH   8  11
ATOM     11  C   UNL     1       5.777  -3.220  -5.787  0.00  0.00    +0.132 C 
BRANCH  11  12
ATOM     12  C   UNL     1       6.611  -3.710  -6.942  0.00  0.00    -0.038 A 
ATOM     13  C   UNL     1       7.988  -3.759  -6.829  0.00  0.00    +0.005 A 
ATOM     14  C   UNL     1       8.753  -4.208  -7.889  0.00  0.00    +0.020 A 
ATOM     15  C   UNL     1       8.141  -4.610  -9.063  0.00  0.00    +0.041 A 
ATOM     16  C   UNL     1       6.763  -4.561  -9.175  0.00  0.00    +0.020 A 
ATOM     17  C   UNL     1       5.998  -4.117  -8.113  0.00  0.00    +0.005 A 
ATOM     18 CL   UNL     1       9.101  -5.174 -10.394  0.00  0.00    -0.084 Cl
ENDBRANCH  11  12
ENDBRANCH   8  11
ENDBRANCH   4   7
BRANCH   1  19
ATOM     19  C   UNL     1       2.351  -3.601  -0.357  0.00  0.00    +0.104 C 
BRANCH  19  20
ATOM     20  C   UNL     1       2.004  -2.115  -0.240  0.00  0.00    +0.000 C 
BRANCH  20  21
ATOM     21  C   UNL     1       1.156  -1.887   1.013  0.00  0.00    -0.077 C 
BRANCH  21  22
ATOM     22  N   UNL     1       0.823  -0.461   1.126  0.00  0.00    +0.379 N 
ATOM     23  H   UNL     1       1.671   0.085   1.109  0.00  0.00    -0.082 HD
BRANCH  22  25
ATOM     24  C   UNL     1      -0.264   1.445   0.037  0.00  0.00    -0.017 C 
ATOM     25  C   UNL     1      -0.034  -0.067  -0.001  0.00  0.00    -0.082 C 
ENDBRANCH  22  25
BRANCH  22  26
ATOM     26  C   UNL     1       0.111  -0.222   2.389  0.00  0.00    -0.082 C 
ATOM     27  C   UNL     1       1.053  -0.495   3.563  0.00  0.00    -0.017 C 
ENDBRANCH  22  26
ENDBRANCH  21  22
ENDBRANCH  20  21
ENDBRANCH  19  20
ENDBRANCH   1  19
TORSDOF 9
