REMARK  Name = ZINC40156283
REMARK  7 active torsions:
REMARK  status: ('A' for Active; 'I' for Inactive)
REMARK    1  A    between atoms: C_1  and  C_2
REMARK    2  A    between atoms: N_5  and  S_11
REMARK    3  A    between atoms: C_7  and  C_10
REMARK    4  A    between atoms: S_11  and  C_14
REMARK    5  A    between atoms: C_17  and  C_20
REMARK    6  A    between atoms: N_22  and  C_23
REMARK    7  A    between atoms: C_27  and  C_29
REMARK                            x       y       z     vdW  Elec       q    Type
REMARK                         _______ _______ _______ _____ _____    ______ ____
ROOT
ATOM      1  C   UNL     1       1.433  -4.378  -5.381  0.00  0.00    +0.248 C 
ATOM      2  O   UNL     1       1.442  -3.686  -6.381  0.00  0.00    -0.270 OA
ATOM      3  N   UNL     1       2.237  -5.456  -5.300  0.00  0.00    -0.281 N 
ATOM      4  H   UNL     1       2.280  -5.969  -4.478  0.00  0.00    +0.155 HD
ENDROOT
BRANCH   1   8
ATOM      5  C   UNL     1      -1.136  -3.397  -2.144  0.00  0.00    +0.106 A 
ATOM      6  C   UNL     1      -1.128  -2.607  -3.281  0.00  0.00    +0.029 A 
ATOM      7  C   UNL     1      -0.296  -2.920  -4.335  0.00  0.00    +0.015 A 
ATOM      8  C   UNL     1       0.539  -4.036  -4.255  0.00  0.00    +0.037 A 
ATOM      9  C   UNL     1       0.525  -4.828  -3.106  0.00  0.00    +0.015 A 
ATOM     10  C   UNL     1      -0.308  -4.501  -2.056  0.00  0.00    +0.029 A 
BRANCH   5  11
ATOM     11  S   UNL     1      -2.202  -2.990  -0.802  0.00  0.00    +0.061 S 
ATOM     12  O   UNL     1      -2.416  -4.191  -0.074  0.00  0.00    -0.153 OA
ATOM     13  O   UNL     1      -3.271  -2.229  -1.348  0.00  0.00    -0.153 OA
BRANCH  11  17
ATOM     14  C   UNL     1       0.004   1.548  -0.009  0.00  0.00    +0.039 C 
ATOM     15  C   UNL     1       0.026   0.018  -0.011  0.00  0.00    +0.131 C 
ATOM     16  C   UNL     1      -1.411  -0.514   0.013  0.00  0.00    +0.140 C 
ATOM     17  N   UNL     1      -1.362  -1.973   0.200  0.00  0.00    -0.172 NA
ATOM     18  C   UNL     1      -0.545  -2.502   1.303  0.00  0.00    +0.140 C 
ATOM     19  C   UNL     1       0.850  -1.872   1.217  0.00  0.00    +0.131 C 
ATOM     20  O   UNL     1       0.722  -0.450   1.147  0.00  0.00    -0.371 OA
ATOM     21  C   UNL     1       1.661  -2.253   2.458  0.00  0.00    +0.039 C 
ENDBRANCH  11  17
ENDBRANCH   5  11
ENDBRANCH   1   8
BRANCH   3  22
ATOM     22  C   UNL     1       3.011  -5.836  -6.402  0.00  0.00    +0.034 A 
ATOM     23  C   UNL     1       3.553  -4.867  -7.238  0.00  0.00    +0.023 A 
ATOM     24  C   UNL     1       4.318  -5.238  -8.327  0.00  0.00    +0.002 A 
ATOM     25  C   UNL     1       4.549  -6.574  -8.591  0.00  0.00    +0.010 A 
ATOM     26  C   UNL     1       4.010  -7.552  -7.757  0.00  0.00    +0.001 A 
ATOM     27  C   UNL     1       3.243  -7.179  -6.656  0.00  0.00    +0.033 A 
BRANCH  26  28
ATOM     28  C   UNL     1       4.257  -8.988  -8.039  0.00  0.00    +0.064 A 
ATOM     29  C   UNL     1       3.788 -10.040  -7.315  0.00  0.00    +0.113 A 
ATOM     30  N   UNL     1       4.251 -11.167  -7.923  0.00  0.00    -0.335 N 
ATOM     31  C   UNL     1       4.986 -10.782  -8.994  0.00  0.00    +0.087 A 
ATOM     32  N   UNL     1       4.982  -9.484  -9.064  0.00  0.00    -0.343 N 
ATOM     33  C   UNL     1       5.677 -11.745  -9.932  0.00  0.00    +0.072 C 
ATOM     34  C   UNL     1       5.739 -13.118  -9.251  0.00  0.00    +0.009 C 
ATOM     35  C   UNL     1       4.353 -13.473  -8.706  0.00  0.00    +0.022 C 
ATOM     36  C   UNL     1       4.018 -12.557  -7.523  0.00  0.00    +0.123 C 
ATOM     37  H   UNL     1       5.430  -8.956  -9.743  0.00  0.00    +0.167 HD
ENDBRANCH  26  28
ENDBRANCH   3  22
TORSDOF 5
