REMARK  Name = ZINC43410990
REMARK  5 active torsions:
REMARK  status: ('A' for Active; 'I' for Inactive)
REMARK    1  A    between atoms: C_5  and  O_10
REMARK    2  A    between atoms: C_6  and  C_7
REMARK    3  A    between atoms: C_7  and  N_9
REMARK    4  A    between atoms: O_10  and  C_11
REMARK    5  A    between atoms: C_11  and  C_12
REMARK                            x       y       z     vdW  Elec       q    Type
REMARK                         _______ _______ _______ _____ _____    ______ ____
ROOT
ATOM      1  C   UNL     1      -0.017   1.393  -0.004  0.00  0.00    +0.021 A 
ATOM      2  C   UNL     1       1.191   2.080  -0.011  0.00  0.00    -0.025 A 
ATOM      3  C   UNL     1       2.373   1.373  -0.007  0.00  0.00    +0.048 A 
ATOM      4  N   UNL     1       2.362   0.045  -0.005  0.00  0.00    -0.217 NA
ATOM      5  C   UNL     1       1.246  -0.656   0.000  0.00  0.00    +0.225 A 
ATOM      6  C   UNL     1       0.002  -0.004   0.003  0.00  0.00    +0.065 A 
ATOM      7  C   UNL     1       3.718   2.054   0.004  0.00  0.00    +0.056 C 
ATOM      8  C   UNL     1       3.587   3.510  -0.434  0.00  0.00    +0.006 C 
ATOM      9  C   UNL     1       2.485   4.171   0.402  0.00  0.00    +0.005 C 
ATOM     10  C   UNL     1       1.141   3.585  -0.025  0.00  0.00    +0.037 C 
ENDROOT
BRANCH   6  11
ATOM     11  C   UNL     1      -1.253  -0.775   0.013  0.00  0.00    +0.082 C 
ATOM     12  S   UNL     1      -1.212  -2.481  -0.127  0.00  0.00    -0.035 S 
BRANCH  11  13
ATOM     13  N   UNL     1      -2.435  -0.138   0.132  0.00  0.00    -0.352 N 
ATOM     14  H   UNL     1      -2.464   0.832   0.138  0.00  0.00    +0.143 HD
ATOM     15  H   UNL     1      -3.256  -0.648   0.212  0.00  0.00    +0.143 HD
ENDBRANCH  11  13
ENDBRANCH   6  11
BRANCH   5  16
ATOM     16  O   UNL     1       1.298  -2.010   0.004  0.00  0.00    -0.473 OA
BRANCH  16  17
ATOM     17  C   UNL     1       2.596  -2.608   0.001  0.00  0.00    +0.262 C 
BRANCH  17  18
ATOM     18  C   UNL     1       2.454  -4.132   0.005  0.00  0.00    +0.156 C 
ATOM     19  C   UNL     1       3.848  -4.802  -0.089  0.00  0.00    +0.037 C 
ATOM     20  C   UNL     1       3.557  -6.181   0.563  0.00  0.00    +0.031 C 
ATOM     21  C   UNL     1       2.509  -5.821   1.638  0.00  0.00    +0.160 C 
ATOM     22  O   UNL     1       1.905  -4.578   1.256  0.00  0.00    -0.373 OA
ENDBRANCH  17  18
ENDBRANCH  16  17
ENDBRANCH   5  16
TORSDOF 5
