REMARK  Name = ZINC35271772
REMARK  15 active torsions:
REMARK  status: ('A' for Active; 'I' for Inactive)
REMARK    1  A    between atoms: C_1  and  C_2
REMARK    2  A    between atoms: C_2  and  C_9
REMARK    3  A    between atoms: C_3  and  C_4
REMARK    4  A    between atoms: C_4  and  O_5
REMARK    5  A    between atoms: O_5  and  C_6
REMARK    6  A    between atoms: C_6  and  C_8
REMARK    7  A    between atoms: C_9  and  O_11
REMARK    8  A    between atoms: O_11  and  C_12
REMARK    9  A    between atoms: C_15  and  C_36
REMARK   10  A    between atoms: C_16  and  O_35
REMARK   11  A    between atoms: C_24  and  O_34
REMARK   12  A    between atoms: C_26  and  C_28
REMARK   13  A    between atoms: C_28  and  C_30
REMARK   14  A    between atoms: C_30  and  O_32
REMARK   15  A    between atoms: O_32  and  C_33
REMARK                            x       y       z     vdW  Elec       q    Type
REMARK                         _______ _______ _______ _____ _____    ______ ____
ROOT
ATOM      1  C   UNL     1      -0.466  -1.657  -3.092  0.00  0.00    +0.187 C 
ATOM      2  C   UNL     1      -1.791  -1.662  -3.860  0.00  0.00    +0.055 C 
ATOM      3  C   UNL     1      -1.614  -2.458  -5.152  0.00  0.00    +0.009 C 
ATOM      4  C   UNL     1      -2.922  -2.517  -5.937  0.00  0.00    +0.122 C 
ATOM      5  C   UNL     1      -2.739  -3.410  -7.167  0.00  0.00    +0.039 C 
ATOM      6  C   UNL     1      -1.686  -2.803  -8.098  0.00  0.00    +0.077 C 
ATOM      7  C   UNL     1      -0.419  -2.552  -7.307  0.00  0.00    +0.140 C 
ATOM      8  O   UNL     1       0.651  -2.952  -7.699  0.00  0.00    -0.297 OA
ATOM      9  C   UNL     1      -0.538  -1.785  -6.011  0.00  0.00    +0.093 C 
ATOM     10  C   UNL     1       0.789  -1.805  -5.255  0.00  0.00    +0.136 C 
ATOM     11  C   UNL     1       0.628  -1.020  -3.949  0.00  0.00    +0.095 C 
ATOM     12  C   UNL     1      -1.173  -3.883  -4.812  0.00  0.00    +0.014 C 
ENDROOT
BRANCH  11  13
ATOM     13  C   UNL     1       1.932  -1.038  -3.193  0.00  0.00    +0.039 C 
ATOM     14  C   UNL     1       2.077  -1.835  -2.137  0.00  0.00    +0.020 C 
BRANCH  13  15
ATOM     15  C   UNL     1       3.042  -0.177  -3.621  0.00  0.00    +0.335 C 
ATOM     16  O   UNL     1       4.123  -0.261  -3.072  0.00  0.00    -0.245 OA
BRANCH  15  17
ATOM     17  O   UNL     1       2.862   0.707  -4.623  0.00  0.00    -0.465 OA
ATOM     18  C   UNL     1       3.984   1.513  -4.987  0.00  0.00    +0.280 C 
ENDBRANCH  15  17
ENDBRANCH  13  15
ENDBRANCH  11  13
BRANCH  10  19
ATOM     19  O   UNL     1       1.153  -3.156  -4.963  0.00  0.00    -0.390 OA
ATOM     20  H   UNL     1       1.956  -3.240  -4.430  0.00  0.00    +0.210 HD
ENDBRANCH  10  19
BRANCH   4  21
ATOM     21  O   UNL     1      -3.952  -3.055  -5.106  0.00  0.00    -0.391 OA
ATOM     22  H   UNL     1      -4.814  -3.122  -5.540  0.00  0.00    +0.210 HD
ENDBRANCH   4  21
BRANCH   1  23
ATOM     23  O   UNL     1      -0.620  -0.907  -1.885  0.00  0.00    -0.457 OA
BRANCH  23  24
ATOM     24  C   UNL     1      -1.021  -1.583  -0.791  0.00  0.00    +0.335 C 
ATOM     25  O   UNL     1      -1.234  -2.778  -0.859  0.00  0.00    -0.245 OA
BRANCH  24  27
ATOM     26  C   UNL     1      -0.122  -0.935   1.537  0.00  0.00    +0.051 C 
ATOM     27  C   UNL     1      -1.200  -0.877   0.485  0.00  0.00    +0.033 C 
ATOM     28  C   UNL     1      -2.315  -0.187   0.713  0.00  0.00    +0.024 C 
BRANCH  28  29
ATOM     29  C   UNL     1      -3.343  -0.035  -0.379  0.00  0.00    +0.260 C 
BRANCH  29  30
ATOM     30  O   UNL     1      -4.636  -0.355   0.137  0.00  0.00    -0.461 OA
BRANCH  30  31
ATOM     31  C   UNL     1      -5.671  -0.269  -0.714  0.00  0.00    +0.304 C 
ATOM     32  O   UNL     1      -5.484   0.067  -1.860  0.00  0.00    -0.251 OA
ATOM     33  C   UNL     1      -7.065  -0.592  -0.242  0.00  0.00    +0.136 C 
ENDBRANCH  30  31
ENDBRANCH  29  30
ENDBRANCH  28  29
ENDBRANCH  24  27
ENDBRANCH  23  24
ENDBRANCH   1  23
TORSDOF 11
