REMARK  Name = ZINC36877936
REMARK  5 active torsions:
REMARK  status: ('A' for Active; 'I' for Inactive)
REMARK    1  A    between atoms: C_1  and  C_2
REMARK    2  A    between atoms: C_3  and  C_17
REMARK    3  A    between atoms: C_6  and  C_8
REMARK    4  A    between atoms: C_8  and  C_10
REMARK    5  A    between atoms: C_8  and  N_16
REMARK                            x       y       z     vdW  Elec       q    Type
REMARK                         _______ _______ _______ _____ _____    ______ ____
ROOT
ATOM      1  C   UNL     1      -0.018   1.503   0.010  0.00  0.00    +0.065 C 
ATOM      2  C   UNL     1       0.002  -0.004   0.002  0.00  0.00    +0.038 A 
ATOM      3  C   UNL     1       0.008  -0.799  -1.102  0.00  0.00    +0.067 A 
ATOM      4  N   UNL     1       0.028  -2.098  -0.648  0.00  0.00    -0.342 N 
ATOM      5  H   UNL     1       0.037  -2.900  -1.195  0.00  0.00    +0.167 HD
ATOM      6  C   UNL     1       0.034  -2.047   0.701  0.00  0.00    +0.107 A 
ATOM      7  N   UNL     1       0.024  -0.797   1.079  0.00  0.00    -0.345 N 
ATOM      8  H   UNL     1       0.028  -0.491   2.000  0.00  0.00    +0.167 HD
ENDROOT
BRANCH   3   9
ATOM      9  C   UNL     1      -0.005  -0.354  -2.513  0.00  0.00    +0.000 A 
ATOM     10  C   UNL     1      -0.871   0.662  -2.919  0.00  0.00    +0.011 A 
ATOM     11  C   UNL     1      -0.879   1.073  -4.236  0.00  0.00    +0.016 A 
ATOM     12  C   UNL     1      -0.031   0.478  -5.154  0.00  0.00    +0.018 A 
ATOM     13  C   UNL     1       0.831  -0.530  -4.757  0.00  0.00    +0.016 A 
ATOM     14  C   UNL     1       0.852  -0.945  -3.442  0.00  0.00    +0.011 A 
ATOM     15 BR   UNL     1      -0.048   1.046  -6.958  0.00  0.00    -0.050 Br
ENDBRANCH   3   9
BRANCH   6  16
ATOM     16  C   UNL     1       0.054  -3.240   1.622  0.00  0.00    +0.146 C 
BRANCH  16  17
ATOM     17  C   UNL     1       1.481  -3.619   1.923  0.00  0.00    -0.023 A 
ATOM     18  C   UNL     1       2.210  -4.352   1.004  0.00  0.00    +0.005 A 
ATOM     19  C   UNL     1       3.519  -4.699   1.280  0.00  0.00    +0.000 A 
ATOM     20  C   UNL     1       4.100  -4.313   2.473  0.00  0.00    +0.000 A 
ATOM     21  C   UNL     1       3.372  -3.579   3.391  0.00  0.00    +0.000 A 
ATOM     22  C   UNL     1       2.064  -3.228   3.114  0.00  0.00    +0.005 A 
ENDBRANCH  16  17
BRANCH  16  23
ATOM     23  N   UNL     1      -0.627  -4.370   0.975  0.00  0.00    -0.318 NA
ATOM     24  H   UNL     1      -1.603  -4.164   0.822  0.00  0.00    +0.119 HD
ATOM     25  H   UNL     1      -0.170  -4.620   0.111  0.00  0.00    +0.119 HD
ENDBRANCH  16  23
ENDBRANCH   6  16
TORSDOF 4
