REMARK  Name = ZINC07666098
REMARK  6 active torsions:
REMARK  status: ('A' for Active; 'I' for Inactive)
REMARK    1  A    between atoms: C_1  and  C_2
REMARK    2  A    between atoms: C_5  and  C_23
REMARK    3  A    between atoms: C_6  and  N_8
REMARK    4  A    between atoms: C_9  and  S_11
REMARK    5  A    between atoms: S_11  and  C_12
REMARK    6  A    between atoms: C_12  and  C_13
REMARK                            x       y       z     vdW  Elec       q    Type
REMARK                         _______ _______ _______ _____ _____    ______ ____
ROOT
ATOM      1  N   UNL     1      -2.457   3.864  -0.215  0.00  0.00    -0.226 NA
ATOM      2  C   UNL     1      -2.441   5.127   0.148  0.00  0.00    +0.152 C 
ATOM      3  N   UNL     1      -1.260   5.829   0.141  0.00  0.00    -0.338 N 
ATOM      4  H   UNL     1      -0.422   5.366  -0.015  0.00  0.00    +0.144 HD
ATOM      5  H   UNL     1      -1.265   6.787   0.291  0.00  0.00    +0.144 HD
ENDROOT
BRANCH   1  11
ATOM      6  C   UNL     1       1.275   3.973  -3.383  0.00  0.00    +0.044 C 
ATOM      7  C   UNL     1       0.517   3.309  -2.263  0.00  0.00    -0.048 A 
ATOM      8  C   UNL     1       0.965   2.107  -1.744  0.00  0.00    +0.004 A 
ATOM      9  C   UNL     1       0.274   1.490  -0.716  0.00  0.00    +0.006 A 
ATOM     10  C   UNL     1      -0.870   2.068  -0.205  0.00  0.00    -0.025 A 
ATOM     11  C   UNL     1      -1.325   3.283  -0.721  0.00  0.00    +0.070 A 
ATOM     12  C   UNL     1      -0.623   3.900  -1.758  0.00  0.00    +0.031 A 
ATOM     13  C   UNL     1      -1.624   1.391   0.911  0.00  0.00    +0.046 C 
ENDBRANCH   1  11
BRANCH   2  14
ATOM     14  S   UNL     1      -3.934   5.919   0.645  0.00  0.00    -0.085 S 
BRANCH  14  15
ATOM     15  C   UNL     1      -5.097   4.546   0.456  0.00  0.00    +0.132 C 
BRANCH  15  16
ATOM     16  C   UNL     1      -6.481   5.003   0.836  0.00  0.00    +0.059 A 
ATOM     17  C   UNL     1      -7.428   5.257  -0.134  0.00  0.00    +0.095 A 
ATOM     18  C   UNL     1      -8.706   5.675   0.238  0.00  0.00    +0.259 A 
ATOM     19  O   UNL     1      -9.550   5.896  -0.616  0.00  0.00    -0.267 OA
ATOM     20  N   UNL     1      -9.011   5.843   1.560  0.00  0.00    -0.262 N 
ATOM     21  C   UNL     1     -10.215   6.252   2.080  0.00  0.00    +0.104 A 
ATOM     22  C   UNL     1     -10.388   6.379   3.395  0.00  0.00    +0.067 A 
ATOM     23  S   UNL     1      -8.785   5.904   4.024  0.00  0.00    -0.058 S 
ATOM     24  C   UNL     1      -8.010   5.574   2.455  0.00  0.00    +0.180 A 
ATOM     25  N   UNL     1      -6.810   5.176   2.114  0.00  0.00    -0.227 NA
ENDBRANCH  15  16
ENDBRANCH  14  15
ENDBRANCH   2  14
TORSDOF 4
