REMARK  Name = ZINC14990825
REMARK  14 active torsions:
REMARK  status: ('A' for Active; 'I' for Inactive)
REMARK    1  A    between atoms: C_1  and  C_2
REMARK    2  A    between atoms: C_2  and  C_3
REMARK    3  A    between atoms: C_2  and  C_4
REMARK    4  A    between atoms: C_4  and  C_5
REMARK    5  A    between atoms: C_5  and  N_6
REMARK    6  A    between atoms: C_7  and  C_9
REMARK    7  A    between atoms: N_11  and  C_27
REMARK    8  A    between atoms: C_13  and  C_16
REMARK    9  A    between atoms: N_18  and  C_19
REMARK   10  A    between atoms: C_19  and  C_20
REMARK   11  A    between atoms: C_26  and  N_68
REMARK   12  A    between atoms: C_27  and  C_28
REMARK   13  A    between atoms: C_28  and  C_29
REMARK   14  A    between atoms: C_28  and  C_30
REMARK                            x       y       z     vdW  Elec       q    Type
REMARK                         _______ _______ _______ _____ _____    ______ ____
ROOT
ATOM      1  C   UNL     1      -8.855   3.030  -1.758  0.00  0.00    +0.100 A 
ATOM      2  C   UNL     1      -7.994   3.766  -2.542  0.00  0.00    +0.102 A 
ATOM      3  N   UNL     1      -6.694   3.893  -2.226  0.00  0.00    -0.351 N 
ATOM      4  C   UNL     1      -6.139   3.326  -1.143  0.00  0.00    +0.102 A 
ATOM      5  C   UNL     1      -6.883   2.562  -0.271  0.00  0.00    +0.100 A 
ATOM      6  C   UNL     1      -8.316   2.374  -0.555  0.00  0.00    +0.206 A 
ATOM      7  O   UNL     1      -9.026   1.705   0.177  0.00  0.00    -0.286 OA
ENDROOT
BRANCH   1   9
ATOM      8  N   UNL     1     -10.752   3.502  -3.224  0.00  0.00    -0.311 N 
ATOM      9  C   UNL     1     -10.277   2.898  -2.116  0.00  0.00    +0.249 C 
ATOM     10  O   UNL     1     -11.024   2.245  -1.413  0.00  0.00    -0.270 OA
ATOM     11  H   UNL     1     -10.156   4.023  -3.785  0.00  0.00    +0.149 HD
BRANCH   8  12
ATOM     12  C   UNL     1     -12.167   3.371  -3.580  0.00  0.00    +0.105 C 
BRANCH  12  13
ATOM     13  C   UNL     1     -12.441   4.146  -4.871  0.00  0.00    +0.022 C 
BRANCH  13  15
ATOM     14  C   UNL     1     -14.221   4.884  -6.461  0.00  0.00    +0.007 C 
ATOM     15  C   UNL     1     -13.919   4.010  -5.243  0.00  0.00    -0.016 C 
ATOM     16  C   UNL     1     -14.228   2.548  -5.575  0.00  0.00    +0.007 C 
ENDBRANCH  13  15
ENDBRANCH  12  13
ENDBRANCH   8  12
ENDBRANCH   1   9
BRANCH   5  17
ATOM     17  C   UNL     1      -6.260   1.946   0.913  0.00  0.00    +0.249 C 
ATOM     18  O   UNL     1      -6.932   1.274   1.673  0.00  0.00    -0.270 OA
ATOM     19  N   UNL     1      -4.946   2.125   1.154  0.00  0.00    -0.311 N 
ATOM     20  H   UNL     1      -4.411   2.660   0.548  0.00  0.00    +0.149 HD
BRANCH  19  21
ATOM     21  C   UNL     1      -4.327   1.511   2.331  0.00  0.00    +0.106 C 
BRANCH  21  22
ATOM     22  C   UNL     1      -2.840   1.868   2.369  0.00  0.00    -0.011 C 
ATOM     23  C   UNL     1      -2.219   1.333   3.663  0.00  0.00    +0.001 C 
ATOM     24  C   UNL     1      -0.719   1.641   3.665  0.00  0.00    -0.018 C 
ATOM     25  C   UNL     1      -0.072   1.015   2.427  0.00  0.00    -0.079 C 
ATOM     26  C   UNL     1      -2.132   1.235   1.169  0.00  0.00    -0.074 C 
ATOM     27  C   UNL     1      -0.013   1.086   0.008  0.00  0.00    -0.096 C 
ATOM     28  N   UNL     1      -0.697   1.589   1.217  0.00  0.00    +0.378 N 
ATOM     29  H   UNL     1      -0.608   2.612   1.249  0.00  0.00    -0.082 HD
ENDBRANCH  21  22
ENDBRANCH  19  21
ENDBRANCH   5  17
BRANCH   3  30
ATOM     30  C   UNL     1      -5.840   4.691  -3.109  0.00  0.00    +0.124 C 
BRANCH  30  31
ATOM     31  C   UNL     1      -5.239   3.790  -4.189  0.00  0.00    +0.003 C 
ATOM     32  C   UNL     1      -4.448   4.643  -5.183  0.00  0.00    +0.009 C 
ATOM     33  C   UNL     1      -4.306   2.767  -3.539  0.00  0.00    +0.009 C 
ENDBRANCH  30  31
ENDBRANCH   3  30
TORSDOF 9
