REMARK  Name = ZINC13864431
REMARK  11 active torsions:
REMARK  status: ('A' for Active; 'I' for Inactive)
REMARK    1  A    between atoms: C_1  and  N_2
REMARK    2  A    between atoms: C_3  and  C_5
REMARK    3  A    between atoms: C_8  and  O_14
REMARK    4  A    between atoms: O_14  and  C_15
REMARK    5  A    between atoms: C_18  and  C_21
REMARK    6  A    between atoms: C_22  and  C_23
REMARK    7  A    between atoms: N_25  and  C_26
REMARK    8  A    between atoms: C_26  and  C_27
REMARK    9  A    between atoms: C_27  and  C_29
REMARK   10  A    between atoms: C_27  and  O_31
REMARK   11  A    between atoms: C_29  and  O_30
REMARK                            x       y       z     vdW  Elec       q    Type
REMARK                         _______ _______ _______ _____ _____    ______ ____
ROOT
ATOM      1  C   UNL     1      -7.984   2.235  -0.054  0.00  0.00    +0.129 A 
ATOM      2  C   UNL     1      -8.859   1.155  -0.059  0.00  0.00    +0.047 A 
ATOM      3  C   UNL     1     -10.216   1.365  -0.152  0.00  0.00    +0.011 A 
ATOM      4  C   UNL     1     -10.714   2.670  -0.253  0.00  0.00    -0.025 A 
ATOM      5  C   UNL     1      -9.829   3.754  -0.252  0.00  0.00    +0.011 A 
ATOM      6  C   UNL     1      -8.474   3.533  -0.153  0.00  0.00    +0.047 A 
ENDROOT
BRANCH   4   7
ATOM      7  C   UNL     1     -12.162   2.901  -0.357  0.00  0.00    +0.013 C 
ATOM      8  C   UNL     1     -13.014   1.854  -0.357  0.00  0.00    +0.068 C 
BRANCH   8   9
ATOM      9  C   UNL     1     -14.455   2.083  -0.462  0.00  0.00    +0.237 C 
ATOM     10  O   UNL     1     -14.886   3.218  -0.549  0.00  0.00    -0.271 OA
ATOM     11  N   UNL     1     -15.306   1.038  -0.462  0.00  0.00    -0.309 N 
ATOM     12  H   UNL     1     -14.962   0.133  -0.393  0.00  0.00    +0.149 HD
BRANCH  11  13
ATOM     13  C   UNL     1     -16.748   1.268  -0.567  0.00  0.00    +0.138 C 
BRANCH  13  14
ATOM     14  C   UNL     1     -17.482  -0.075  -0.543  0.00  0.00    +0.157 C 
BRANCH  14  15
ATOM     15  O   UNL     1     -17.290  -0.701   0.727  0.00  0.00    -0.388 OA
ATOM     16  H   UNL     1     -17.619  -0.183   1.474  0.00  0.00    +0.210 HD
ENDBRANCH  14  15
BRANCH  14  17
ATOM     17  C   UNL     1     -18.976   0.156  -0.778  0.00  0.00    +0.188 C 
BRANCH  17  18
ATOM     18  O   UNL     1     -19.644  -1.104  -0.872  0.00  0.00    -0.392 OA
ATOM     19  H   UNL     1     -20.597  -1.034  -1.021  0.00  0.00    +0.210 HD
ENDBRANCH  17  18
ENDBRANCH  14  17
ENDBRANCH  13  14
ENDBRANCH  11  13
ENDBRANCH   8   9
ENDBRANCH   4   7
BRANCH   1  20
ATOM     20  O   UNL     1      -6.647   2.022   0.044  0.00  0.00    -0.454 OA
BRANCH  20  24
ATOM     21  C   UNL     1      -6.098  -0.331  -3.575  0.00  0.00    +0.075 A 
ATOM     22  C   UNL     1      -6.303   0.502  -2.518  0.00  0.00    +0.033 A 
ATOM     23  C   UNL     1      -6.055   0.049  -1.215  0.00  0.00    +0.035 A 
ATOM     24  C   UNL     1      -6.203   0.739   0.023  0.00  0.00    +0.155 A 
ATOM     25  C   UNL     1      -5.891   0.093   1.197  0.00  0.00    +0.157 A 
ATOM     26  N   UNL     1      -5.455  -1.155   1.222  0.00  0.00    -0.258 NA
ATOM     27  C   UNL     1      -5.296  -1.850   0.112  0.00  0.00    +0.126 A 
ATOM     28  C   UNL     1      -5.584  -1.283  -1.110  0.00  0.00    +0.042 A 
ATOM     29  S   UNL     1      -5.519  -1.829  -2.796  0.00  0.00    -0.082 S 
BRANCH  21  32
ATOM     30  C   UNL     1      -6.238  -0.753  -7.343  0.00  0.00    +0.128 C 
ATOM     31  N   UNL     1      -6.033  -1.020  -5.917  0.00  0.00    -0.314 N 
ATOM     32  C   UNL     1      -6.298  -0.061  -5.007  0.00  0.00    +0.250 C 
ATOM     33  O   UNL     1      -6.703   1.026  -5.370  0.00  0.00    -0.270 OA
ATOM     34  H   UNL     1      -5.710  -1.887  -5.627  0.00  0.00    +0.149 HD
ENDBRANCH  21  32
ENDBRANCH  20  24
ENDBRANCH   1  20
TORSDOF 10
