REMARK  Name = ZINC20803491
REMARK  4 active torsions:
REMARK  status: ('A' for Active; 'I' for Inactive)
REMARK    1  A    between atoms: C_1  and  C_2
REMARK    2  A    between atoms: C_4  and  C_21
REMARK    3  A    between atoms: C_6  and  C_14
REMARK    4  A    between atoms: C_17  and  O_20
REMARK                            x       y       z     vdW  Elec       q    Type
REMARK                         _______ _______ _______ _____ _____    ______ ____
ROOT
ATOM      1  C   UNL     1       0.537   0.028   2.447  0.00  0.00    +0.028 C 
ATOM      2  C   UNL     1       0.963  -0.515   1.082  0.00  0.00    +0.084 C 
ATOM      3  C   UNL     1       0.002  -0.004   0.002  0.00  0.00    +0.124 C 
ATOM      4  C   UNL     1      -0.019   1.530   0.011  0.00  0.00    +0.154 C 
ATOM      5  N   UNL     1       1.359   2.020  -0.000  0.00  0.00    -0.225 N 
ATOM      6  C   UNL     1       2.437   1.277   0.349  0.00  0.00    +0.214 A 
ATOM      7  N   UNL     1       3.501   2.022   0.220  0.00  0.00    -0.202 NA
ATOM      8  C   UNL     1       3.144   3.240  -0.203  0.00  0.00    +0.247 A 
ATOM      9  N   UNL     1       1.844   3.281  -0.350  0.00  0.00    -0.156 NA
ATOM     10  N   UNL     1       2.325  -0.045   0.761  0.00  0.00    -0.310 N 
ATOM     11  H   UNL     1       3.180  -0.731   0.854  0.00  0.00    +0.149 HD
ENDROOT
BRANCH   4  12
ATOM     12  C   UNL     1      -0.743   2.031  -1.212  0.00  0.00    -0.022 A 
ATOM     13  C   UNL     1      -0.270   1.716  -2.473  0.00  0.00    +0.009 A 
ATOM     14  C   UNL     1      -0.935   2.171  -3.595  0.00  0.00    +0.046 A 
ATOM     15  C   UNL     1      -2.072   2.953  -3.456  0.00  0.00    +0.117 A 
ATOM     16  C   UNL     1      -2.541   3.273  -2.191  0.00  0.00    +0.046 A 
ATOM     17  C   UNL     1      -1.876   2.811  -1.071  0.00  0.00    +0.009 A 
BRANCH  15  18
ATOM     18  O   UNL     1      -2.724   3.407  -4.559  0.00  0.00    -0.507 OA
ATOM     19  H   UNL     1      -3.626   4.027  -4.448  0.00  0.00    +0.292 HD
ENDBRANCH  15  18
ENDBRANCH   4  12
BRANCH   3  20
ATOM     20  C   UNL     1      -1.385  -0.526   0.278  0.00  0.00    +0.218 C 
ATOM     21  O   UNL     1      -2.299   0.250   0.463  0.00  0.00    -0.276 OA
ATOM     22  N   UNL     1      -1.609  -1.854   0.319  0.00  0.00    -0.329 N 
ATOM     23  H   UNL     1      -2.621  -2.235   0.520  0.00  0.00    +0.145 HD
ATOM     24  H   UNL     1      -0.780  -2.557   0.151  0.00  0.00    +0.145 HD
ENDBRANCH   3  20
TORSDOF 3
