REMARK  Name = ZINC10395782
REMARK  4 active torsions:
REMARK  status: ('A' for Active; 'I' for Inactive)
REMARK    1  A    between atoms: C_9  and  C_12
REMARK    2  A    between atoms: C_12  and  O_14
REMARK    3  A    between atoms: O_14  and  C_15
REMARK    4  A    between atoms: C_15  and  C_16
REMARK                            x       y       z     vdW  Elec       q    Type
REMARK                         _______ _______ _______ _____ _____    ______ ____
ROOT
ATOM      1  C   UNL     1      -0.023   1.513   0.179  0.00  0.00    +0.170 A 
ATOM      2  N   UNL     1       1.121   2.174   0.166  0.00  0.00    -0.214 NA
ATOM      3  C   UNL     1       1.175   3.487   0.009  0.00  0.00    +0.128 A 
ATOM      4  C   UNL     1      -0.038   4.214  -0.153  0.00  0.00    +0.051 A 
ATOM      5  C   UNL     1      -0.219   5.657  -0.345  0.00  0.00    -0.025 A 
ATOM      6  C   UNL     1      -1.487   6.097  -0.468  0.00  0.00    -0.004 A 
ATOM      7  S   UNL     1      -2.498   4.643  -0.348  0.00  0.00    -0.073 S 
ATOM      8  C   UNL     1      -1.214   3.441  -0.127  0.00  0.00    +0.114 A 
ATOM      9  N   UNL     1      -1.177   2.132   0.030  0.00  0.00    -0.221 NA
ATOM     10  C   UNL     1      -1.957   7.506  -0.657  0.00  0.00    +0.043 C 
ATOM     11  C   UNL     1      -1.155   8.161  -1.789  0.00  0.00    +0.005 C 
ATOM     12  C   UNL     1       0.085   8.813  -1.184  0.00  0.00    +0.001 C 
ATOM     13  C   UNL     1       0.568   8.002   0.016  0.00  0.00    +0.005 C 
ATOM     14  C   UNL     1       0.980   6.599  -0.416  0.00  0.00    +0.037 C 
ATOM     15  N   UNL     1       2.392   4.143   0.001  0.00  0.00    -0.343 N 
ATOM     16  H   UNL     1       2.489   4.981  -0.478  0.00  0.00    +0.144 HD
ATOM     17  H   UNL     1       3.150   3.765   0.474  0.00  0.00    +0.144 HD
ENDROOT
BRANCH   1  18
ATOM     18  C   UNL     1      -0.007   0.017   0.362  0.00  0.00    +0.308 C 
BRANCH  18  19
ATOM     19  O   UNL     1      -0.082  -0.299   1.777  0.00  0.00    -0.454 OA
BRANCH  19  20
ATOM     20  C   UNL     1      -0.078  -1.598   2.113  0.00  0.00    +0.352 C 
ATOM     21  O   UNL     1      -0.015  -2.444   1.253  0.00  0.00    -0.247 OA
BRANCH  20  30
ATOM     22  C   UNL     1      -1.030  -5.136   7.296  0.00  0.00    +0.004 A 
ATOM     23  C   UNL     1      -0.258  -5.834   6.387  0.00  0.00    +0.004 A 
ATOM     24  C   UNL     1       0.080  -5.258   5.177  0.00  0.00    +0.049 A 
ATOM     25  C   UNL     1      -0.355  -3.977   4.872  0.00  0.00    +0.163 A 
ATOM     26  C   UNL     1      -1.129  -3.274   5.788  0.00  0.00    +0.162 A 
ATOM     27  C   UNL     1      -1.466  -3.859   7.000  0.00  0.00    +0.049 A 
ATOM     28  O   UNL     1      -1.560  -2.012   5.512  0.00  0.00    -0.484 OA
ATOM     29  C   UNL     1      -1.518  -1.603   4.141  0.00  0.00    +0.285 C 
ATOM     30  C   UNL     1      -0.153  -2.002   3.563  0.00  0.00    +0.318 C 
ATOM     31  O   UNL     1      -0.017  -3.423   3.676  0.00  0.00    -0.471 OA
ENDBRANCH  20  30
ENDBRANCH  19  20
ENDBRANCH  18  19
ENDBRANCH   1  18
TORSDOF 4
