REMARK  Name = ZINC20431573
REMARK  7 active torsions:
REMARK  status: ('A' for Active; 'I' for Inactive)
REMARK    1  A    between atoms: C_1  and  C_2
REMARK    2  A    between atoms: C_3  and  S_9
REMARK    3  A    between atoms: C_4  and  C_8
REMARK    4  A    between atoms: S_9  and  N_12
REMARK    5  A    between atoms: N_12  and  C_13
REMARK    6  A    between atoms: C_13  and  C_19
REMARK    7  A    between atoms: C_19  and  N_20
REMARK                            x       y       z     vdW  Elec       q    Type
REMARK                         _______ _______ _______ _____ _____    ______ ____
ROOT
ATOM      1  N   UNL     1      -0.485   2.292   1.379  0.00  0.00    -0.186 NA
ATOM      2  H   UNL     1       0.027   2.658   0.477  0.00  0.00    +0.149 HD
ENDROOT
BRANCH   1   3
ATOM      3  C   UNL     1      -1.942   2.135   1.381  0.00  0.00    +0.025 C 
ATOM      4  C   UNL     1      -2.509   2.619   0.045  0.00  0.00    +0.022 C 
ATOM      5  C   UNL     1      -2.155   4.095  -0.155  0.00  0.00    +0.002 C 
ATOM      6  C   UNL     1      -2.756   4.921   0.984  0.00  0.00    +0.000 C 
ATOM      7  C   UNL     1      -2.189   4.437   2.320  0.00  0.00    +0.002 C 
ATOM      8  C   UNL     1      -2.542   2.962   2.520  0.00  0.00    +0.022 C 
BRANCH   3   9
ATOM      9  C   UNL     1      -2.295   0.660   1.581  0.00  0.00    -0.062 C 
BRANCH   9  10
ATOM     10  N   UNL     1      -1.605  -0.150   0.569  0.00  0.00    +0.379 N 
ATOM     11  H   UNL     1      -1.859  -1.211   0.712  0.00  0.00    -0.090 HD
ATOM     12  H   UNL     1      -0.517  -0.017   0.671  0.00  0.00    -0.090 HD
ATOM     13  H   UNL     1      -1.920   0.170  -0.435  0.00  0.00    -0.090 HD
ENDBRANCH   9  10
ENDBRANCH   3   9
ENDBRANCH   1   3
BRANCH   1  14
ATOM     14  S   UNL     1       0.414   1.693   2.634  0.00  0.00    +0.062 S 
ATOM     15  O   UNL     1       1.770   2.007   2.348  0.00  0.00    -0.153 OA
ATOM     16  O   UNL     1      -0.030   0.361   2.852  0.00  0.00    -0.153 OA
BRANCH  14  19
ATOM     17  C   UNL     1      -1.501   0.841   5.163  0.00  0.00    +0.067 C 
ATOM     18  C   UNL     1      -0.823   2.185   5.077  0.00  0.00    +0.060 A 
ATOM     19  C   UNL     1      -0.023   2.611   4.073  0.00  0.00    +0.148 A 
ATOM     20  C   UNL     1       0.402   3.908   4.382  0.00  0.00    +0.086 A 
ATOM     21  N   UNL     1      -0.132   4.251   5.526  0.00  0.00    -0.177 NA
ATOM     22  N   UNL     1      -0.907   3.178   5.986  0.00  0.00    -0.280 N 
ATOM     23  H   UNL     1      -1.514   3.044   6.894  0.00  0.00    +0.189 HD
ATOM     24  C   UNL     1       1.314   4.763   3.541  0.00  0.00    +0.069 C 
ENDBRANCH  14  19
ENDBRANCH   1  14
TORSDOF 5
