REMARK  Name = ZINC67391261
REMARK  6 active torsions:
REMARK  status: ('A' for Active; 'I' for Inactive)
REMARK    1  A    between atoms: C_4  and  C_7
REMARK    2  A    between atoms: C_7  and  C_8
REMARK    3  A    between atoms: N_10  and  N_11
REMARK    4  A    between atoms: N_14  and  C_15
REMARK    5  A    between atoms: C_15  and  C_16
REMARK    6  A    between atoms: C_16  and  N_21
REMARK                            x       y       z     vdW  Elec       q    Type
REMARK                         _______ _______ _______ _____ _____    ______ ____
ROOT
ATOM      1  N   UNL     1       3.616  -4.002   3.426  0.00  0.00    -0.218 N 
ATOM      2  C   UNL     1       4.310  -4.681   4.361  0.00  0.00    +0.316 C 
ATOM      3  O   UNL     1       4.464  -5.881   4.251  0.00  0.00    -0.251 OA
ATOM      4  N   UNL     1       4.834  -4.028   5.418  0.00  0.00    -0.300 N 
ATOM      5  H   UNL     1       3.239  -4.471   2.666  0.00  0.00    +0.174 HD
ATOM      6  H   UNL     1       4.711  -3.070   5.505  0.00  0.00    +0.150 HD
ENDROOT
BRANCH   1   9
ATOM      7  C   UNL     1       2.744  -1.939   2.619  0.00  0.00    +0.229 C 
ATOM      8  O   UNL     1       2.273  -2.526   1.668  0.00  0.00    -0.274 OA
ATOM      9  N   UNL     1       3.438  -2.618   3.553  0.00  0.00    -0.233 N 
ATOM     10  H   UNL     1       3.816  -2.148   4.314  0.00  0.00    +0.173 HD
BRANCH   7  11
ATOM     11  C   UNL     1       2.554  -0.450   2.755  0.00  0.00    +0.101 C 
BRANCH  11  15
ATOM     12  C   UNL     1      -0.578   1.521   0.510  0.00  0.00    +0.000 C 
ATOM     13  C   UNL     1       0.831   2.116   0.458  0.00  0.00    +0.000 C 
ATOM     14  C   UNL     1       1.648   1.596   1.643  0.00  0.00    +0.004 C 
ATOM     15  C   UNL     1       1.736   0.070   1.571  0.00  0.00    -0.002 C 
ATOM     16  C   UNL     1       0.328  -0.525   1.623  0.00  0.00    +0.004 C 
ATOM     17  C   UNL     1      -0.490  -0.005   0.439  0.00  0.00    +0.000 C 
ENDBRANCH  11  15
ENDBRANCH   7  11
ENDBRANCH   1   9
BRANCH   4  18
ATOM     18  C   UNL     1       5.589  -4.766   6.434  0.00  0.00    +0.094 C 
BRANCH  18  19
ATOM     19  C   UNL     1       6.174  -3.782   7.449  0.00  0.00    -0.050 C 
ATOM     20  C   UNL     1       7.148  -2.814   6.747  0.00  0.00    -0.010 C 
ATOM     21  C   UNL     1       8.283  -2.603   7.779  0.00  0.00    -0.001 C 
ATOM     22  C   UNL     1       8.438  -4.009   8.409  0.00  0.00    -0.001 C 
ATOM     23  C   UNL     1       6.994  -4.542   8.506  0.00  0.00    -0.010 C 
BRANCH  19  24
ATOM     24  N   UNL     1       5.093  -3.027   8.097  0.00  0.00    +0.386 N 
ATOM     25  C   UNL     1       5.677  -1.972   8.928  0.00  0.00    -0.067 C 
ATOM     26  C   UNL     1       4.597  -0.953   9.311  0.00  0.00    +0.050 C 
ATOM     27  S   UNL     1       3.326  -1.810  10.293  0.00  0.00    -0.164 S 
ATOM     28  C   UNL     1       2.955  -3.272   9.276  0.00  0.00    +0.050 C 
ATOM     29  C   UNL     1       4.280  -3.945   8.899  0.00  0.00    -0.067 C 
ATOM     30  H   UNL     1       4.513  -2.605   7.388  0.00  0.00    -0.081 HD
ENDBRANCH  19  24
ENDBRANCH  18  19
ENDBRANCH   4  18
TORSDOF 6
