REMARK  Name = ZINC39326969
REMARK  11 active torsions:
REMARK  status: ('A' for Active; 'I' for Inactive)
REMARK    1  A    between atoms: C_1  and  C_2
REMARK    2  A    between atoms: C_2  and  O_3
REMARK    3  A    between atoms: O_3  and  C_4
REMARK    4  A    between atoms: C_4  and  C_6
REMARK    5  A    between atoms: C_7  and  C_32
REMARK    6  A    between atoms: C_9  and  S_21
REMARK    7  A    between atoms: C_10  and  C_19
REMARK    8  A    between atoms: C_11  and  C_13
REMARK    9  A    between atoms: S_21  and  C_22
REMARK   10  A    between atoms: C_22  and  C_23
REMARK   11  A    between atoms: C_28  and  C_31
REMARK                            x       y       z     vdW  Elec       q    Type
REMARK                         _______ _______ _______ _____ _____    ______ ____
ROOT
ATOM      1  C   UNL     1      -2.797  -2.420   0.179  0.00  0.00    +0.066 C 
ATOM      2  C   UNL     1      -2.936  -3.729  -0.087  0.00  0.00    +0.016 C 
ATOM      3  N   UNL     1      -4.174  -4.286  -0.256  0.00  0.00    -0.312 N 
ATOM      4  C   UNL     1      -5.263  -3.485  -0.518  0.00  0.00    +0.080 C 
ATOM      5  C   UNL     1      -5.215  -2.150  -0.265  0.00  0.00    +0.069 C 
ATOM      6  C   UNL     1      -3.985  -1.511   0.318  0.00  0.00    +0.102 C 
ATOM      7  C   UNL     1      -1.710  -4.598  -0.201  0.00  0.00    +0.061 C 
ATOM      8  H   UNL     1      -4.284  -5.248  -0.192  0.00  0.00    +0.152 HD
ENDROOT
BRANCH   6   9
ATOM      9  C   UNL     1      -4.217  -1.218   1.778  0.00  0.00    -0.017 A 
ATOM     10  C   UNL     1      -4.176   0.087   2.247  0.00  0.00    +0.007 A 
ATOM     11  C   UNL     1      -4.396   0.309   3.597  0.00  0.00    +0.020 A 
ATOM     12  C   UNL     1      -4.646  -0.769   4.426  0.00  0.00    +0.111 A 
ATOM     13  N   UNL     1      -4.676  -1.996   3.945  0.00  0.00    -0.263 NA
ATOM     14  C   UNL     1      -4.478  -2.244   2.665  0.00  0.00    +0.115 A 
ENDBRANCH   6   9
BRANCH   1  15
ATOM     15  C   UNL     1      -1.498  -1.884   0.339  0.00  0.00    +0.338 C 
ATOM     16  O   UNL     1      -1.012  -1.196  -0.539  0.00  0.00    -0.245 OA
BRANCH  15  17
ATOM     17  O   UNL     1      -0.798  -2.136   1.465  0.00  0.00    -0.462 OA
BRANCH  17  19
ATOM     18  C   UNL     1       1.142  -1.956   2.894  0.00  0.00    +0.048 C 
ATOM     19  C   UNL     1       0.508  -1.563   1.558  0.00  0.00    +0.229 C 
ENDBRANCH  17  19
ENDBRANCH  15  17
ENDBRANCH   1  15
BRANCH   5  20
ATOM     20  C   UNL     1      -6.359  -1.339  -0.555  0.00  0.00    +0.098 C 
ATOM     21  N   UNL     1      -7.266  -0.695  -0.785  0.00  0.00    -0.191 NA
ENDBRANCH   5  20
BRANCH   4  22
ATOM     22  S   UNL     1      -6.730  -4.196  -1.186  0.00  0.00    -0.100 S 
BRANCH  22  23
ATOM     23  C   UNL     1      -6.330  -5.958  -1.348  0.00  0.00    +0.171 C 
BRANCH  23  24
ATOM     24  C   UNL     1      -7.516  -6.693  -1.917  0.00  0.00    +0.229 C 
ATOM     25  O   UNL     1      -8.532  -6.088  -2.186  0.00  0.00    -0.275 OA
ATOM     26  N   UNL     1      -7.449  -8.023  -2.126  0.00  0.00    -0.267 N 
ATOM     27  C   UNL     1      -8.547  -8.703  -2.652  0.00  0.00    +0.168 A 
ATOM     28  C   UNL     1      -9.786  -8.127  -3.015  0.00  0.00    +0.091 A 
ATOM     29  C   UNL     1     -10.581  -9.107  -3.479  0.00  0.00    +0.136 A 
ATOM     30  O   UNL     1      -9.899 -10.262  -3.424  0.00  0.00    -0.358 OA
ATOM     31  N   UNL     1      -8.611  -9.985  -2.902  0.00  0.00    -0.063 NA
ATOM     32  C   UNL     1     -11.993  -8.939  -3.977  0.00  0.00    +0.089 C 
ATOM     33  H   UNL     1      -6.636  -8.507  -1.911  0.00  0.00    +0.156 HD
ENDBRANCH  23  24
ENDBRANCH  22  23
ENDBRANCH   4  22
TORSDOF 8
