REMARK  Name = ZINC67426391
REMARK  8 active torsions:
REMARK  status: ('A' for Active; 'I' for Inactive)
REMARK    1  A    between atoms: C_1  and  C_2
REMARK    2  A    between atoms: C_2  and  C_4
REMARK    3  A    between atoms: C_2  and  N_14
REMARK    4  A    between atoms: C_4  and  O_5
REMARK    5  A    between atoms: O_5  and  C_6
REMARK    6  A    between atoms: C_15  and  C_17
REMARK    7  A    between atoms: N_19  and  C_20
REMARK    8  A    between atoms: C_21  and  C_25
REMARK                            x       y       z     vdW  Elec       q    Type
REMARK                         _______ _______ _______ _____ _____    ______ ____
ROOT
ATOM      1  N   UNL     1      -1.372  -0.511   0.012  0.00  0.00    -0.302 N 
ATOM      2  C   UNL     1      -2.051  -0.643  -1.145  0.00  0.00    +0.300 C 
ATOM      3  O   UNL     1      -1.523  -0.341  -2.195  0.00  0.00    -0.265 OA
ATOM      4  H   UNL     1      -1.794  -0.752   0.852  0.00  0.00    +0.150 HD
ENDROOT
BRANCH   2   5
ATOM      5  C   UNL     1      -3.451  -1.159  -1.134  0.00  0.00    +0.304 C 
ATOM      6  O   UNL     1      -3.979  -1.461  -0.083  0.00  0.00    -0.265 OA
ATOM      7  N   UNL     1      -4.130  -1.291  -2.291  0.00  0.00    -0.272 N 
ATOM      8  H   UNL     1      -3.708  -1.050  -3.131  0.00  0.00    +0.156 HD
BRANCH   7   9
ATOM      9  C   UNL     1      -5.428  -1.770  -2.281  0.00  0.00    +0.084 A 
ATOM     10  C   UNL     1      -6.271  -1.975  -3.365  0.00  0.00    +0.065 A 
ATOM     11  C   UNL     1      -7.588  -2.489  -3.072  0.00  0.00    +0.022 A 
ATOM     12  C   UNL     1      -7.854  -2.713  -1.771  0.00  0.00    +0.048 A 
ATOM     13  S   UNL     1      -6.343  -2.243  -0.957  0.00  0.00    -0.081 S 
BRANCH  10  14
ATOM     14  C   UNL     1      -5.844  -1.685  -4.739  0.00  0.00    +0.244 C 
ATOM     15  O   UNL     1      -4.727  -1.253  -4.950  0.00  0.00    -0.270 OA
ATOM     16  N   UNL     1      -6.691  -1.897  -5.766  0.00  0.00    -0.325 N 
ATOM     17  H   UNL     1      -7.581  -2.242  -5.597  0.00  0.00    +0.145 HD
ATOM     18  H   UNL     1      -6.409  -1.706  -6.674  0.00  0.00    +0.145 HD
ENDBRANCH  10  14
ENDBRANCH   7   9
ENDBRANCH   2   5
BRANCH   1  20
ATOM     19  C   UNL     1      -0.019   1.526   0.010  0.00  0.00    +0.031 C 
ATOM     20  C   UNL     1       0.002  -0.004   0.002  0.00  0.00    +0.108 C 
BRANCH  20  21
ATOM     21  C   UNL     1       0.742  -0.511   1.242  0.00  0.00    +0.251 C 
BRANCH  21  22
ATOM     22  O   UNL     1       0.143   0.044   2.414  0.00  0.00    -0.487 OA
BRANCH  22  23
ATOM     23  C   UNL     1       0.685  -0.308   3.611  0.00  0.00    +0.156 A 
ATOM     24  C   UNL     1       1.774  -1.165   3.653  0.00  0.00    +0.051 A 
ATOM     25  C   UNL     1       2.325  -1.522   4.869  0.00  0.00    +0.042 A 
ATOM     26  C   UNL     1       1.790  -1.026   6.046  0.00  0.00    +0.126 A 
ATOM     27  C   UNL     1       0.702  -0.170   6.006  0.00  0.00    +0.080 A 
ATOM     28  C   UNL     1       0.153   0.195   4.790  0.00  0.00    +0.168 A 
ATOM     29  F   UNL     1      -0.905   1.035   4.751  0.00  0.00    -0.202 F 
ATOM     30  F   UNL     1       2.329  -1.377   7.234  0.00  0.00    -0.205 F 
ENDBRANCH  22  23
ENDBRANCH  21  22
ENDBRANCH  20  21
ENDBRANCH   1  20
TORSDOF 7
