REMARK  Name = ZINC13244606
REMARK  7 active torsions:
REMARK  status: ('A' for Active; 'I' for Inactive)
REMARK    1  A    between atoms: C_1  and  C_2
REMARK    2  A    between atoms: C_2  and  N_3
REMARK    3  A    between atoms: C_17  and  S_18
REMARK    4  A    between atoms: S_18  and  C_19
REMARK    5  A    between atoms: C_19  and  C_20
REMARK    6  A    between atoms: N_22  and  C_23
REMARK    7  A    between atoms: C_28  and  C_29
REMARK                            x       y       z     vdW  Elec       q    Type
REMARK                         _______ _______ _______ _____ _____    ______ ____
ROOT
ATOM      1  N   UNL     1       3.539   3.503  -0.077  0.00  0.00    -0.288 N 
ATOM      2  C   UNL     1       3.663   2.157  -0.104  0.00  0.00    +0.262 A 
ATOM      3  O   UNL     1       4.756   1.623  -0.122  0.00  0.00    -0.267 OA
ATOM      4  C   UNL     1       2.422   1.361  -0.112  0.00  0.00    +0.066 A 
ATOM      5  C   UNL     1       2.447  -0.020  -0.139  0.00  0.00    +0.024 A 
ATOM      6  C   UNL     1       1.240  -0.729  -0.145  0.00  0.00    -0.017 A 
ATOM      7  C   UNL     1       1.222  -2.137  -0.173  0.00  0.00    +0.008 A 
ATOM      8  C   UNL     1       0.031  -2.792  -0.178  0.00  0.00    +0.001 A 
ATOM      9  C   UNL     1      -1.181  -2.106  -0.156  0.00  0.00    +0.001 A 
ATOM     10  C   UNL     1      -1.232  -0.748  -0.129  0.00  0.00    +0.008 A 
ATOM     11  C   UNL     1      -0.034  -0.007  -0.122  0.00  0.00    -0.016 A 
ATOM     12  C   UNL     1      -0.048   1.392  -0.095  0.00  0.00    +0.037 A 
ATOM     13  C   UNL     1       1.150   2.088  -0.089  0.00  0.00    +0.080 A 
ATOM     14  N   UNL     1       1.180   3.446  -0.063  0.00  0.00    -0.223 NA
ATOM     15  C   UNL     1       2.312   4.102  -0.057  0.00  0.00    +0.173 A 
ENDROOT
BRANCH   1  17
ATOM     16  C   UNL     1       5.154   4.654  -1.508  0.00  0.00    +0.027 C 
ATOM     17  C   UNL     1       4.745   4.336  -0.069  0.00  0.00    +0.124 C 
ENDBRANCH   1  17
BRANCH  15  18
ATOM     18  S   UNL     1       2.249   5.862  -0.021  0.00  0.00    -0.078 S 
BRANCH  18  19
ATOM     19  C   UNL     1       0.457   6.112  -0.005  0.00  0.00    +0.173 C 
BRANCH  19  20
ATOM     20  C   UNL     1       0.156   7.589   0.027  0.00  0.00    +0.228 C 
ATOM     21  O   UNL     1       1.064   8.393   0.037  0.00  0.00    -0.275 OA
ATOM     22  N   UNL     1      -1.122   8.016   0.043  0.00  0.00    -0.284 N 
ATOM     23  H   UNL     1      -1.848   7.377  -0.029  0.00  0.00    +0.155 HD
BRANCH  22  24
ATOM     24  C   UNL     1      -1.401   9.375   0.166  0.00  0.00    +0.050 A 
ATOM     25  C   UNL     1      -0.568  10.313  -0.427  0.00  0.00    +0.062 A 
ATOM     26  C   UNL     1      -0.850  11.662  -0.308  0.00  0.00    +0.125 A 
ATOM     27  C   UNL     1      -1.959  12.087   0.412  0.00  0.00    +0.039 A 
ATOM     28  C   UNL     1      -2.792  11.169   1.010  0.00  0.00    +0.020 A 
ATOM     29  C   UNL     1      -2.523   9.802   0.894  0.00  0.00    +0.084 A 
ATOM     30  F   UNL     1      -0.039  12.571  -0.891  0.00  0.00    -0.205 F 
BRANCH  29  31
ATOM     31  C   UNL     1      -3.411   8.816   1.532  0.00  0.00    +0.388 C 
ATOM     32  O   UNL     1      -3.122   7.635   1.512  0.00  0.00    -0.241 OA
ATOM     33  O   UNL     1      -4.545   9.222   2.137  0.00  0.00    -0.241 OA
ENDBRANCH  29  31
ENDBRANCH  22  24
ENDBRANCH  19  20
ENDBRANCH  18  19
ENDBRANCH  15  18
TORSDOF 6
