REMARK  Name = ZINC61811990
REMARK  4 active torsions:
REMARK  status: ('A' for Active; 'I' for Inactive)
REMARK    1  A    between atoms: C_3  and  N_9
REMARK    2  A    between atoms: N_9  and  C_10
REMARK    3  A    between atoms: C_14  and  C_16
REMARK    4  A    between atoms: C_16  and  N_18
REMARK                            x       y       z     vdW  Elec       q    Type
REMARK                         _______ _______ _______ _____ _____    ______ ____
ROOT
ATOM      1  C   UNL     1       3.656   3.518  -0.066  0.00  0.00    +0.035 A 
ATOM      2  C   UNL     1       2.500   4.296  -0.020  0.00  0.00    +0.041 A 
ATOM      3  C   UNL     1       2.609   5.673  -0.065  0.00  0.00    +0.085 A 
ATOM      4  N   UNL     1       3.786   6.257  -0.151  0.00  0.00    -0.359 N 
ATOM      5  C   UNL     1       4.915   5.556  -0.198  0.00  0.00    +0.069 A 
ATOM      6  C   UNL     1       4.888   4.166  -0.151  0.00  0.00    +0.051 A 
ATOM      7  H   UNL     1       3.831   7.226  -0.181  0.00  0.00    +0.165 HD
ENDROOT
BRANCH   1   8
ATOM      8  N   UNL     1       3.583   2.128  -0.021  0.00  0.00    -0.312 N 
ATOM      9  H   UNL     1       4.214   1.626   0.518  0.00  0.00    +0.152 HD
BRANCH   8  12
ATOM     10  C   UNL     1       0.828   1.487  -2.370  0.00  0.00    +0.017 A 
ATOM     11  C   UNL     1       1.798   2.154  -1.646  0.00  0.00    +0.027 A 
ATOM     12  C   UNL     1       2.600   1.455  -0.755  0.00  0.00    +0.067 A 
ATOM     13  C   UNL     1       2.424   0.085  -0.592  0.00  0.00    +0.145 A 
ATOM     14  C   UNL     1       1.452  -0.576  -1.319  0.00  0.00    +0.055 A 
ATOM     15  C   UNL     1       0.654   0.124  -2.207  0.00  0.00    +0.021 A 
ATOM     16 BR   UNL     1      -0.676  -0.783  -3.199  0.00  0.00    -0.050 Br
ATOM     17  F   UNL     1       3.203  -0.599   0.275  0.00  0.00    -0.204 F 
ENDBRANCH   8  12
ENDBRANCH   1   8
BRANCH   5  18
ATOM     18  C   UNL     1       6.211   6.261  -0.295  0.00  0.00    +0.093 C 
ATOM     19  S   UNL     1       7.592   5.626   0.494  0.00  0.00    -0.034 S 
BRANCH  18  20
ATOM     20  N   UNL     1       6.306   7.403  -1.004  0.00  0.00    -0.351 N 
ATOM     21  H   UNL     1       5.524   7.763  -1.451  0.00  0.00    +0.143 HD
ATOM     22  H   UNL     1       7.157   7.865  -1.068  0.00  0.00    +0.143 HD
ENDBRANCH  18  20
ENDBRANCH   5  18
TORSDOF 4
