REMARK  Name = ZINC63690790
REMARK  6 active torsions:
REMARK  status: ('A' for Active; 'I' for Inactive)
REMARK    1  A    between atoms: C_7  and  C_10
REMARK    2  A    between atoms: C_10  and  C_11
REMARK    3  A    between atoms: C_11  and  N_12
REMARK    4  A    between atoms: C_13  and  C_15
REMARK    5  A    between atoms: C_22  and  N_25
REMARK    6  A    between atoms: C_26  and  C_28
REMARK                            x       y       z     vdW  Elec       q    Type
REMARK                         _______ _______ _______ _____ _____    ______ ____
ROOT
ATOM      1  C   UNL     1      -1.694  -6.485  -2.622  0.00  0.00    +0.032 C 
ATOM      2  H   UNL     1      -1.338  -6.917  -5.650  0.00  0.00    +0.148 HD
ATOM      3  C   UNL     1      -2.303  -7.096  -1.381  0.00  0.00    +0.043 C 
ATOM      4  C   UNL     1      -3.477  -7.960  -1.908  0.00  0.00    +0.025 C 
ATOM      5  C   UNL     1      -2.947  -8.343  -3.294  0.00  0.00    +0.094 C 
ATOM      6  C   UNL     1      -2.113  -7.136  -3.731  0.00  0.00    +0.027 C 
ATOM      7  N   UNL     1      -2.131  -6.995  -5.097  0.00  0.00    -0.320 N 
ATOM      8  C   UNL     1      -3.527  -6.977  -5.620  0.00  0.00    +0.220 C 
ATOM      9  S   UNL     1      -4.280  -8.286  -4.558  0.00  0.00    -0.110 S 
ENDROOT
BRANCH   1  11
ATOM     10  N   UNL     1      -0.458  -4.798  -1.460  0.00  0.00    -0.311 N 
ATOM     11  C   UNL     1      -0.811  -5.380  -2.623  0.00  0.00    +0.242 C 
ATOM     12  O   UNL     1      -0.369  -4.955  -3.675  0.00  0.00    -0.270 OA
ATOM     13  H   UNL     1      -0.810  -5.136  -0.622  0.00  0.00    +0.149 HD
BRANCH  10  14
ATOM     14  C   UNL     1       0.457  -3.653  -1.462  0.00  0.00    +0.109 C 
BRANCH  14  15
ATOM     15  C   UNL     1       0.691  -3.186  -0.024  0.00  0.00    +0.052 C 
BRANCH  15  22
ATOM     16  C   UNL     1      -0.016   1.348   0.009  0.00  0.00    +0.001 A 
ATOM     17  C   UNL     1       1.166   2.101   0.002  0.00  0.00    +0.002 A 
ATOM     18  C   UNL     1       2.391   1.535  -0.013  0.00  0.00    +0.026 A 
ATOM     19  C   UNL     1       2.529   0.120  -0.022  0.00  0.00    +0.043 A 
ATOM     20  N   UNL     1       3.587  -0.654  -0.037  0.00  0.00    -0.380 N 
ATOM     21  C   UNL     1       3.143  -2.053  -0.041  0.00  0.00    +0.144 C 
ATOM     22  C   UNL     1       1.631  -2.008  -0.025  0.00  0.00    -0.040 C 
ATOM     23  C   UNL     1       1.295  -0.698  -0.014  0.00  0.00    -0.001 A 
ATOM     24  C   UNL     1       0.002  -0.004   0.002  0.00  0.00    +0.010 A 
ATOM     25  H   UNL     1       4.509  -0.353  -0.045  0.00  0.00    +0.160 HD
ENDBRANCH  15  22
ENDBRANCH  14  15
ENDBRANCH  10  14
ENDBRANCH   1  11
BRANCH   8  26
ATOM     26  N   UNL     1      -3.570  -7.354  -7.035  0.00  0.00    -0.284 N 
ATOM     27  C   UNL     1      -4.677  -7.109  -7.764  0.00  0.00    +0.246 C 
ATOM     28  O   UNL     1      -5.640  -6.577  -7.247  0.00  0.00    -0.270 OA
ATOM     29  H   UNL     1      -2.802  -7.779  -7.447  0.00  0.00    +0.152 HD
BRANCH  27  30
ATOM     30  C   UNL     1      -4.721  -7.489  -9.191  0.00  0.00    +0.037 A 
ATOM     31  C   UNL     1      -3.618  -8.107  -9.785  0.00  0.00    +0.016 A 
ATOM     32  C   UNL     1      -3.664  -8.459 -11.117  0.00  0.00    +0.039 A 
ATOM     33  C   UNL     1      -4.802  -8.201 -11.866  0.00  0.00    +0.123 A 
ATOM     34  C   UNL     1      -5.899  -7.588 -11.281  0.00  0.00    +0.039 A 
ATOM     35  C   UNL     1      -5.866  -7.237  -9.948  0.00  0.00    +0.016 A 
ATOM     36  F   UNL     1      -4.841  -8.548 -13.171  0.00  0.00    -0.205 F 
ENDBRANCH  27  30
ENDBRANCH   8  26
TORSDOF 6
