REMARK  Name = ZINC06994366
REMARK  7 active torsions:
REMARK  status: ('A' for Active; 'I' for Inactive)
REMARK    1  A    between atoms: C_1  and  C_2
REMARK    2  A    between atoms: C_2  and  C_3
REMARK    3  A    between atoms: C_2  and  C_4
REMARK    4  A    between atoms: C_4  and  C_6
REMARK    5  A    between atoms: C_4  and  S_12
REMARK    6  A    between atoms: S_12  and  C_13
REMARK    7  A    between atoms: N_17  and  C_18
REMARK                            x       y       z     vdW  Elec       q    Type
REMARK                         _______ _______ _______ _____ _____    ______ ____
ROOT
ATOM      1  C   UNL     1       3.223   0.806   1.089  0.00  0.00    +0.198 A 
ATOM      2  N   UNL     1       4.413   0.411   0.706  0.00  0.00    -0.120 NA
ATOM      3  N   UNL     1       4.486   0.539  -0.687  0.00  0.00    -0.112 NA
ATOM      4  C   UNL     1       3.337   1.002  -1.113  0.00  0.00    +0.225 A 
ATOM      5  N   UNL     1       2.522   1.177  -0.027  0.00  0.00    -0.257 N 
ATOM      6  N   UNL     1       3.004   1.270  -2.434  0.00  0.00    -0.299 N 
ATOM      7  C   UNL     1       2.713   2.713  -2.628  0.00  0.00    +0.108 C 
ATOM      8  C   UNL     1       2.890   2.909  -4.155  0.00  0.00    +0.020 C 
ATOM      9  C   UNL     1       4.088   1.988  -4.485  0.00  0.00    +0.020 C 
ATOM     10  C   UNL     1       4.133   0.961  -3.339  0.00  0.00    +0.108 C 
ENDROOT
BRANCH   5  11
ATOM     11  C   UNL     1       1.204   1.657  -0.052  0.00  0.00    +0.070 A 
ATOM     12  C   UNL     1       0.144   0.771  -0.189  0.00  0.00    +0.028 A 
ATOM     13  C   UNL     1      -1.152   1.247  -0.219  0.00  0.00    +0.002 A 
ATOM     14  C   UNL     1      -1.396   2.603  -0.102  0.00  0.00    +0.002 A 
ATOM     15  C   UNL     1      -0.343   3.488   0.035  0.00  0.00    +0.022 A 
ATOM     16  C   UNL     1       0.957   3.019   0.060  0.00  0.00    +0.065 A 
ATOM     17 CL   UNL     1       2.280   4.131   0.231  0.00  0.00    -0.081 Cl
ENDBRANCH   5  11
BRANCH   1  18
ATOM     18  S   UNL     1       2.629   0.848   2.747  0.00  0.00    -0.073 S 
BRANCH  18  19
ATOM     19  C   UNL     1       3.968   0.095   3.712  0.00  0.00    +0.143 C 
BRANCH  19  20
ATOM     20  C   UNL     1       4.076  -1.367   3.366  0.00  0.00    +0.234 C 
ATOM     21  O   UNL     1       3.139  -1.939   2.851  0.00  0.00    -0.274 OA
ATOM     22  N   UNL     1       5.215  -2.039   3.628  0.00  0.00    -0.239 N 
ATOM     23  C   UNL     1       5.311  -3.348   3.318  0.00  0.00    +0.303 C 
ATOM     24  O   UNL     1       4.372  -3.921   2.802  0.00  0.00    -0.253 OA
ATOM     25  N   UNL     1       6.450  -4.020   3.581  0.00  0.00    -0.313 N 
ATOM     26  H   UNL     1       5.964  -1.582   4.040  0.00  0.00    +0.159 HD
ATOM     27  H   UNL     1       7.199  -3.562   3.993  0.00  0.00    +0.146 HD
ATOM     28  H   UNL     1       6.519  -4.961   3.358  0.00  0.00    +0.146 HD
ENDBRANCH  19  20
BRANCH  19  30
ATOM     29  C   UNL     1       4.793  -0.396   6.019  0.00  0.00    +0.009 C 
ATOM     30  C   UNL     1       3.667   0.245   5.205  0.00  0.00    +0.005 C 
ATOM     31  C   UNL     1       3.564   1.730   5.559  0.00  0.00    +0.009 C 
ENDBRANCH  19  30
ENDBRANCH  18  19
ENDBRANCH   1  18
TORSDOF 5
