REMARK  Name = ZINC67262615
REMARK  6 active torsions:
REMARK  status: ('A' for Active; 'I' for Inactive)
REMARK    1  A    between atoms: N_7  and  C_12
REMARK    2  A    between atoms: C_12  and  C_13
REMARK    3  A    between atoms: C_13  and  C_14
REMARK    4  A    between atoms: N_16  and  C_17
REMARK    5  A    between atoms: C_20  and  C_23
REMARK    6  A    between atoms: C_23  and  N_24
REMARK                            x       y       z     vdW  Elec       q    Type
REMARK                         _______ _______ _______ _____ _____    ______ ____
ROOT
ATOM      1  C   UNL     1      -1.221  -3.905  -2.200  0.00  0.00    +0.219 C 
ATOM      2  O   UNL     1      -1.982  -4.249  -1.320  0.00  0.00    -0.275 OA
ATOM      3  N   UNL     1      -1.474  -4.244  -3.480  0.00  0.00    -0.285 N 
ATOM      4  H   UNL     1      -0.903  -3.913  -4.191  0.00  0.00    +0.155 HD
ENDROOT
BRANCH   3   5
ATOM      5  C   UNL     1      -2.559  -5.073  -3.783  0.00  0.00    +0.033 A 
ATOM      6  C   UNL     1      -2.464  -5.994  -4.818  0.00  0.00    +0.023 A 
ATOM      7  C   UNL     1      -3.537  -6.811  -5.115  0.00  0.00    +0.007 A 
ATOM      8  C   UNL     1      -4.706  -6.713  -4.381  0.00  0.00    -0.030 A 
ATOM      9  C   UNL     1      -4.804  -5.797  -3.350  0.00  0.00    +0.007 A 
ATOM     10  C   UNL     1      -3.732  -4.982  -3.045  0.00  0.00    +0.023 A 
BRANCH   8  11
ATOM     11  C   UNL     1      -5.875  -7.607  -4.708  0.00  0.00    +0.141 C 
BRANCH  11  12
ATOM     12  N   UNL     1      -5.777  -8.843  -3.928  0.00  0.00    -0.295 N 
ATOM     13  C   UNL     1      -6.720  -9.797  -4.056  0.00  0.00    +0.297 C 
ATOM     14  O   UNL     1      -7.652  -9.632  -4.820  0.00  0.00    -0.253 OA
ATOM     15  N   UNL     1      -6.630 -10.935  -3.339  0.00  0.00    -0.313 N 
ATOM     16  H   UNL     1      -5.034  -8.975  -3.319  0.00  0.00    +0.151 HD
ATOM     17  H   UNL     1      -5.887 -11.066  -2.730  0.00  0.00    +0.146 HD
ATOM     18  H   UNL     1      -7.309 -11.621  -3.432  0.00  0.00    +0.146 HD
ENDBRANCH  11  12
ENDBRANCH   8  11
ENDBRANCH   3   5
BRANCH   1  19
ATOM     19  C   UNL     1       0.006  -3.098  -1.863  0.00  0.00    +0.115 C 
BRANCH  19  20
ATOM     20  C   UNL     1       0.056  -2.852  -0.353  0.00  0.00    +0.123 C 
BRANCH  20  27
ATOM     21  C   UNL     1      -0.045   1.380   0.019  0.00  0.00    +0.002 A 
ATOM     22  C   UNL     1       1.136   2.099   0.011  0.00  0.00    +0.004 A 
ATOM     23  C   UNL     1       2.353   1.442  -0.009  0.00  0.00    +0.047 A 
ATOM     24  C   UNL     1       2.389   0.058  -0.020  0.00  0.00    +0.142 A 
ATOM     25  C   UNL     1       1.198  -0.667  -0.012  0.00  0.00    +0.078 A 
ATOM     26  C   UNL     1      -0.017  -0.003   0.009  0.00  0.00    +0.027 A 
ATOM     27  N   UNL     1       1.249  -2.068  -0.025  0.00  0.00    -0.265 N 
ATOM     28  C   UNL     1       2.415  -2.684   0.269  0.00  0.00    +0.258 C 
ATOM     29  O   UNL     1       2.490  -3.894   0.233  0.00  0.00    -0.272 OA
ATOM     30  C   UNL     1       3.621  -1.861   0.642  0.00  0.00    +0.325 C 
ATOM     31  O   UNL     1       3.576  -0.605  -0.039  0.00  0.00    -0.481 OA
ENDBRANCH  20  27
ENDBRANCH  19  20
ENDBRANCH   1  19
TORSDOF 6
