REMARK  Name = ZINC66179265
REMARK  9 active torsions:
REMARK  status: ('A' for Active; 'I' for Inactive)
REMARK    1  A    between atoms: C_1  and  C_2
REMARK    2  A    between atoms: C_2  and  C_3
REMARK    3  A    between atoms: N_5  and  C_6
REMARK    4  A    between atoms: C_9  and  C_12
REMARK    5  A    between atoms: C_12  and  C_14
REMARK    6  A    between atoms: C_12  and  N_15
REMARK    7  A    between atoms: N_18  and  C_19
REMARK    8  A    between atoms: C_19  and  C_20
REMARK    9  A    between atoms: C_22  and  C_25
REMARK                            x       y       z     vdW  Elec       q    Type
REMARK                         _______ _______ _______ _____ _____    ______ ____
ROOT
ATOM      1  C   UNL     1      -7.027  -3.602  -0.316  0.00  0.00    +0.102 C 
ATOM      2  C   UNL     1      -7.529  -3.969   1.082  0.00  0.00    +0.033 C 
ENDROOT
BRANCH   1   6
ATOM      3  C   UNL     1      -2.969  -2.285  -0.072  0.00  0.00    +0.033 A 
ATOM      4  C   UNL     1      -3.998  -1.356  -0.159  0.00  0.00    +0.023 A 
ATOM      5  C   UNL     1      -5.308  -1.785  -0.237  0.00  0.00    +0.007 A 
ATOM      6  C   UNL     1      -5.596  -3.137  -0.230  0.00  0.00    -0.027 A 
ATOM      7  C   UNL     1      -4.574  -4.065  -0.144  0.00  0.00    +0.007 A 
ATOM      8  C   UNL     1      -3.261  -3.643  -0.071  0.00  0.00    +0.023 A 
BRANCH   3  11
ATOM      9  C   UNL     1      -0.664  -2.565  -0.591  0.00  0.00    +0.217 C 
ATOM     10  O   UNL     1      -0.924  -3.621  -1.126  0.00  0.00    -0.275 OA
ATOM     11  N   UNL     1      -1.640  -1.854   0.008  0.00  0.00    -0.286 N 
ATOM     12  H   UNL     1      -1.421  -1.043   0.494  0.00  0.00    +0.155 HD
BRANCH   9  14
ATOM     13  C   UNL     1       1.655  -3.037  -1.332  0.00  0.00    +0.013 C 
ATOM     14  C   UNL     1       0.751  -2.047  -0.594  0.00  0.00    +0.093 C 
ENDBRANCH   9  14
ENDBRANCH   3  11
ENDBRANCH   1   6
BRANCH   1  15
ATOM     15  N   UNL     1      -7.108  -4.776  -1.189  0.00  0.00    -0.293 N 
ATOM     16  C   UNL     1      -8.262  -5.067  -1.821  0.00  0.00    +0.300 C 
ATOM     17  O   UNL     1      -9.237  -4.356  -1.667  0.00  0.00    -0.253 OA
ATOM     18  N   UNL     1      -8.337  -6.148  -2.623  0.00  0.00    -0.291 N 
ATOM     19  H   UNL     1      -6.331  -5.343  -1.311  0.00  0.00    +0.151 HD
ATOM     20  H   UNL     1      -7.560  -6.715  -2.746  0.00  0.00    +0.151 HD
BRANCH  18  21
ATOM     21  C   UNL     1      -9.591  -6.465  -3.310  0.00  0.00    +0.204 C 
BRANCH  21  22
ATOM     22  C   UNL     1      -9.410  -7.711  -4.138  0.00  0.00    +0.245 A 
ATOM     23  N   UNL     1      -9.624  -8.933  -3.736  0.00  0.00    -0.195 NA
ATOM     24  C   UNL     1      -9.363  -9.794  -4.726  0.00  0.00    +0.169 A 
ATOM     25  N   UNL     1      -8.978  -9.126  -5.776  0.00  0.00    -0.062 NA
ATOM     26  O   UNL     1      -9.006  -7.753  -5.414  0.00  0.00    -0.336 OA
ATOM     27  C   UNL     1      -9.493 -11.293  -4.641  0.00  0.00    +0.091 C 
ENDBRANCH  21  22
ENDBRANCH  18  21
ENDBRANCH   1  15
TORSDOF 6
