REMARK  Name = ZINC20803863
REMARK  7 active torsions:
REMARK  status: ('A' for Active; 'I' for Inactive)
REMARK    1  A    between atoms: C_1  and  C_2
REMARK    2  A    between atoms: C_7  and  N_8
REMARK    3  A    between atoms: C_9  and  C_11
REMARK    4  A    between atoms: C_13  and  C_33
REMARK    5  A    between atoms: C_21  and  C_23
REMARK    6  A    between atoms: C_26  and  O_29
REMARK    7  A    between atoms: O_29  and  C_30
REMARK                            x       y       z     vdW  Elec       q    Type
REMARK                         _______ _______ _______ _____ _____    ______ ____
ROOT
ATOM      1  C   UNL     1       0.867   2.127  -0.648  0.00  0.00    +0.124 C 
ATOM      2  C   UNL     1       0.062   0.987  -1.280  0.00  0.00    +0.084 C 
ATOM      3  N   UNL     1      -1.231   0.877  -0.578  0.00  0.00    -0.310 N 
ATOM      4  C   UNL     1      -1.187   0.965   0.807  0.00  0.00    +0.214 A 
ATOM      5  N   UNL     1      -2.107   0.684   1.690  0.00  0.00    -0.202 NA
ATOM      6  C   UNL     1      -1.631   0.913   2.919  0.00  0.00    +0.247 A 
ATOM      7  N   UNL     1      -0.398   1.345   2.830  0.00  0.00    -0.156 NA
ATOM      8  N   UNL     1      -0.084   1.390   1.471  0.00  0.00    -0.225 N 
ATOM      9  C   UNL     1       1.160   1.802   0.822  0.00  0.00    +0.154 C 
ATOM     10  C   UNL     1       0.837  -0.326  -1.145  0.00  0.00    +0.028 C 
ATOM     11  H   UNL     1      -2.159   0.734  -1.152  0.00  0.00    +0.149 HD
ENDROOT
BRANCH   9  12
ATOM     12  C   UNL     1       1.711   3.024   1.510  0.00  0.00    -0.022 A 
ATOM     13  C   UNL     1       3.071   3.137   1.733  0.00  0.00    +0.009 A 
ATOM     14  C   UNL     1       3.579   4.259   2.358  0.00  0.00    +0.046 A 
ATOM     15  C   UNL     1       2.722   5.268   2.774  0.00  0.00    +0.127 A 
ATOM     16  C   UNL     1       1.357   5.150   2.554  0.00  0.00    +0.046 A 
ATOM     17  C   UNL     1       0.855   4.028   1.923  0.00  0.00    +0.009 A 
BRANCH  15  18
ATOM     18  O   UNL     1       3.219   6.370   3.394  0.00  0.00    -0.434 OA
BRANCH  18  19
ATOM     19  C   UNL     1       4.633   6.424   3.586  0.00  0.00    +0.541 C 
ATOM     20  F   UNL     1       5.040   5.338   4.369  0.00  0.00    -0.166 F 
ATOM     21  F   UNL     1       5.275   6.370   2.344  0.00  0.00    -0.166 F 
ENDBRANCH  18  19
ENDBRANCH  15  18
ENDBRANCH   9  12
BRANCH   1  23
ATOM     22  N   UNL     1       0.657   4.534  -1.177  0.00  0.00    -0.285 N 
ATOM     23  C   UNL     1       0.073   3.405  -0.729  0.00  0.00    +0.224 C 
ATOM     24  O   UNL     1      -1.092   3.418  -0.392  0.00  0.00    -0.275 OA
ATOM     25  H   UNL     1       1.689   4.506  -1.558  0.00  0.00    +0.155 HD
BRANCH  22  32
ATOM     26  C   UNL     1       2.128   6.946  -0.834  0.00  0.00    +0.045 C 
ATOM     27  C   UNL     1       0.630   6.942  -0.994  0.00  0.00    -0.029 A 
ATOM     28  C   UNL     1      -0.070   8.133  -0.982  0.00  0.00    +0.005 A 
ATOM     29  C   UNL     1      -1.445   8.131  -1.122  0.00  0.00    +0.000 A 
ATOM     30  C   UNL     1      -2.124   6.937  -1.281  0.00  0.00    +0.002 A 
ATOM     31  C   UNL     1      -1.431   5.743  -1.300  0.00  0.00    +0.023 A 
ATOM     32  C   UNL     1      -0.049   5.742  -1.159  0.00  0.00    +0.036 A 
ENDBRANCH  22  32
ENDBRANCH   1  23
TORSDOF 5
