REMARK  Name = ZINC49166236
REMARK  11 active torsions:
REMARK  status: ('A' for Active; 'I' for Inactive)
REMARK    1  A    between atoms: C_1  and  C_2
REMARK    2  A    between atoms: C_2  and  C_3
REMARK    3  A    between atoms: C_2  and  C_4
REMARK    4  A    between atoms: N_6  and  C_7
REMARK    5  A    between atoms: C_7  and  C_8
REMARK    6  A    between atoms: C_8  and  N_9
REMARK    7  A    between atoms: N_12  and  C_13
REMARK    8  A    between atoms: C_13  and  C_14
REMARK    9  A    between atoms: C_14  and  C_15
REMARK   10  A    between atoms: C_14  and  O_26
REMARK   11  A    between atoms: C_15  and  N_16
REMARK                            x       y       z     vdW  Elec       q    Type
REMARK                         _______ _______ _______ _____ _____    ______ ____
ROOT
ATOM      1  C   UNL     1      -8.876  -0.286  -4.166  0.00  0.00    +0.135 C 
ENDROOT
BRANCH   1   5
ATOM      2  N   UNL     1      -5.988  -0.148  -1.894  0.00  0.00    -0.298 N 
ATOM      3  C   UNL     1      -6.787   0.059  -2.960  0.00  0.00    +0.300 C 
ATOM      4  O   UNL     1      -6.407   0.760  -3.877  0.00  0.00    -0.253 OA
ATOM      5  N   UNL     1      -8.008  -0.511  -3.007  0.00  0.00    -0.297 N 
ATOM      6  H   UNL     1      -6.292  -0.707  -1.162  0.00  0.00    +0.150 HD
ATOM      7  H   UNL     1      -8.311  -1.070  -2.275  0.00  0.00    +0.150 HD
BRANCH   2   8
ATOM      8  C   UNL     1      -4.662   0.471  -1.842  0.00  0.00    +0.124 C 
BRANCH   8   9
ATOM      9  C   UNL     1      -3.966   0.079  -0.537  0.00  0.00    +0.123 C 
BRANCH   9  12
ATOM     10  C   UNL     1      -1.841   0.491   0.581  0.00  0.00    +0.216 C 
ATOM     11  O   UNL     1      -2.220  -0.208   1.496  0.00  0.00    -0.276 OA
ATOM     12  N   UNL     1      -2.640   0.698  -0.485  0.00  0.00    -0.314 N 
ATOM     13  H   UNL     1      -2.337   1.257  -1.217  0.00  0.00    +0.149 HD
BRANCH  10  15
ATOM     14  C   UNL     1      -0.621   2.650   0.571  0.00  0.00    +0.017 C 
ATOM     15  C   UNL     1      -0.476   1.128   0.634  0.00  0.00    +0.069 C 
ATOM     16  C   UNL     1       0.219   0.735   1.940  0.00  0.00    +0.017 C 
ENDBRANCH  10  15
ENDBRANCH   9  12
ENDBRANCH   8   9
ENDBRANCH   2   8
ENDBRANCH   1   5
BRANCH   1  17
ATOM     17  C   UNL     1     -10.193  -1.039  -3.970  0.00  0.00    +0.115 C 
BRANCH  17  18
ATOM     18  O   UNL     1     -10.897  -0.486  -2.856  0.00  0.00    -0.392 OA
ATOM     19  H   UNL     1     -11.117   0.450  -2.955  0.00  0.00    +0.210 HD
ENDBRANCH  17  18
BRANCH  17  20
ATOM     20  C   UNL     1     -11.049  -0.907  -5.231  0.00  0.00    -0.045 C 
BRANCH  20  21
ATOM     21  N   UNL     1     -12.313  -1.633  -5.044  0.00  0.00    +0.384 N 
ATOM     22  C   UNL     1     -12.042  -3.076  -4.950  0.00  0.00    -0.074 C 
ATOM     23  C   UNL     1     -13.306  -3.778  -4.454  0.00  0.00    +0.017 C 
ATOM     24  C   UNL     1     -14.486  -3.355  -5.291  0.00  0.00    -0.048 A 
ATOM     25  C   UNL     1     -15.644  -4.117  -5.242  0.00  0.00    +0.004 A 
ATOM     26  C   UNL     1     -16.746  -3.759  -5.992  0.00  0.00    +0.000 A 
ATOM     27  C   UNL     1     -16.694  -2.636  -6.797  0.00  0.00    +0.000 A 
ATOM     28  C   UNL     1     -15.542  -1.878  -6.848  0.00  0.00    +0.002 A 
ATOM     29  C   UNL     1     -14.433  -2.237  -6.096  0.00  0.00    -0.061 A 
ATOM     30  C   UNL     1     -13.194  -1.386  -6.188  0.00  0.00    -0.043 C 
ATOM     31  H   UNL     1     -12.761  -1.317  -4.197  0.00  0.00    -0.081 HD
ENDBRANCH  20  21
ENDBRANCH  17  20
ENDBRANCH   1  17
TORSDOF 9
