REMARK  Name = ZINC38577563
REMARK  8 active torsions:
REMARK  status: ('A' for Active; 'I' for Inactive)
REMARK    1  A    between atoms: C_1  and  C_2
REMARK    2  A    between atoms: C_2  and  O_3
REMARK    3  A    between atoms: O_3  and  C_4
REMARK    4  A    between atoms: C_4  and  C_6
REMARK    5  A    between atoms: C_8  and  N_17
REMARK    6  A    between atoms: C_11  and  C_16
REMARK    7  A    between atoms: C_18  and  C_20
REMARK    8  A    between atoms: C_20  and  N_21
REMARK                            x       y       z     vdW  Elec       q    Type
REMARK                         _______ _______ _______ _____ _____    ______ ____
ROOT
ATOM      1  C   UNL     1      -2.777  -2.437   0.054  0.00  0.00    +0.234 C 
ATOM      2  C   UNL     1      -3.369  -2.549   1.442  0.00  0.00    +0.053 C 
ATOM      3  C   UNL     1      -3.651  -3.892   1.623  0.00  0.00    +0.018 A 
ATOM      4  C   UNL     1      -4.210  -4.614   2.704  0.00  0.00    +0.015 A 
ATOM      5  C   UNL     1      -4.374  -5.956   2.603  0.00  0.00    -0.050 A 
ATOM      6  C   UNL     1      -4.005  -6.655   1.451  0.00  0.00    +0.005 A 
ATOM      7  C   UNL     1      -3.463  -6.030   0.377  0.00  0.00    +0.026 A 
ATOM      8  C   UNL     1      -3.260  -4.626   0.406  0.00  0.00    +0.045 A 
ATOM      9  N   UNL     1      -2.761  -3.798  -0.491  0.00  0.00    -0.367 N 
ATOM     10  C   UNL     1      -4.970  -6.713   3.762  0.00  0.00    +0.044 C 
ATOM     11  H   UNL     1      -2.437  -4.048  -1.370  0.00  0.00    +0.161 HD
ENDROOT
BRANCH   2  12
ATOM     12  N   UNL     1      -3.581  -1.538   2.330  0.00  0.00    -0.285 N 
ATOM     13  C   UNL     1      -3.413  -0.257   1.945  0.00  0.00    +0.234 C 
ATOM     14  O   UNL     1      -3.178   0.001   0.784  0.00  0.00    -0.274 OA
ATOM     15  H   UNL     1      -3.853  -1.740   3.239  0.00  0.00    +0.155 HD
BRANCH  13  16
ATOM     16  C   UNL     1      -3.519   0.854   2.958  0.00  0.00    +0.199 C 
BRANCH  16  17
ATOM     17  N   UNL     1      -3.299   2.142   2.295  0.00  0.00    -0.315 N 
ATOM     18  C   UNL     1      -3.348   3.316   3.029  0.00  0.00    +0.158 A 
ATOM     19  N   UNL     1      -3.571   3.467   4.317  0.00  0.00    -0.233 NA
ATOM     20  C   UNL     1      -3.585   4.667   4.871  0.00  0.00    +0.120 A 
ATOM     21  C   UNL     1      -3.361   5.724   4.055  0.00  0.00    +0.068 A 
ATOM     22  S   UNL     1      -3.129   4.896   2.491  0.00  0.00    -0.061 S 
ATOM     23  H   UNL     1      -3.119   2.172   1.342  0.00  0.00    +0.148 HD
ENDBRANCH  16  17
ENDBRANCH  13  16
ENDBRANCH   2  12
BRANCH   1  24
ATOM     24  C   UNL     1      -1.374  -1.892   0.131  0.00  0.00    +0.336 C 
ATOM     25  O   UNL     1      -0.434  -2.650   0.191  0.00  0.00    -0.248 OA
BRANCH  24  26
ATOM     26  O   UNL     1      -1.168  -0.566   0.133  0.00  0.00    -0.463 OA
BRANCH  26  28
ATOM     27  C   UNL     1       0.223   1.410   0.198  0.00  0.00    +0.048 C 
ATOM     28  C   UNL     1       0.188  -0.120   0.208  0.00  0.00    +0.229 C 
ENDBRANCH  26  28
ENDBRANCH  24  26
ENDBRANCH   1  24
TORSDOF 6
