REMARK  Name = ZINC41631431
REMARK  4 active torsions:
REMARK  status: ('A' for Active; 'I' for Inactive)
REMARK    1  A    between atoms: C_4  and  C_7
REMARK    2  A    between atoms: C_7  and  N_8
REMARK    3  A    between atoms: C_13  and  C_15
REMARK    4  A    between atoms: C_19  and  O_21
REMARK                            x       y       z     vdW  Elec       q    Type
REMARK                         _______ _______ _______ _____ _____    ______ ____
ROOT
ATOM      1  N   UNL     1       4.152  -0.952   1.338  0.00  0.00    -0.225 N 
ATOM      2  C   UNL     1       3.779  -2.091   1.952  0.00  0.00    +0.268 A 
ATOM      3  O   UNL     1       3.083  -2.906   1.367  0.00  0.00    -0.266 OA
ATOM      4  C   UNL     1       4.200  -2.337   3.278  0.00  0.00    +0.074 A 
ATOM      5  C   UNL     1       4.976  -1.395   3.886  0.00  0.00    +0.035 A 
ATOM      6  C   UNL     1       5.313  -0.232   3.155  0.00  0.00    +0.092 A 
ATOM      7  N   UNL     1       4.887  -0.078   1.923  0.00  0.00    -0.168 NA
ENDROOT
BRANCH   6   8
ATOM      8  C   UNL     1       6.156   0.816   3.782  0.00  0.00    +0.006 A 
ATOM      9  C   UNL     1       6.619   0.653   5.086  0.00  0.00    +0.013 A 
ATOM     10  C   UNL     1       7.403   1.629   5.667  0.00  0.00    +0.043 A 
ATOM     11  C   UNL     1       7.731   2.771   4.958  0.00  0.00    +0.165 A 
ATOM     12  C   UNL     1       7.272   2.941   3.657  0.00  0.00    +0.153 A 
ATOM     13  C   UNL     1       6.490   1.964   3.066  0.00  0.00    +0.058 A 
ATOM     14  F   UNL     1       8.498   3.724   5.532  0.00  0.00    -0.202 F 
BRANCH  12  15
ATOM     15  O   UNL     1       7.595   4.065   2.964  0.00  0.00    -0.504 OA
ATOM     16  H   UNL     1       8.414   3.991   2.455  0.00  0.00    +0.292 HD
ENDBRANCH  12  15
ENDBRANCH   6   8
BRANCH   1  17
ATOM     17  C   UNL     1       3.711  -0.707  -0.038  0.00  0.00    +0.182 C 
BRANCH  17  21
ATOM     18  C   UNL     1      -0.017   1.378   0.010  0.00  0.00    +0.000 A 
ATOM     19  C   UNL     1       1.171   2.086   0.002  0.00  0.00    +0.000 A 
ATOM     20  C   UNL     1       2.377   1.411  -0.013  0.00  0.00    +0.005 A 
ATOM     21  C   UNL     1       2.396   0.029  -0.020  0.00  0.00    -0.026 A 
ATOM     22  C   UNL     1       1.208  -0.679  -0.012  0.00  0.00    +0.005 A 
ATOM     23  C   UNL     1       0.002  -0.004   0.002  0.00  0.00    +0.000 A 
ENDBRANCH  17  21
ENDBRANCH   1  17
TORSDOF 4
