REMARK  Name = ZINC58858964
REMARK  11 active torsions:
REMARK  status: ('A' for Active; 'I' for Inactive)
REMARK    1  A    between atoms: C_1  and  C_2
REMARK    2  A    between atoms: C_2  and  C_3
REMARK    3  A    between atoms: C_7  and  C_24
REMARK    4  A    between atoms: C_8  and  N_9
REMARK    5  A    between atoms: N_12  and  C_13
REMARK    6  A    between atoms: C_13  and  C_14
REMARK    7  A    between atoms: C_14  and  C_16
REMARK    8  A    between atoms: C_14  and  N_21
REMARK    9  A    between atoms: N_21  and  C_22
REMARK   10  A    between atoms: N_21  and  C_23
REMARK   11  A    between atoms: C_24  and  C_25
REMARK                            x       y       z     vdW  Elec       q    Type
REMARK                         _______ _______ _______ _____ _____    ______ ____
ROOT
ATOM      1  N   UNL     1      -0.883  -1.925  -2.152  0.00  0.00    -0.269 N 
ATOM      2  C   UNL     1      -1.537  -2.384  -3.237  0.00  0.00    +0.304 C 
ATOM      3  O   UNL     1      -2.728  -2.175  -3.363  0.00  0.00    -0.253 OA
ATOM      4  N   UNL     1      -0.871  -3.075  -4.184  0.00  0.00    -0.300 N 
ATOM      5  H   UNL     1       0.075  -2.056  -2.072  0.00  0.00    +0.156 HD
ATOM      6  H   UNL     1       0.080  -3.242  -4.084  0.00  0.00    +0.150 HD
ENDROOT
BRANCH   1  12
ATOM      7  C   UNL     1      -1.079  -0.087  -0.598  0.00  0.00    -0.026 A 
ATOM      8  C   UNL     1      -1.777   0.570   0.397  0.00  0.00    +0.007 A 
ATOM      9  C   UNL     1      -2.977   0.058   0.856  0.00  0.00    +0.020 A 
ATOM     10  C   UNL     1      -3.482  -1.115   0.321  0.00  0.00    +0.046 A 
ATOM     11  C   UNL     1      -2.787  -1.776  -0.675  0.00  0.00    -0.008 A 
ATOM     12  C   UNL     1      -1.585  -1.261  -1.141  0.00  0.00    +0.042 A 
ATOM     13 CL   UNL     1      -4.987  -1.755   0.901  0.00  0.00    -0.083 Cl
BRANCH   7  15
ATOM     14  C   UNL     1      -0.025   1.329  -2.339  0.00  0.00    +0.009 C 
ATOM     15  C   UNL     1       0.228   0.472  -1.097  0.00  0.00    +0.033 C 
ENDBRANCH   7  15
BRANCH  11  16
ATOM     16  C   UNL     1      -3.337  -3.053  -1.257  0.00  0.00    +0.035 C 
ATOM     17  C   UNL     1      -4.717  -2.786  -1.859  0.00  0.00    +0.009 C 
ENDBRANCH  11  16
ENDBRANCH   1  12
BRANCH   4  18
ATOM     18  C   UNL     1      -1.582  -3.574  -5.364  0.00  0.00    +0.095 C 
BRANCH  18  19
ATOM     19  C   UNL     1      -0.580  -4.204  -6.334  0.00  0.00    -0.014 C 
BRANCH  19  20
ATOM     20  C   UNL     1       0.380  -3.149  -6.821  0.00  0.00    -0.022 A 
ATOM     21  C   UNL     1       1.645  -2.892  -6.410  0.00  0.00    +0.009 A 
ATOM     22  C   UNL     1       2.348  -1.862  -7.007  0.00  0.00    +0.008 A 
ATOM     23  C   UNL     1       1.750  -1.139  -7.985  0.00  0.00    +0.045 A 
ATOM     24  S   UNL     1       0.147  -1.919  -8.093  0.00  0.00    -0.103 S 
ENDBRANCH  19  20
BRANCH  19  25
ATOM     25  N   UNL     1      -1.302  -4.775  -7.479  0.00  0.00    +0.382 N 
ATOM     26  C   UNL     1      -0.343  -5.409  -8.395  0.00  0.00    -0.096 C 
ATOM     27  C   UNL     1      -2.260  -5.781  -7.001  0.00  0.00    -0.096 C 
ATOM     28  H   UNL     1      -1.797  -4.042  -7.965  0.00  0.00    -0.082 HD
ENDBRANCH  19  25
ENDBRANCH  18  19
ENDBRANCH   4  18
TORSDOF 7
