REMARK  Name = ZINC67267397
REMARK  5 active torsions:
REMARK  status: ('A' for Active; 'I' for Inactive)
REMARK    1  A    between atoms: C_1  and  C_2
REMARK    2  A    between atoms: N_7  and  C_9
REMARK    3  A    between atoms: C_9  and  C_10
REMARK    4  A    between atoms: C_10  and  N_11
REMARK    5  A    between atoms: C_12  and  C_14
REMARK                            x       y       z     vdW  Elec       q    Type
REMARK                         _______ _______ _______ _____ _____    ______ ____
ROOT
ATOM      1  N   UNL     1       1.963  -4.471   3.744  0.00  0.00    -0.317 N 
ATOM      2  C   UNL     1       2.002  -5.792   4.009  0.00  0.00    +0.216 C 
ATOM      3  O   UNL     1       1.504  -6.581   3.235  0.00  0.00    -0.276 OA
ATOM      4  H   UNL     1       2.361  -3.840   4.364  0.00  0.00    +0.149 HD
ENDROOT
BRANCH   2   5
ATOM      5  C   UNL     1       2.664  -6.288   5.269  0.00  0.00    +0.075 C 
ATOM      6  C   UNL     1       4.134  -5.865   5.273  0.00  0.00    +0.015 C 
ATOM      7  C   UNL     1       4.803  -6.360   6.558  0.00  0.00    +0.036 C 
ATOM      8  C   UNL     1       4.693  -7.879   6.637  0.00  0.00    +0.112 C 
ATOM      9  C   UNL     1       3.233  -8.317   6.612  0.00  0.00    +0.036 C 
ATOM     10  C   UNL     1       2.570  -7.814   5.327  0.00  0.00    +0.015 C 
ATOM     11  C   UNL     1       5.378  -8.394   7.882  0.00  0.00    +0.244 C 
ATOM     12  O   UNL     1       5.098  -8.137   9.033  0.00  0.00    -0.273 OA
ATOM     13  N   UNL     1       6.367  -9.200   7.442  0.00  0.00    -0.238 N 
ATOM     14  C   UNL     1       6.396  -9.260   6.105  0.00  0.00    +0.307 C 
ATOM     15  O   UNL     1       7.198  -9.922   5.476  0.00  0.00    -0.252 OA
ATOM     16  N   UNL     1       5.436  -8.506   5.536  0.00  0.00    -0.285 N 
ATOM     17  H   UNL     1       6.981  -9.675   8.023  0.00  0.00    +0.159 HD
ATOM     18  H   UNL     1       5.269  -8.398   4.587  0.00  0.00    +0.151 HD
ENDBRANCH   2   5
BRANCH   1  19
ATOM     19  C   UNL     1       1.320  -3.989   2.519  0.00  0.00    +0.085 C 
BRANCH  19  20
ATOM     20  C   UNL     1       1.413  -2.463   2.461  0.00  0.00    -0.060 C 
BRANCH  20  26
ATOM     21  C   UNL     1      -0.019   1.526   0.010  0.00  0.00    +0.005 C 
ATOM     22  C   UNL     1       0.002  -0.004   0.002  0.00  0.00    -0.031 C 
ATOM     23  C   UNL     1       0.721  -0.499  -1.257  0.00  0.00    -0.001 C 
ATOM     24  C   UNL     1       0.805  -2.027  -1.217  0.00  0.00    -0.018 C 
ATOM     25  C   UNL     1       1.518  -2.460   0.066  0.00  0.00    -0.079 C 
ATOM     26  N   UNL     1       0.768  -1.979   1.233  0.00  0.00    +0.381 N 
ATOM     27  C   UNL     1       0.744  -0.512   1.240  0.00  0.00    -0.076 C 
ATOM     28  H   UNL     1      -0.177  -2.330   1.192  0.00  0.00    -0.082 HD
ENDBRANCH  20  26
ENDBRANCH  19  20
ENDBRANCH   1  19
TORSDOF 4
