REMARK  Name = ZINC04751039
REMARK  10 active torsions:
REMARK  status: ('A' for Active; 'I' for Inactive)
REMARK    1  A    between atoms: C_1  and  C_2
REMARK    2  A    between atoms: C_7  and  N_8
REMARK    3  A    between atoms: C_9  and  C_11
REMARK    4  A    between atoms: C_11  and  C_12
REMARK    5  A    between atoms: C_12  and  C_13
REMARK    6  A    between atoms: N_15  and  N_16
REMARK    7  A    between atoms: C_17  and  C_18
REMARK    8  A    between atoms: C_17  and  C_19
REMARK    9  A    between atoms: C_22  and  O_26
REMARK   10  A    between atoms: C_24  and  O_25
REMARK                            x       y       z     vdW  Elec       q    Type
REMARK                         _______ _______ _______ _____ _____    ______ ____
ROOT
ATOM      1  C   UNL     1      -0.357  -0.199   7.342  0.00  0.00    +0.233 C 
ATOM      2  O   UNL     1      -0.374   1.015   7.346  0.00  0.00    -0.274 OA
ATOM      3  N   UNL     1      -0.439  -0.878   8.503  0.00  0.00    -0.207 N 
ATOM      4  H   UNL     1      -0.425  -1.848   8.499  0.00  0.00    +0.177 HD
ENDROOT
BRANCH   3   5
ATOM      5  N   UNL     1      -0.543  -0.183   9.715  0.00  0.00    -0.184 NA
ATOM      6  C   UNL     1      -0.621  -0.838  10.834  0.00  0.00    +0.067 C 
ATOM      7  C   UNL     1      -0.601  -2.345  10.828  0.00  0.00    +0.068 C 
BRANCH   6   8
ATOM      8  C   UNL     1      -0.731  -0.107  12.108  0.00  0.00    +0.039 A 
ATOM      9  C   UNL     1      -0.810  -0.809  13.314  0.00  0.00    +0.017 A 
ATOM     10  C   UNL     1      -0.911  -0.122  14.504  0.00  0.00    +0.046 A 
ATOM     11  C   UNL     1      -0.936   1.268  14.510  0.00  0.00    +0.120 A 
ATOM     12  C   UNL     1      -0.859   1.973  13.318  0.00  0.00    +0.091 A 
ATOM     13  C   UNL     1      -0.750   1.295  12.117  0.00  0.00    +0.129 A 
BRANCH  13  14
ATOM     14  O   UNL     1      -0.669   1.984  10.950  0.00  0.00    -0.506 OA
ATOM     15  H   UNL     1      -1.526   2.172  10.543  0.00  0.00    +0.292 HD
ENDBRANCH  13  14
BRANCH  11  16
ATOM     16  O   UNL     1      -1.037   1.938  15.687  0.00  0.00    -0.507 OA
ATOM     17  H   UNL     1      -0.186   2.147  16.095  0.00  0.00    +0.292 HD
ENDBRANCH  11  16
ENDBRANCH   6   8
ENDBRANCH   3   5
BRANCH   1  18
ATOM     18  C   UNL     1      -0.245  -0.946   6.038  0.00  0.00    +0.107 C 
BRANCH  18  19
ATOM     19  C   UNL     1      -0.169   0.054   4.882  0.00  0.00    +0.105 C 
BRANCH  19  21
ATOM     20  N   UNL     1       0.025  -0.014   2.417  0.00  0.00    -0.285 N 
ATOM     21  C   UNL     1      -0.057  -0.693   3.578  0.00  0.00    +0.218 C 
ATOM     22  O   UNL     1      -0.040  -1.906   3.574  0.00  0.00    -0.275 OA
ATOM     23  H   UNL     1       0.077   0.955   2.425  0.00  0.00    +0.155 HD
BRANCH  20  30
ATOM     24  C   UNL     1      -1.265   1.183   0.181  0.00  0.00    +0.046 C 
ATOM     25  C   UNL     1      -0.584  -0.158   0.084  0.00  0.00    -0.028 A 
ATOM     26  C   UNL     1      -0.569  -0.841  -1.116  0.00  0.00    +0.025 A 
ATOM     27  C   UNL     1       0.056  -2.072  -1.206  0.00  0.00    +0.041 A 
ATOM     28  C   UNL     1       0.668  -2.623  -0.093  0.00  0.00    +0.022 A 
ATOM     29  C   UNL     1       0.656  -1.944   1.109  0.00  0.00    +0.025 A 
ATOM     30  C   UNL     1       0.034  -0.706   1.201  0.00  0.00    +0.036 A 
ATOM     31 CL   UNL     1       0.072  -2.928  -2.716  0.00  0.00    -0.084 Cl
ENDBRANCH  20  30
ENDBRANCH  19  21
ENDBRANCH  18  19
ENDBRANCH   1  18
TORSDOF 8
