REMARK  Name = ZINC42650984
REMARK  8 active torsions:
REMARK  status: ('A' for Active; 'I' for Inactive)
REMARK    1  A    between atoms: C_1  and  C_2
REMARK    2  A    between atoms: C_2  and  C_3
REMARK    3  A    between atoms: C_5  and  C_8
REMARK    4  A    between atoms: C_8  and  C_10
REMARK    5  A    between atoms: C_8  and  S_11
REMARK    6  A    between atoms: S_11  and  C_12
REMARK    7  A    between atoms: C_15  and  C_18
REMARK    8  A    between atoms: N_16  and  N_17
REMARK                            x       y       z     vdW  Elec       q    Type
REMARK                         _______ _______ _______ _____ _____    ______ ____
ROOT
ATOM      1  C   UNL     1      -6.293  -3.612   2.429  0.00  0.00    +0.209 A 
ATOM      2  N   UNL     1      -6.533  -2.919   3.518  0.00  0.00    -0.121 NA
ATOM      3  N   UNL     1      -7.426  -3.514   4.226  0.00  0.00    -0.123 NA
ATOM      4  C   UNL     1      -7.806  -4.612   3.636  0.00  0.00    +0.255 A 
ATOM      5  N   UNL     1      -7.103  -4.711   2.468  0.00  0.00    -0.220 N 
ENDROOT
BRANCH   4   6
ATOM      6  C   UNL     1      -8.835  -5.588   4.145  0.00  0.00    +0.454 C 
ATOM      7  F   UNL     1      -9.577  -4.992   5.170  0.00  0.00    -0.163 F 
ATOM      8  F   UNL     1      -9.691  -5.950   3.099  0.00  0.00    -0.163 F 
ATOM      9  F   UNL     1      -8.192  -6.729   4.637  0.00  0.00    -0.163 F 
ENDBRANCH   4   6
BRANCH   5  10
ATOM     10  N   UNL     1      -7.190  -5.704   1.534  0.00  0.00    -0.295 N 
ATOM     11  H   UNL     1      -6.539  -6.448   1.737  0.00  0.00    +0.163 HD
ATOM     12  H   UNL     1      -8.133  -6.057   1.468  0.00  0.00    +0.163 HD
ENDBRANCH   5  10
BRANCH   1  13
ATOM     13  S   UNL     1      -5.149  -3.198   1.155  0.00  0.00    -0.072 S 
BRANCH  13  14
ATOM     14  C   UNL     1      -4.412  -1.639   1.717  0.00  0.00    +0.140 C 
ATOM     15  C   UNL     1      -5.486  -0.550   1.753  0.00  0.00    +0.029 C 
BRANCH  14  18
ATOM     16  C   UNL     1      -1.412  -0.526   0.013  0.00  0.00    +0.172 A 
ATOM     17  N   UNL     1      -2.133  -0.796   1.107  0.00  0.00    -0.195 NA
ATOM     18  C   UNL     1      -3.315  -1.230   0.768  0.00  0.00    +0.241 A 
ATOM     19  O   UNL     1      -3.386  -1.252  -0.569  0.00  0.00    -0.337 OA
ATOM     20  N   UNL     1      -2.132  -0.782  -1.041  0.00  0.00    -0.061 NA
BRANCH  16  22
ATOM     21  C   UNL     1      -0.019   1.526   0.010  0.00  0.00    +0.012 C 
ATOM     22  C   UNL     1       0.002  -0.004   0.002  0.00  0.00    +0.076 C 
ENDBRANCH  16  22
ENDBRANCH  14  18
ENDBRANCH  13  14
ENDBRANCH   1  13
TORSDOF 6
