REMARK  Name = ZINC00472341
REMARK  7 active torsions:
REMARK  status: ('A' for Active; 'I' for Inactive)
REMARK    1  A    between atoms: C_1  and  C_2
REMARK    2  A    between atoms: C_2  and  C_3
REMARK    3  A    between atoms: C_2  and  C_4
REMARK    4  A    between atoms: C_2  and  C_5
REMARK    5  A    between atoms: C_12  and  N_26
REMARK    6  A    between atoms: C_13  and  C_24
REMARK    7  A    between atoms: C_14  and  C_16
REMARK                            x       y       z     vdW  Elec       q    Type
REMARK                         _______ _______ _______ _____ _____    ______ ____
ROOT
ATOM      1  C   UNL     1       1.051  -0.408  -1.553  0.00  0.00    +0.076 A 
ATOM      2  C   UNL     1       1.018  -1.735  -1.959  0.00  0.00    +0.050 A 
ATOM      3  C   UNL     1       1.668  -1.828  -3.158  0.00  0.00    +0.222 A 
ATOM      4  N   UNL     1       2.093  -0.598  -3.486  0.00  0.00    -0.246 N 
ATOM      5  H   UNL     1       2.586  -0.358  -4.286  0.00  0.00    +0.192 HD
ATOM      6  N   UNL     1       1.690   0.282  -2.469  0.00  0.00    -0.175 NA
ATOM      7  O   UNL     1       1.808  -3.000  -3.826  0.00  0.00    -0.423 OA
ATOM      8  C   UNL     1       1.054  -4.043  -3.421  0.00  0.00    +0.200 C 
ATOM      9  C   UNL     1       0.376  -4.073  -2.253  0.00  0.00    +0.098 C 
ATOM     10  C   UNL     1       0.403  -2.927  -1.272  0.00  0.00    +0.104 C 
ENDROOT
BRANCH  10  11
ATOM     11  C   UNL     1       1.231  -3.305  -0.071  0.00  0.00    +0.003 A 
ATOM     12  C   UNL     1       2.582  -3.559  -0.214  0.00  0.00    +0.045 A 
ATOM     13  C   UNL     1       3.342  -3.905   0.889  0.00  0.00    +0.124 A 
ATOM     14  C   UNL     1       2.749  -3.998   2.137  0.00  0.00    +0.041 A 
ATOM     15  C   UNL     1       1.398  -3.744   2.281  0.00  0.00    +0.041 A 
ATOM     16  C   UNL     1       0.639  -3.392   1.178  0.00  0.00    +0.128 A 
ATOM     17  F   UNL     1      -0.681  -3.139   1.319  0.00  0.00    -0.205 F 
ATOM     18  F   UNL     1       4.662  -4.154   0.749  0.00  0.00    -0.205 F 
ENDBRANCH  10  11
BRANCH   1  20
ATOM     19  C   UNL     1       0.407   1.673  -0.368  0.00  0.00    +0.017 C 
ATOM     20  C   UNL     1       0.453   0.146  -0.286  0.00  0.00    +0.007 C 
ATOM     21  C   UNL     1       1.310  -0.275   0.909  0.00  0.00    +0.017 C 
ATOM     22  C   UNL     1      -0.967  -0.398  -0.112  0.00  0.00    +0.017 C 
ENDBRANCH   1  20
BRANCH   8  23
ATOM     23  N   UNL     1       0.970  -5.138  -4.245  0.00  0.00    -0.328 N 
ATOM     24  H   UNL     1       1.446  -5.146  -5.091  0.00  0.00    +0.145 HD
ATOM     25  H   UNL     1       0.436  -5.903  -3.982  0.00  0.00    +0.145 HD
ENDBRANCH   8  23
BRANCH   9  26
ATOM     26  C   UNL     1      -0.396  -5.236  -1.933  0.00  0.00    +0.101 C 
ATOM     27  N   UNL     1      -1.008  -6.158  -1.680  0.00  0.00    -0.191 NA
ENDBRANCH   9  26
TORSDOF 4
