REMARK  Name = ZINC25802088
REMARK  9 active torsions:
REMARK  status: ('A' for Active; 'I' for Inactive)
REMARK    1  A    between atoms: C_1  and  C_2
REMARK    2  A    between atoms: C_7  and  C_8
REMARK    3  A    between atoms: N_10  and  C_11
REMARK    4  A    between atoms: N_10  and  C_19
REMARK    5  A    between atoms: C_11  and  C_12
REMARK    6  A    between atoms: C_12  and  C_13
REMARK    7  A    between atoms: C_20  and  N_35
REMARK    8  A    between atoms: N_21  and  C_28
REMARK    9  A    between atoms: C_28  and  C_29
REMARK                            x       y       z     vdW  Elec       q    Type
REMARK                         _______ _______ _______ _____ _____    ______ ____
ROOT
ATOM      1  C   UNL     1       0.295   0.034   2.526  0.00  0.00    +0.251 C 
ATOM      2  O   UNL     1       0.697  -0.676   1.624  0.00  0.00    -0.270 OA
ATOM      3  N   UNL     1      -0.190  -0.521   3.654  0.00  0.00    -0.260 N 
ENDROOT
BRANCH   3   4
ATOM      4  C   UNL     1      -0.124  -1.917   3.838  0.00  0.00    +0.140 A 
ATOM      5  C   UNL     1      -0.834  -2.768   3.017  0.00  0.00    +0.128 A 
ATOM      6  N   UNL     1      -0.749  -4.126   3.221  0.00  0.00    -0.276 N 
ATOM      7  C   UNL     1       0.017  -4.618   4.211  0.00  0.00    +0.331 A 
ATOM      8  O   UNL     1       0.079  -5.822   4.376  0.00  0.00    -0.246 OA
ATOM      9  N   UNL     1       0.717  -3.804   5.022  0.00  0.00    -0.273 N 
ATOM     10  H   UNL     1       1.262  -4.184   5.728  0.00  0.00    +0.173 HD
ATOM     11  C   UNL     1       0.673  -2.467   4.860  0.00  0.00    +0.277 A 
ATOM     12  O   UNL     1       1.315  -1.739   5.598  0.00  0.00    -0.266 OA
BRANCH   5  13
ATOM     13  N   UNL     1      -1.618  -2.265   2.006  0.00  0.00    -0.343 N 
ATOM     14  H   UNL     1      -1.647  -1.310   1.845  0.00  0.00    +0.144 HD
ATOM     15  H   UNL     1      -2.142  -2.867   1.453  0.00  0.00    +0.144 HD
ENDBRANCH   5  13
BRANCH   6  16
ATOM     16  C   UNL     1      -1.498  -5.041   2.356  0.00  0.00    +0.163 C 
BRANCH  16  17
ATOM     17  C   UNL     1      -0.618  -5.489   1.218  0.00  0.00    -0.028 A 
ATOM     18  C   UNL     1      -0.505  -4.709   0.083  0.00  0.00    +0.005 A 
ATOM     19  C   UNL     1       0.302  -5.120  -0.961  0.00  0.00    +0.000 A 
ATOM     20  C   UNL     1       0.996  -6.312  -0.870  0.00  0.00    +0.000 A 
ATOM     21  C   UNL     1       0.883  -7.093   0.265  0.00  0.00    +0.000 A 
ATOM     22  C   UNL     1       0.080  -6.679   1.311  0.00  0.00    +0.005 A 
ENDBRANCH  16  17
ENDBRANCH   6  16
ENDBRANCH   3   4
BRANCH   1  29
ATOM     23  C   UNL     1      -0.994   1.290   0.261  0.00  0.00    +0.044 C 
ATOM     24  C   UNL     1      -0.281   2.122   1.296  0.00  0.00    -0.038 A 
ATOM     25  C   UNL     1      -0.243   3.496   1.171  0.00  0.00    +0.007 A 
ATOM     26  C   UNL     1       0.411   4.262   2.119  0.00  0.00    +0.038 A 
ATOM     27  C   UNL     1       1.032   3.656   3.200  0.00  0.00    +0.124 A 
ATOM     28  C   UNL     1       1.001   2.281   3.335  0.00  0.00    +0.051 A 
ATOM     29  C   UNL     1       0.337   1.505   2.384  0.00  0.00    +0.043 A 
ATOM     30  F   UNL     1       1.670   4.410   4.121  0.00  0.00    -0.205 F 
ENDBRANCH   1  29
BRANCH   3  31
ATOM     31  C   UNL     1      -0.787   0.327   4.689  0.00  0.00    +0.118 C 
BRANCH  31  32
ATOM     32  C   UNL     1      -2.254   0.593   4.348  0.00  0.00    +0.050 C 
BRANCH  32  33
ATOM     33  C   UNL     1      -2.868   1.465   5.413  0.00  0.00    -0.072 C 
ATOM     34  C   UNL     1      -2.902   2.742   5.206  0.00  0.00    -0.028 C 
ATOM     35  C   UNL     1      -3.470   3.736   6.176  0.00  0.00    +0.027 C 
ATOM     36  C   UNL     1      -4.357   3.025   7.201  0.00  0.00    +0.004 C 
ATOM     37  C   UNL     1      -3.582   1.828   7.765  0.00  0.00    +0.005 C 
ATOM     38  C   UNL     1      -3.405   0.798   6.646  0.00  0.00    +0.030 C 
ENDBRANCH  32  33
ENDBRANCH  31  32
ENDBRANCH   3  31
TORSDOF 8
