REMARK  Name = ZINC39632076
REMARK  13 active torsions:
REMARK  status: ('A' for Active; 'I' for Inactive)
REMARK    1  A    between atoms: C_1  and  C_2
REMARK    2  A    between atoms: C_5  and  C_12
REMARK    3  A    between atoms: N_9  and  C_11
REMARK    4  A    between atoms: C_16  and  C_25
REMARK    5  A    between atoms: N_27  and  C_28
REMARK    6  A    between atoms: C_28  and  C_30
REMARK    7  A    between atoms: C_28  and  C_31
REMARK    8  A    between atoms: C_31  and  C_32
REMARK    9  A    between atoms: C_32  and  C_33
REMARK   10  A    between atoms: C_33  and  C_34
REMARK   11  A    between atoms: C_34  and  C_35
REMARK   12  A    between atoms: C_34  and  C_36
REMARK   13  A    between atoms: C_34  and  O_37
REMARK                            x       y       z     vdW  Elec       q    Type
REMARK                         _______ _______ _______ _____ _____    ______ ____
ROOT
ATOM      1  C   UNL     1      -0.090  -1.624  -4.659  0.00  0.00    +0.250 C 
ATOM      2  O   UNL     1      -0.119  -0.483  -5.077  0.00  0.00    -0.270 OA
ATOM      3  N   UNL     1       0.083  -2.651  -5.514  0.00  0.00    -0.296 N 
ATOM      4  C   UNL     1       0.042  -4.101  -5.213  0.00  0.00    +0.121 C 
ATOM      5  C   UNL     1      -0.687  -4.731  -6.421  0.00  0.00    +0.100 C 
ATOM      6  C   UNL     1      -0.474  -3.732  -7.571  0.00  0.00    -0.004 C 
ATOM      7  C   UNL     1       0.352  -2.585  -6.971  0.00  0.00    +0.115 C 
ATOM      8  C   UNL     1       0.292  -4.395  -8.712  0.00  0.00    -0.010 C 
ATOM      9  C   UNL     1       0.440  -3.401  -9.867  0.00  0.00    -0.082 C 
ATOM     10  N   UNL     1      -0.888  -2.977 -10.324  0.00  0.00    +0.379 N 
ATOM     11  C   UNL     1      -1.582  -2.258  -9.249  0.00  0.00    -0.082 C 
ATOM     12  C   UNL     1      -1.817  -3.205  -8.068  0.00  0.00    -0.010 C 
ATOM     13  H   UNL     1      -0.790  -2.370 -11.124  0.00  0.00    -0.086 HD
ATOM     14  H   UNL     1      -1.427  -3.789 -10.586  0.00  0.00    -0.086 HD
ENDROOT
BRANCH   1  19
ATOM     15  C   UNL     1      -2.894   0.366  -0.048  0.00  0.00    +0.068 C 
ATOM     16  C   UNL     1      -1.953  -0.808   0.033  0.00  0.00    +0.071 A 
ATOM     17  C   UNL     1      -1.198  -1.385  -1.075  0.00  0.00    +0.060 A 
ATOM     18  C   UNL     1      -1.091  -1.091  -2.438  0.00  0.00    +0.067 A 
ATOM     19  C   UNL     1      -0.243  -1.885  -3.214  0.00  0.00    +0.074 A 
ATOM     20  C   UNL     1       0.460  -2.933  -2.603  0.00  0.00    +0.127 A 
ATOM     21  N   UNL     1       0.337  -3.182  -1.321  0.00  0.00    -0.235 NA
ATOM     22  C   UNL     1      -0.456  -2.457  -0.537  0.00  0.00    +0.160 A 
ATOM     23  N   UNL     1      -0.755  -2.507   0.795  0.00  0.00    -0.249 N 
ATOM     24  N   UNL     1      -1.661  -1.488   1.104  0.00  0.00    -0.174 NA
ATOM     25  C   UNL     1      -0.207  -3.472   1.750  0.00  0.00    +0.174 C 
ATOM     26 CL   UNL     1      -1.986   0.219  -3.144  0.00  0.00    -0.082 Cl
ENDBRANCH   1  19
BRANCH   5  27
ATOM     27  C   UNL     1      -0.078  -6.066  -6.763  0.00  0.00    +0.218 C 
ATOM     28  O   UNL     1       1.104  -6.260  -6.576  0.00  0.00    -0.275 OA
ATOM     29  N   UNL     1      -0.848  -7.046  -7.277  0.00  0.00    -0.312 N 
ATOM     30  H   UNL     1      -1.794  -6.891  -7.427  0.00  0.00    +0.149 HD
BRANCH  29  31
ATOM     31  C   UNL     1      -0.257  -8.344  -7.610  0.00  0.00    +0.070 C 
ATOM     32  C   UNL     1      -0.226  -9.226  -6.360  0.00  0.00    +0.028 C 
BRANCH  31  33
ATOM     33  C   UNL     1      -1.096  -9.025  -8.693  0.00  0.00    +0.022 C 
BRANCH  33  34
ATOM     34  C   UNL     1      -1.026  -8.205  -9.983  0.00  0.00    +0.005 C 
BRANCH  34  35
ATOM     35  C   UNL     1      -1.865  -8.886 -11.066  0.00  0.00    +0.034 C 
BRANCH  35  36
ATOM     36  C   UNL     1      -1.794  -8.066 -12.356  0.00  0.00    +0.061 C 
ATOM     37  C   UNL     1      -2.731  -8.677 -13.400  0.00  0.00    +0.041 C 
ATOM     38  C   UNL     1      -2.221  -6.625 -12.069  0.00  0.00    +0.041 C 
BRANCH  36  39
ATOM     39  O   UNL     1      -0.455  -8.076 -12.854  0.00  0.00    -0.389 OA
ATOM     40  H   UNL     1      -0.336  -7.575 -13.672  0.00  0.00    +0.210 HD
ENDBRANCH  36  39
ENDBRANCH  35  36
ENDBRANCH  34  35
ENDBRANCH  33  34
ENDBRANCH  31  33
ENDBRANCH  29  31
ENDBRANCH   5  27
TORSDOF 8
