REMARK  Name = ZINC14250194
REMARK  5 active torsions:
REMARK  status: ('A' for Active; 'I' for Inactive)
REMARK    1  A    between atoms: C_1  and  C_2
REMARK    2  A    between atoms: C_9  and  C_11
REMARK    3  A    between atoms: N_13  and  N_14
REMARK    4  A    between atoms: C_15  and  C_17
REMARK    5  A    between atoms: C_20  and  C_22
REMARK                            x       y       z     vdW  Elec       q    Type
REMARK                         _______ _______ _______ _____ _____    ______ ____
ROOT
ATOM      1  C   UNL     1      -2.177   4.632   0.050  0.00  0.00    +0.267 C 
ATOM      2  O   UNL     1      -3.340   4.274   0.058  0.00  0.00    -0.268 OA
ATOM      3  N   UNL     1      -1.877   5.946   0.056  0.00  0.00    -0.230 N 
ATOM      4  H   UNL     1      -0.950   6.232   0.049  0.00  0.00    +0.173 HD
ENDROOT
BRANCH   1  12
ATOM      5  C   UNL     1       1.479  -1.998   0.277  0.00  0.00    +0.008 C 
ATOM      6  C   UNL     1       1.385  -0.480   0.448  0.00  0.00    -0.009 C 
ATOM      7  C   UNL     1       2.468   0.195  -0.399  0.00  0.00    +0.009 C 
ATOM      8  C   UNL     1       2.541   1.679  -0.014  0.00  0.00    +0.043 C 
ATOM      9  C   UNL     1       1.149   2.232   0.003  0.00  0.00    -0.006 A 
ATOM     10  C   UNL     1      -0.019   1.522   0.010  0.00  0.00    -0.036 A 
ATOM     11  C   UNL     1      -1.194   2.256   0.031  0.00  0.00    +0.024 A 
ATOM     12  C   UNL     1      -1.103   3.635   0.034  0.00  0.00    +0.076 A 
ATOM     13  S   UNL     1       0.664   3.884   0.018  0.00  0.00    -0.088 S 
ATOM     14  C   UNL     1       0.002  -0.004   0.002  0.00  0.00    +0.039 C 
ENDBRANCH   1  12
BRANCH   3  15
ATOM     15  N   UNL     1      -2.903   6.899   0.071  0.00  0.00    -0.234 N 
ATOM     16  C   UNL     1      -2.603   8.213   0.077  0.00  0.00    +0.232 C 
ATOM     17  O   UNL     1      -1.444   8.570   0.068  0.00  0.00    -0.274 OA
ATOM     18  H   UNL     1      -3.830   6.614   0.078  0.00  0.00    +0.173 HD
BRANCH  16  19
ATOM     19  C   UNL     1      -3.707   9.239   0.093  0.00  0.00    +0.080 C 
ATOM     20  C   UNL     1      -3.879  10.072   1.365  0.00  0.00    +0.017 C 
ATOM     21  C   UNL     1      -3.302  10.714   0.101  0.00  0.00    -0.001 C 
ATOM     22  C   UNL     1      -4.193  11.696  -0.662  0.00  0.00    +0.008 C 
ENDBRANCH  16  19
ENDBRANCH   3  15
TORSDOF 3
