REMARK  Name = ZINC51040290
REMARK  5 active torsions:
REMARK  status: ('A' for Active; 'I' for Inactive)
REMARK    1  A    between atoms: C_1  and  N_2
REMARK    2  A    between atoms: N_2  and  C_3
REMARK    3  A    between atoms: N_2  and  C_7
REMARK    4  A    between atoms: C_3  and  C_4
REMARK    5  A    between atoms: C_12  and  N_13
REMARK                            x       y       z     vdW  Elec       q    Type
REMARK                         _______ _______ _______ _____ _____    ______ ____
ROOT
ATOM      1  C   UNL     1      -0.024  -0.660  -1.232  0.00  0.00    +0.053 A 
ATOM      2  C   UNL     1       1.169  -1.058  -1.815  0.00  0.00    +0.048 A 
ATOM      3  C   UNL     1       1.157  -1.715  -3.038  0.00  0.00    +0.038 A 
ATOM      4  C   UNL     1      -0.049  -1.975  -3.676  0.00  0.00    -0.024 A 
ATOM      5  C   UNL     1      -1.239  -1.579  -3.096  0.00  0.00    +0.030 A 
ATOM      6  C   UNL     1      -1.233  -0.926  -1.873  0.00  0.00    +0.046 A 
ATOM      7  C   UNL     1      -0.056  -2.690  -5.002  0.00  0.00    +0.046 C 
ATOM      8  C   UNL     1       1.184  -2.293  -5.804  0.00  0.00    +0.101 C 
ATOM      9  C   UNL     1       2.412  -2.410  -4.942  0.00  0.00    +0.218 C 
ATOM     10  O   UNL     1       3.459  -2.772  -5.436  0.00  0.00    -0.275 OA
ATOM     11  N   UNL     1       2.361  -2.119  -3.629  0.00  0.00    -0.285 N 
ATOM     12  H   UNL     1       3.164  -2.188  -3.089  0.00  0.00    +0.155 HD
ENDROOT
BRANCH   6  13
ATOM     13  N   UNL     1      -2.442  -0.530  -1.283  0.00  0.00    -0.357 N 
ATOM     14  H   UNL     1      -2.443  -0.137  -0.397  0.00  0.00    +0.142 HD
ATOM     15  H   UNL     1      -3.277  -0.649  -1.762  0.00  0.00    +0.142 HD
ENDBRANCH   6  13
BRANCH   1  17
ATOM     16  C   UNL     1       0.025  -0.767   1.246  0.00  0.00    +0.130 C 
ATOM     17  N   UNL     1      -0.015   0.003   0.001  0.00  0.00    -0.321 N 
BRANCH  17  18
ATOM     18  C   UNL     1      -0.044   1.467   0.046  0.00  0.00    +0.230 C 
BRANCH  18  19
ATOM     19  C   UNL     1       1.362   1.995   0.168  0.00  0.00    +0.373 C 
ATOM     20  O   UNL     1       2.307   1.226   0.123  0.00  0.00    -0.245 OA
ATOM     21  O   UNL     1       1.554   3.190   0.311  0.00  0.00    -0.245 OA
ENDBRANCH  18  19
ENDBRANCH  17  18
ENDBRANCH   1  17
TORSDOF 4
