REMARK  Name = ZINC39479485
REMARK  4 active torsions:
REMARK  status: ('A' for Active; 'I' for Inactive)
REMARK    1  A    between atoms: C_1  and  N_2
REMARK    2  A    between atoms: C_6  and  O_10
REMARK    3  A    between atoms: O_10  and  C_11
REMARK    4  A    between atoms: C_13  and  O_22
REMARK                            x       y       z     vdW  Elec       q    Type
REMARK                         _______ _______ _______ _____ _____    ______ ____
ROOT
ATOM      1  C   UNL     1      -0.018   1.461   0.010  0.00  0.00    +0.137 C 
ATOM      2  N   UNL     1       0.002  -0.004   0.002  0.00  0.00    -0.285 N 
ATOM      3  C   UNL     1      -1.245  -0.587   0.005  0.00  0.00    +0.052 A 
ATOM      4  C   UNL     1      -2.256   0.124   0.623  0.00  0.00    -0.013 A 
ATOM      5  C   UNL     1      -3.565   0.034   0.328  0.00  0.00    +0.051 A 
ATOM      6  C   UNL     1      -3.939  -1.082  -0.438  0.00  0.00    +0.121 A 
ATOM      7  C   UNL     1      -2.967  -1.990  -0.839  0.00  0.00    +0.061 A 
ATOM      8  C   UNL     1      -1.617  -1.760  -0.630  0.00  0.00    +0.038 A 
ATOM      9  I   UNL     1      -0.178  -3.147  -1.258  0.00  0.00    -0.042 I 
ATOM     10  C   UNL     1      -1.767   0.592   2.032  0.00  0.00    +0.132 C 
ATOM     11  C   UNL     1      -0.376  -0.031   1.994  0.00  0.00    +0.192 C 
ATOM     12  N   UNL     1       0.756   0.587   1.903  0.00  0.00    -0.211 NA
ATOM     13  C   UNL     1       1.754  -0.136   1.322  0.00  0.00    +0.144 A 
ATOM     14  C   UNL     1       1.257  -0.549  -0.013  0.00  0.00    +0.156 A 
ATOM     15  N   UNL     1       2.016  -1.237  -0.775  0.00  0.00    -0.218 NA
ATOM     16  C   UNL     1       3.237  -1.585  -0.381  0.00  0.00    +0.225 A 
ATOM     17  N   UNL     1       3.722  -1.245   0.798  0.00  0.00    -0.222 NA
ATOM     18  C   UNL     1       3.001  -0.522   1.676  0.00  0.00    +0.160 A 
ATOM     19 CL   UNL     1       3.656  -0.088   3.224  0.00  0.00    -0.060 Cl
ENDROOT
BRANCH   6  20
ATOM     20  O   UNL     1      -5.241  -1.272  -0.785  0.00  0.00    -0.495 OA
ATOM     21  C   UNL     1      -5.542  -2.430  -1.565  0.00  0.00    +0.277 C 
ENDBRANCH   6  20
BRANCH  11  22
ATOM     22  O   UNL     1      -0.320  -1.378   2.064  0.00  0.00    -0.495 OA
ATOM     23  H   UNL     1       0.578  -1.736   2.038  0.00  0.00    +0.293 HD
ENDBRANCH  11  22
TORSDOF 2
