REMARK  Name = ZINC01170356
REMARK  3 active torsions:
REMARK  status: ('A' for Active; 'I' for Inactive)
REMARK    1  A    between atoms: C_6  and  C_7
REMARK    2  A    between atoms: N_8  and  N_9
REMARK    3  A    between atoms: C_10  and  C_15
REMARK                            x       y       z     vdW  Elec       q    Type
REMARK                         _______ _______ _______ _____ _____    ______ ____
ROOT
ATOM      1  N   UNL     1      -1.185   3.150   1.476  0.00  0.00    -0.182 N 
ATOM      2  C   UNL     1      -0.722   1.881   1.250  0.00  0.00    +0.259 A 
ATOM      3  N   UNL     1      -1.000   1.173   2.308  0.00  0.00    -0.122 NA
ATOM      4  N   UNL     1      -1.606   1.897   3.179  0.00  0.00    -0.120 NA
ATOM      5  C   UNL     1      -1.751   3.120   2.722  0.00  0.00    +0.223 A 
ATOM      6  S   UNL     1      -2.520   4.467   3.557  0.00  0.00    -0.007 SA
ENDROOT
BRANCH   2   7
ATOM      7  C   UNL     1      -0.017   1.395   0.010  0.00  0.00    +0.454 C 
ATOM      8  F   UNL     1       0.002  -0.004   0.002  0.00  0.00    -0.163 F 
ATOM      9  F   UNL     1       1.296   1.879  -0.000  0.00  0.00    -0.163 F 
ATOM     10  F   UNL     1      -0.694   1.858  -1.124  0.00  0.00    -0.163 F 
ENDBRANCH   2   7
BRANCH   1  12
ATOM     11  C   UNL     1      -2.050   4.478  -0.243  0.00  0.00    +0.141 C 
ATOM     12  N   UNL     1      -1.100   4.249   0.611  0.00  0.00    -0.170 NA
BRANCH  11  18
ATOM     13  C   UNL     1      -0.857   6.489  -1.095  0.00  0.00    +0.010 A 
ATOM     14  C   UNL     1      -0.777   7.567  -1.952  0.00  0.00    +0.016 A 
ATOM     15  C   UNL     1      -1.793   7.808  -2.862  0.00  0.00    +0.018 A 
ATOM     16  C   UNL     1      -2.892   6.968  -2.921  0.00  0.00    +0.016 A 
ATOM     17  C   UNL     1      -2.981   5.884  -2.073  0.00  0.00    +0.010 A 
ATOM     18  C   UNL     1      -1.960   5.635  -1.153  0.00  0.00    -0.005 A 
ATOM     19 BR   UNL     1      -1.678   9.291  -4.029  0.00  0.00    -0.050 Br
ENDBRANCH  11  18
ENDBRANCH   1  12
TORSDOF 3
