REMARK  Name = ZINC59254207
REMARK  9 active torsions:
REMARK  status: ('A' for Active; 'I' for Inactive)
REMARK    1  A    between atoms: C_1  and  C_2
REMARK    2  A    between atoms: C_2  and  C_3
REMARK    3  A    between atoms: C_3  and  C_21
REMARK    4  A    between atoms: N_6  and  C_10
REMARK    5  A    between atoms: C_10  and  C_11
REMARK    6  A    between atoms: C_15  and  O_17
REMARK    7  A    between atoms: O_17  and  C_18
REMARK    8  A    between atoms: C_18  and  C_19
REMARK    9  A    between atoms: C_18  and  C_20
REMARK                            x       y       z     vdW  Elec       q    Type
REMARK                         _______ _______ _______ _____ _____    ______ ____
ROOT
ATOM      1  C   UNL     1       0.225  -0.169  -0.632  0.00  0.00    +0.138 C 
ATOM      2  C   UNL     1      -0.223   0.275  -2.011  0.00  0.00    +0.251 C 
ATOM      3  O   UNL     1      -1.309   0.100  -2.520  0.00  0.00    -0.272 OA
ATOM      4  N   UNL     1       0.838   0.905  -2.553  0.00  0.00    -0.220 N 
ATOM      5  C   UNL     1       1.883   0.921  -1.717  0.00  0.00    +0.310 C 
ATOM      6  O   UNL     1       2.953   1.433  -1.983  0.00  0.00    -0.252 OA
ATOM      7  N   UNL     1       1.616   0.308  -0.550  0.00  0.00    -0.281 N 
ATOM      8  H   UNL     1       2.222   0.200   0.200  0.00  0.00    +0.152 HD
ENDROOT
BRANCH   1   9
ATOM      9  C   UNL     1       0.171  -1.670  -0.512  0.00  0.00    -0.015 A 
ATOM     10  C   UNL     1      -0.965  -2.283  -0.015  0.00  0.00    +0.007 A 
ATOM     11  C   UNL     1      -1.015  -3.659   0.097  0.00  0.00    +0.020 A 
ATOM     12  C   UNL     1       0.071  -4.425  -0.290  0.00  0.00    +0.041 A 
ATOM     13  C   UNL     1       1.207  -3.811  -0.787  0.00  0.00    +0.020 A 
ATOM     14  C   UNL     1       1.254  -2.434  -0.903  0.00  0.00    +0.007 A 
ATOM     15 CL   UNL     1       0.009  -6.154  -0.150  0.00  0.00    -0.084 Cl
ENDBRANCH   1   9
BRANCH   1  17
ATOM     16  C   UNL     1      -0.605   2.007   0.272  0.00  0.00    +0.007 C 
ATOM     17  C   UNL     1      -0.634   0.488   0.450  0.00  0.00    +0.037 C 
ENDBRANCH   1  17
BRANCH   4  18
ATOM     18  C   UNL     1       0.847   1.499  -3.892  0.00  0.00    +0.153 C 
BRANCH  18  19
ATOM     19  C   UNL     1       0.395   2.934  -3.808  0.00  0.00    -0.026 A 
ATOM     20  C   UNL     1      -0.948   3.244  -3.925  0.00  0.00    +0.005 A 
ATOM     21  C   UNL     1      -1.365   4.560  -3.849  0.00  0.00    +0.004 A 
ATOM     22  C   UNL     1      -0.442   5.569  -3.655  0.00  0.00    +0.045 A 
ATOM     23  C   UNL     1       0.906   5.261  -3.538  0.00  0.00    +0.121 A 
ATOM     24  C   UNL     1       1.321   3.939  -3.609  0.00  0.00    +0.050 A 
BRANCH  23  25
ATOM     25  O   UNL     1       1.816   6.252  -3.347  0.00  0.00    -0.489 OA
BRANCH  25  26
ATOM     26  C   UNL     1       1.307   7.573  -3.158  0.00  0.00    +0.167 C 
ATOM     27  C   UNL     1       2.324   8.404  -2.373  0.00  0.00    +0.051 C 
ATOM     28  C   UNL     1       1.059   8.224  -4.520  0.00  0.00    +0.051 C 
ENDBRANCH  25  26
ENDBRANCH  23  25
ENDBRANCH  18  19
ENDBRANCH   4  18
TORSDOF 6
