REMARK  Name = ZINC65394057
REMARK  3 active torsions:
REMARK  status: ('A' for Active; 'I' for Inactive)
REMARK    1  A    between atoms: C_1  and  C_2
REMARK    2  A    between atoms: C_5  and  C_8
REMARK    3  A    between atoms: C_15  and  C_21
REMARK                            x       y       z     vdW  Elec       q    Type
REMARK                         _______ _______ _______ _____ _____    ______ ____
ROOT
ATOM      1  C   UNL     1       0.058  -4.161  -0.078  0.00  0.00    +0.159 A 
ATOM      2  N   UNL     1       0.067  -4.931   0.978  0.00  0.00    -0.221 NA
ATOM      3  C   UNL     1       0.088  -6.231   0.586  0.00  0.00    +0.147 A 
ATOM      4  H   UNL     1       0.060  -4.644  -2.111  0.00  0.00    +0.167 HD
ATOM      5  C   UNL     1       0.076  -6.244  -0.775  0.00  0.00    +0.049 A 
ATOM      6  N   UNL     1       0.063  -4.951  -1.191  0.00  0.00    -0.340 N 
ATOM      7  C   UNL     1       0.060  -7.429  -1.688  0.00  0.00    +0.065 C 
ATOM      8  C   UNL     1       0.801  -8.614  -1.130  0.00  0.00    +0.042 C 
ATOM      9  C   UNL     1       0.074  -9.310  -0.011  0.00  0.00    +0.113 C 
ATOM     10  N   UNL     1       0.156  -8.642   1.259  0.00  0.00    -0.309 N 
ATOM     11  C   UNL     1       0.131  -7.355   1.520  0.00  0.00    +0.264 C 
ATOM     12  O   UNL     1       0.145  -7.058   2.699  0.00  0.00    -0.268 OA
ATOM     13  H   UNL     1       0.241  -9.222   2.032  0.00  0.00    +0.149 HD
ENDROOT
BRANCH   1  18
ATOM     14  C   UNL     1      -0.018   1.503   0.010  0.00  0.00    +0.067 C 
ATOM     15  C   UNL     1       0.002  -0.004   0.002  0.00  0.00    +0.056 A 
ATOM     16  C   UNL     1       0.006  -0.688  -1.203  0.00  0.00    +0.134 A 
ATOM     17  N   UNL     1       0.024  -2.007  -1.216  0.00  0.00    -0.249 NA
ATOM     18  C   UNL     1       0.038  -2.682  -0.069  0.00  0.00    +0.124 A 
ATOM     19  C   UNL     1       0.034  -1.989   1.143  0.00  0.00    +0.142 A 
ATOM     20  N   UNL     1       0.022  -0.669   1.145  0.00  0.00    -0.256 NA
ENDBRANCH   1  18
BRANCH   8  21
ATOM     21  C   UNL     1       1.031  -9.606  -2.242  0.00  0.00    -0.042 A 
ATOM     22  C   UNL     1      -0.047 -10.151  -2.915  0.00  0.00    +0.005 A 
ATOM     23  C   UNL     1       0.163 -11.060  -3.935  0.00  0.00    +0.020 A 
ATOM     24  C   UNL     1       1.452 -11.425  -4.281  0.00  0.00    +0.041 A 
ATOM     25  C   UNL     1       2.530 -10.879  -3.607  0.00  0.00    +0.020 A 
ATOM     26  C   UNL     1       2.319  -9.966  -2.591  0.00  0.00    +0.005 A 
ATOM     27 CL   UNL     1       1.717 -12.567  -5.561  0.00  0.00    -0.084 Cl
ENDBRANCH   8  21
TORSDOF 2
