REMARK  Name = ZINC17042487
REMARK  10 active torsions:
REMARK  status: ('A' for Active; 'I' for Inactive)
REMARK    1  A    between atoms: C_1  and  C_2
REMARK    2  A    between atoms: C_3  and  C_10
REMARK    3  A    between atoms: C_11  and  C_12
REMARK    4  A    between atoms: N_14  and  C_15
REMARK    5  A    between atoms: C_15  and  C_17
REMARK    6  A    between atoms: C_15  and  C_19
REMARK    7  A    between atoms: C_17  and  O_18
REMARK    8  A    between atoms: C_19  and  S_20
REMARK    9  A    between atoms: S_20  and  C_21
REMARK   10  A    between atoms: C_21  and  C_22
REMARK                            x       y       z     vdW  Elec       q    Type
REMARK                         _______ _______ _______ _____ _____    ______ ____
ROOT
ATOM      1  C   UNK A   0      -1.812   2.022   0.307  0.00  0.00    +0.237 C 
ATOM      2  O   UNK A   0      -2.693   1.203   0.494  0.00  0.00    -0.271 OA
ATOM      3  N   UNK A   1      -2.122   3.328   0.180  0.00  0.00    -0.306 N 
ATOM      4  H   UNK A   1      -1.421   3.981   0.031  0.00  0.00    +0.149 HD
ENDROOT
BRANCH   1   6
ATOM      5  C   UNK A   0      -0.159   0.286   0.227  0.00  0.00    +0.020 C 
ATOM      6  C   UNK A   0      -0.460   1.603   0.223  0.00  0.00    +0.068 C 
BRANCH   5   9
ATOM      7  C   UNK A   0      -0.512  -1.635   2.399  0.00  0.00    +0.064 C 
ATOM      8  C   UNK A   0      -1.417  -1.642   1.194  0.00  0.00    +0.030 A 
ATOM      9  C   UNK A   0      -1.233  -0.712   0.162  0.00  0.00    +0.059 A 
ATOM     10  C   UNK A   0      -2.110  -0.763  -0.942  0.00  0.00    +0.261 A 
ATOM     11  N   UNK A   0      -3.069  -1.679  -0.955  0.00  0.00    -0.275 N 
ATOM     12  C   UNK A   0      -3.206  -2.533   0.047  0.00  0.00    +0.327 A 
ATOM     13  N   UNK A   0      -2.402  -2.517   1.101  0.00  0.00    -0.311 N 
ATOM     14  O   UNK A   0      -4.198  -3.451  -0.006  0.00  0.00    -0.247 OA
ATOM     15  O   UNK A   0      -1.975   0.106  -1.970  0.00  0.00    -0.267 OA
ATOM     16  H   UNK A   0      -2.544  -3.178   1.837  0.00  0.00    +0.170 HD
ATOM     17  H   UNK A   0      -3.697  -1.726  -1.732  0.00  0.00    +0.173 HD
ENDBRANCH   5   9
ENDBRANCH   1   6
BRANCH   3  18
ATOM     18  C   UNK A   1      -3.519   3.761   0.267  0.00  0.00    +0.108 C 
BRANCH  18  19
ATOM     19  C   UNK A   1      -3.899   3.964   1.735  0.00  0.00    +0.178 C 
BRANCH  19  20
ATOM     20  O   UNK A   1      -3.135   5.041   2.280  0.00  0.00    -0.393 OA
ATOM     21  H   UNK A   1      -3.324   5.227   3.210  0.00  0.00    +0.209 HD
ENDBRANCH  19  20
ENDBRANCH  18  19
BRANCH  18  22
ATOM     22  C   UNK A   1      -3.693   5.077  -0.492  0.00  0.00    +0.094 C 
BRANCH  22  23
ATOM     23  S   UNK A   1      -3.385   4.802  -2.259  0.00  0.00    -0.154 S 
BRANCH  23  24
ATOM     24  C   UNK A   1      -3.629   6.437  -3.006  0.00  0.00    +0.104 C 
BRANCH  24  25
ATOM     25  C   UNK A   1      -3.401   6.348  -4.493  0.00  0.00    -0.038 A 
ATOM     26  C   UNK A   1      -2.137   6.561  -5.012  0.00  0.00    +0.004 A 
ATOM     27  C   UNK A   1      -1.926   6.474  -6.375  0.00  0.00    +0.000 A 
ATOM     28  C   UNK A   1      -2.981   6.186  -7.221  0.00  0.00    +0.000 A 
ATOM     29  C   UNK A   1      -4.246   5.979  -6.703  0.00  0.00    +0.000 A 
ATOM     30  C   UNK A   1      -4.455   6.060  -5.339  0.00  0.00    +0.004 A 
ENDBRANCH  24  25
ENDBRANCH  23  24
ENDBRANCH  22  23
ENDBRANCH  18  22
ENDBRANCH   3  18
TORSDOF 9
