REMARK  Name = ZINC23995450
REMARK  7 active torsions:
REMARK  status: ('A' for Active; 'I' for Inactive)
REMARK    1  A    between atoms: C_1  and  C_2
REMARK    2  A    between atoms: C_2  and  C_3
REMARK    3  A    between atoms: C_7  and  C_28
REMARK    4  A    between atoms: C_8  and  N_9
REMARK    5  A    between atoms: C_10  and  C_12
REMARK    6  A    between atoms: C_12  and  N_13
REMARK    7  A    between atoms: C_28  and  C_29
REMARK                            x       y       z     vdW  Elec       q    Type
REMARK                         _______ _______ _______ _____ _____    ______ ____
ROOT
ATOM      1  C   UNL     1       2.008  -1.353  -3.608  0.00  0.00    +0.214 C 
ENDROOT
BRANCH   1   2
ATOM      2  N   UNL     1       2.138  -0.500  -2.424  0.00  0.00    -0.215 N 
ATOM      3  C   UNL     1       2.941  -0.776  -1.373  0.00  0.00    +0.251 C 
ATOM      4  O   UNL     1       3.664  -1.739  -1.233  0.00  0.00    -0.272 OA
ATOM      5  C   UNL     1       2.746   0.369  -0.414  0.00  0.00    +0.138 C 
ATOM      6  C   UNL     1       4.067   1.101  -0.146  0.00  0.00    +0.045 C 
ATOM      7  C   UNL     1       4.546   0.439   1.166  0.00  0.00    +0.038 C 
ATOM      8  C   UNL     1       3.287  -0.063   1.841  0.00  0.00    -0.042 A 
ATOM      9  C   UNL     1       2.249  -0.106   0.925  0.00  0.00    -0.012 A 
ATOM     10  C   UNL     1       0.998  -0.543   1.327  0.00  0.00    +0.006 A 
ATOM     11  C   UNL     1       0.781  -0.932   2.634  0.00  0.00    +0.000 A 
ATOM     12  C   UNL     1       1.817  -0.886   3.548  0.00  0.00    +0.000 A 
ATOM     13  C   UNL     1       3.067  -0.453   3.151  0.00  0.00    +0.004 A 
ATOM     14  N   UNL     1       1.775   1.242  -1.074  0.00  0.00    -0.281 N 
ATOM     15  C   UNL     1       1.476   0.651  -2.248  0.00  0.00    +0.310 C 
ATOM     16  O   UNL     1       0.693   1.111  -3.057  0.00  0.00    -0.252 OA
ATOM     17  H   UNL     1       1.447   2.171  -0.583  0.00  0.00    +0.152 HD
ENDBRANCH   1   2
BRANCH   1  19
ATOM     18  N   UNL     1       0.600  -3.246  -4.351  0.00  0.00    -0.284 N 
ATOM     19  C   UNL     1       0.902  -2.352  -3.388  0.00  0.00    +0.235 C 
ATOM     20  O   UNL     1       0.283  -2.352  -2.345  0.00  0.00    -0.274 OA
ATOM     21  H   UNL     1       1.125  -3.212  -5.316  0.00  0.00    +0.155 HD
BRANCH  18  27
ATOM     22  C   UNL     1      -1.380  -4.432  -5.061  0.00  0.00    -0.026 A 
ATOM     23  C   UNL     1      -2.348  -5.391  -4.832  0.00  0.00    +0.007 A 
ATOM     24  C   UNL     1      -2.322  -6.137  -3.669  0.00  0.00    +0.020 A 
ATOM     25  C   UNL     1      -1.327  -5.926  -2.730  0.00  0.00    +0.046 A 
ATOM     26  C   UNL     1      -0.353  -4.972  -2.956  0.00  0.00    -0.008 A 
ATOM     27  C   UNL     1      -0.381  -4.217  -4.121  0.00  0.00    +0.041 A 
ATOM     28 CL   UNL     1      -1.298  -6.866  -1.271  0.00  0.00    -0.083 Cl
BRANCH  22  30
ATOM     29  C   UNL     1      -0.495  -4.266  -7.371  0.00  0.00    +0.009 C 
ATOM     30  C   UNL     1      -1.410  -3.619  -6.329  0.00  0.00    +0.033 C 
ENDBRANCH  22  30
BRANCH  26  31
ATOM     31  C   UNL     1       0.733  -4.746  -1.936  0.00  0.00    +0.035 C 
ATOM     32  C   UNL     1       0.172  -4.984  -0.532  0.00  0.00    +0.009 C 
ENDBRANCH  26  31
ENDBRANCH  18  27
ENDBRANCH   1  19
TORSDOF 5
