REMARK  Name = ZINC00206216
REMARK  9 active torsions:
REMARK  status: ('A' for Active; 'I' for Inactive)
REMARK    1  A    between atoms: C_1  and  C_2
REMARK    2  A    between atoms: C_2  and  O_3
REMARK    3  A    between atoms: O_3  and  C_4
REMARK    4  A    between atoms: C_4  and  C_6
REMARK    5  A    between atoms: C_7  and  C_23
REMARK    6  A    between atoms: C_12  and  C_14
REMARK    7  A    between atoms: C_16  and  O_21
REMARK    8  A    between atoms: C_19  and  O_20
REMARK    9  A    between atoms: O_21  and  C_22
REMARK                            x       y       z     vdW  Elec       q    Type
REMARK                         _______ _______ _______ _____ _____    ______ ____
ROOT
ATOM      1  C   UNL     1      -1.881  -0.715  -1.385  0.00  0.00    +0.078 C 
ATOM      2  C   UNL     1      -2.303  -1.880  -1.922  0.00  0.00    +0.019 C 
ATOM      3  N   UNL     1      -2.017  -3.074  -1.327  0.00  0.00    -0.300 N 
ATOM      4  C   UNL     1      -1.314  -3.190  -0.194  0.00  0.00    +0.135 C 
ATOM      5  S   UNL     1      -1.027  -4.751   0.447  0.00  0.00    -0.019 S 
ATOM      6  N   UNL     1      -0.826  -2.117   0.460  0.00  0.00    -0.315 N 
ATOM      7  C   UNL     1      -1.079  -0.779  -0.101  0.00  0.00    +0.145 C 
ATOM      8  C   UNL     1      -3.104  -1.861  -3.199  0.00  0.00    +0.061 C 
ATOM      9  H   UNL     1      -2.341  -3.885  -1.750  0.00  0.00    +0.154 HD
ATOM     10  H   UNL     1      -0.319  -2.224   1.280  0.00  0.00    +0.149 HD
ENDROOT
BRANCH   7  11
ATOM     11  C   UNL     1       0.252  -0.120  -0.350  0.00  0.00    +0.022 A 
ATOM     12  C   UNL     1       0.761  -0.054  -1.633  0.00  0.00    +0.055 A 
ATOM     13  C   UNL     1       1.987   0.553  -1.863  0.00  0.00    +0.121 A 
ATOM     14  C   UNL     1       2.701   1.095  -0.804  0.00  0.00    +0.049 A 
ATOM     15  C   UNL     1       2.192   1.030   0.478  0.00  0.00    +0.049 A 
ATOM     16  C   UNL     1       0.967   0.422   0.708  0.00  0.00    +0.122 A 
BRANCH  16  17
ATOM     17  O   UNL     1       0.463   0.363   1.969  0.00  0.00    -0.506 OA
ATOM     18  H   UNL     1       0.721  -0.430   2.459  0.00  0.00    +0.292 HD
ENDBRANCH  16  17
BRANCH  13  19
ATOM     19  O   UNL     1       2.488   0.617  -3.125  0.00  0.00    -0.495 OA
ATOM     20  C   UNL     1       3.755   1.257  -3.288  0.00  0.00    +0.277 C 
ENDBRANCH  13  19
ENDBRANCH   7  11
BRANCH   1  21
ATOM     21  C   UNL     1      -2.176   0.523  -2.002  0.00  0.00    +0.339 C 
ATOM     22  O   UNL     1      -2.731   0.546  -3.084  0.00  0.00    -0.245 OA
BRANCH  21  23
ATOM     23  O   UNL     1      -1.843   1.678  -1.389  0.00  0.00    -0.462 OA
BRANCH  23  25
ATOM     24  C   UNL     1      -1.720   4.086  -1.227  0.00  0.00    +0.048 C 
ATOM     25  C   UNL     1      -2.171   2.891  -2.069  0.00  0.00    +0.229 C 
ENDBRANCH  23  25
ENDBRANCH  21  23
ENDBRANCH   1  21
TORSDOF 6
