REMARK  Name = ZINC18528382
REMARK  10 active torsions:
REMARK  status: ('A' for Active; 'I' for Inactive)
REMARK    1  A    between atoms: C_1  and  C_2
REMARK    2  A    between atoms: C_2  and  N_3
REMARK    3  A    between atoms: N_3  and  C_4
REMARK    4  A    between atoms: C_4  and  C_5
REMARK    5  A    between atoms: N_7  and  C_8
REMARK    6  A    between atoms: C_16  and  C_18
REMARK    7  A    between atoms: C_18  and  S_19
REMARK    8  A    between atoms: S_19  and  C_20
REMARK    9  A    between atoms: C_23  and  C_25
REMARK   10  A    between atoms: C_28  and  C_31
REMARK                            x       y       z     vdW  Elec       q    Type
REMARK                         _______ _______ _______ _____ _____    ______ ____
ROOT
ATOM      1  N   UNL     1      -6.071   5.433  -1.803  0.00  0.00    -0.292 N 
ATOM      2  C   UNL     1      -7.010   4.785  -2.521  0.00  0.00    +0.226 C 
ATOM      3  O   UNL     1      -6.680   4.046  -3.424  0.00  0.00    -0.275 OA
ENDROOT
BRANCH   1   5
ATOM      4  C   UNL     1      -6.666   7.741  -1.256  0.00  0.00    +0.024 C 
ATOM      5  C   UNL     1      -6.470   6.325  -0.711  0.00  0.00    +0.105 C 
ENDBRANCH   1   5
BRANCH   1   6
ATOM      6  C   UNL     1      -4.652   5.245  -2.114  0.00  0.00    +0.203 C 
BRANCH   6   7
ATOM      7  C   UNL     1      -4.110   4.092  -1.310  0.00  0.00    +0.231 C 
ATOM      8  O   UNL     1      -4.837   3.486  -0.552  0.00  0.00    -0.274 OA
ATOM      9  N   UNL     1      -2.816   3.733  -1.434  0.00  0.00    -0.310 N 
ATOM     10  H   UNL     1      -2.235   4.218  -2.041  0.00  0.00    +0.149 HD
BRANCH   9  11
ATOM     11  C   UNL     1      -2.289   2.612  -0.653  0.00  0.00    +0.095 C 
ATOM     12  C   UNL     1      -1.876   3.112   0.741  0.00  0.00    +0.046 C 
ATOM     13  C   UNL     1      -1.039   1.995   1.430  0.00  0.00    +0.168 C 
ATOM     14  S   UNL     1      -0.017   1.417   0.010  0.00  0.00    -0.029 S 
ATOM     15  O   UNL     1       0.002  -0.004   0.002  0.00  0.00    -0.174 OA
ATOM     16  O   UNL     1       1.210   2.133   0.002  0.00  0.00    -0.174 OA
ATOM     17  C   UNL     1      -1.064   2.009  -1.382  0.00  0.00    +0.188 C 
ENDBRANCH   9  11
ENDBRANCH   6   7
ENDBRANCH   1   6
BRANCH   2  18
ATOM     18  C   UNL     1      -8.470   4.978  -2.200  0.00  0.00    +0.174 C 
BRANCH  18  19
ATOM     19  S   UNL     1      -9.472   3.981  -3.331  0.00  0.00    -0.056 S 
BRANCH  19  20
ATOM     20  C   UNL     1     -11.085   4.386  -2.748  0.00  0.00    +0.278 A 
ATOM     21  N   UNL     1     -11.372   5.200  -1.758  0.00  0.00    -0.101 NA
ATOM     22  N   UNL     1     -12.648   5.259  -1.608  0.00  0.00    -0.106 NA
ATOM     23  C   UNL     1     -13.227   4.487  -2.495  0.00  0.00    +0.249 A 
ATOM     24  O   UNL     1     -12.250   3.923  -3.239  0.00  0.00    -0.411 OA
BRANCH  23  25
ATOM     25  C   UNL     1     -14.681   4.277  -2.656  0.00  0.00    +0.039 A 
ATOM     26  C   UNL     1     -15.160   3.426  -3.654  0.00  0.00    +0.013 A 
ATOM     27  C   UNL     1     -16.518   3.231  -3.796  0.00  0.00    +0.004 A 
ATOM     28  C   UNL     1     -17.405   3.884  -2.959  0.00  0.00    -0.050 A 
ATOM     29  C   UNL     1     -16.937   4.733  -1.972  0.00  0.00    +0.004 A 
ATOM     30  C   UNL     1     -15.581   4.934  -1.815  0.00  0.00    +0.013 A 
ATOM     31  C   UNL     1     -18.888   3.671  -3.124  0.00  0.00    +0.044 C 
ENDBRANCH  23  25
ENDBRANCH  19  20
ENDBRANCH  18  19
ENDBRANCH   2  18
TORSDOF 8
