REMARK  Name = ZINC40923537
REMARK  5 active torsions:
REMARK  status: ('A' for Active; 'I' for Inactive)
REMARK    1  A    between atoms: C_1  and  C_2
REMARK    2  A    between atoms: C_5  and  C_8
REMARK    3  A    between atoms: C_8  and  O_9
REMARK    4  A    between atoms: O_9  and  C_10
REMARK    5  A    between atoms: C_15  and  C_16
REMARK                            x       y       z     vdW  Elec       q    Type
REMARK                         _______ _______ _______ _____ _____    ______ ____
ROOT
ATOM      1  C   UNL     1       1.608  -6.079  -0.040  0.00  0.00    +0.127 A 
ATOM      2  C   UNL     1       0.520  -6.939  -0.044  0.00  0.00    +0.046 A 
ATOM      3  C   UNL     1       0.721  -8.306  -0.053  0.00  0.00    +0.004 A 
ATOM      4  C   UNL     1       2.006  -8.817  -0.058  0.00  0.00    +0.001 A 
ATOM      5  C   UNL     1       3.092  -7.962  -0.053  0.00  0.00    +0.009 A 
ATOM      6  C   UNL     1       2.896  -6.594  -0.050  0.00  0.00    +0.023 A 
ENDROOT
BRANCH   6   7
ATOM      7  C   UNL     1       4.081  -5.662  -0.051  0.00  0.00    +0.181 C 
ATOM      8  C   UNL     1       4.921  -5.917   1.182  0.00  0.00    +0.041 C 
ATOM      9  C   UNL     1       6.109  -6.555   1.122  0.00  0.00    +0.020 C 
ATOM     10  C   UNL     1       6.916  -6.810   2.374  0.00  0.00    +0.052 C 
ATOM     11  C   UNL     1       6.671  -5.685   3.382  0.00  0.00    +0.014 C 
ATOM     12  C   UNL     1       5.171  -5.636   3.693  0.00  0.00    +0.080 C 
ATOM     13  C   UNL     1       4.411  -5.454   2.409  0.00  0.00    +0.163 C 
ATOM     14  O   UNL     1       3.333  -4.895   2.431  0.00  0.00    -0.292 OA
ATOM     15  N   UNL     1       6.639  -6.994  -0.068  0.00  0.00    -0.286 N 
ATOM     16  C   UNL     1       6.076  -6.524  -1.242  0.00  0.00    +0.240 A 
ATOM     17  N   UNL     1       4.876  -5.893  -1.248  0.00  0.00    -0.201 N 
ATOM     18  N   UNL     1       4.637  -5.561  -2.580  0.00  0.00    -0.042 NA
ATOM     19  N   UNL     1       5.652  -5.997  -3.254  0.00  0.00    -0.021 NA
ATOM     20  N   UNL     1       6.499  -6.564  -2.474  0.00  0.00    -0.092 NA
ATOM     21  H   UNL     1       7.384  -7.615  -0.084  0.00  0.00    +0.155 HD
ENDBRANCH   6   7
BRANCH   1  22
ATOM     22  O   UNL     1       1.413  -4.734  -0.032  0.00  0.00    -0.487 OA
BRANCH  22  23
ATOM     23  C   UNL     1       0.059  -4.275  -0.021  0.00  0.00    +0.264 C 
BRANCH  23  28
ATOM     24  C   UNL     1      -0.018   1.503   0.010  0.00  0.00    +0.044 C 
ATOM     25  C   UNL     1       0.002  -0.004   0.002  0.00  0.00    -0.050 A 
ATOM     26  C   UNL     1       0.006  -0.689  -1.199  0.00  0.00    +0.004 A 
ATOM     27  C   UNL     1       0.025  -2.071  -1.206  0.00  0.00    +0.007 A 
ATOM     28  C   UNL     1       0.040  -2.768  -0.013  0.00  0.00    -0.010 A 
ATOM     29  C   UNL     1       0.037  -2.084   1.188  0.00  0.00    +0.007 A 
ATOM     30  C   UNL     1       0.023  -0.702   1.195  0.00  0.00    +0.004 A 
ENDBRANCH  23  28
ENDBRANCH  22  23
ENDBRANCH   1  22
TORSDOF 4
