REMARK  Name = ZINC38154606
REMARK  2 active torsions:
REMARK  status: ('A' for Active; 'I' for Inactive)
REMARK    1  A    between atoms: C_5  and  C_7
REMARK    2  A    between atoms: C_20  and  C_22
REMARK                            x       y       z     vdW  Elec       q    Type
REMARK                         _______ _______ _______ _____ _____    ______ ____
ROOT
ATOM      1  C   UNL     1       1.254  -2.153  -0.022  0.00  0.00    +0.016 C 
ATOM      2  C   UNL     1       0.075  -2.809   0.076  0.00  0.00    -0.027 C 
ATOM      3  C   UNL     1      -1.179  -1.999   0.075  0.00  0.00    +0.037 C 
ATOM      4  C   UNL     1      -2.429  -2.847   0.253  0.00  0.00    +0.005 C 
ATOM      5  C   UNL     1      -2.282  -4.188  -0.462  0.00  0.00    +0.012 C 
ATOM      6  C   UNL     1      -1.176  -4.999   0.217  0.00  0.00    +0.065 C 
ATOM      7  C   UNL     1       0.106  -4.212   0.167  0.00  0.00    +0.028 C 
ATOM      8  N   UNL     1       1.279  -4.809   0.253  0.00  0.00    -0.326 N 
ATOM      9  C   UNL     1       1.332  -6.163   0.241  0.00  0.00    +0.248 A 
ATOM     10  N   UNL     1       2.303  -6.995   0.526  0.00  0.00    -0.090 NA
ATOM     11  N   UNL     1       1.904  -8.213   0.383  0.00  0.00    -0.021 NA
ATOM     12  N   UNL     1       0.668  -8.248   0.000  0.00  0.00    -0.042 NA
ATOM     13  N   UNL     1       0.250  -6.927  -0.111  0.00  0.00    -0.203 N 
ATOM     14  C   UNL     1      -1.026  -6.347  -0.498  0.00  0.00    +0.154 C 
ATOM     15  H   UNL     1       2.092  -4.286   0.325  0.00  0.00    +0.169 HD
ENDROOT
BRANCH   1  20
ATOM     16  C   UNL     1       0.467   1.195  -1.514  0.00  0.00    +0.001 A 
ATOM     17  C   UNL     1       1.304   2.020  -0.781  0.00  0.00    +0.003 A 
ATOM     18  C   UNL     1       2.124   1.491   0.199  0.00  0.00    +0.039 A 
ATOM     19  C   UNL     1       2.115   0.133   0.454  0.00  0.00    +0.131 A 
ATOM     20  C   UNL     1       1.271  -0.707  -0.284  0.00  0.00    +0.010 A 
ATOM     21  C   UNL     1       0.445  -0.162  -1.274  0.00  0.00    +0.011 A 
ATOM     22  F   UNL     1       2.918  -0.383   1.411  0.00  0.00    -0.205 F 
ENDBRANCH   1  20
BRANCH  14  23
ATOM     23  C   UNL     1      -1.042  -6.137  -1.990  0.00  0.00    +0.013 A 
ATOM     24  C   UNL     1      -0.081  -5.344  -2.587  0.00  0.00    +0.008 A 
ATOM     25  C   UNL     1      -0.095  -5.151  -3.956  0.00  0.00    +0.001 A 
ATOM     26  C   UNL     1      -1.072  -5.751  -4.729  0.00  0.00    +0.003 A 
ATOM     27  C   UNL     1      -2.034  -6.545  -4.135  0.00  0.00    +0.039 A 
ATOM     28  C   UNL     1      -2.017  -6.743  -2.764  0.00  0.00    +0.129 A 
ATOM     29  F   UNL     1      -2.955  -7.522  -2.182  0.00  0.00    -0.205 F 
ENDBRANCH  14  23
TORSDOF 2
