REMARK  Name = ZINC40544722
REMARK  7 active torsions:
REMARK  status: ('A' for Active; 'I' for Inactive)
REMARK    1  A    between atoms: C_5  and  N_8
REMARK    2  A    between atoms: N_11  and  C_12
REMARK    3  A    between atoms: C_12  and  C_13
REMARK    4  A    between atoms: C_13  and  C_14
REMARK    5  A    between atoms: C_14  and  C_15
REMARK    6  A    between atoms: C_15  and  C_16
REMARK    7  A    between atoms: C_16  and  C_17
REMARK                            x       y       z     vdW  Elec       q    Type
REMARK                         _______ _______ _______ _____ _____    ______ ____
ROOT
ATOM      1  N   UNL     1       1.237  -2.082  -0.022  0.00  0.00    -0.267 N 
ATOM      2  C   UNL     1       0.155  -2.775   0.383  0.00  0.00    +0.304 C 
ATOM      3  O   UNL     1      -0.870  -2.189   0.670  0.00  0.00    -0.253 OA
ATOM      4  N   UNL     1       0.210  -4.119   0.471  0.00  0.00    -0.299 N 
ATOM      5  H   UNL     1       2.031  -2.552  -0.320  0.00  0.00    +0.156 HD
ATOM      6  H   UNL     1       1.028  -4.587   0.242  0.00  0.00    +0.150 HD
ENDROOT
BRANCH   1  11
ATOM      7  C   UNL     1       0.783   1.398  -1.132  0.00  0.00    +0.042 A 
ATOM      8  C   UNL     1       1.173   2.088   0.003  0.00  0.00    +0.044 A 
ATOM      9  C   UNL     1       1.583   1.397   1.129  0.00  0.00    +0.042 A 
ATOM     10  C   UNL     1       1.606   0.015   1.124  0.00  0.00    +0.065 A 
ATOM     11  C   UNL     1       1.215  -0.681  -0.014  0.00  0.00    +0.072 A 
ATOM     12  C   UNL     1       0.803   0.016  -1.143  0.00  0.00    +0.065 A 
ATOM     13 CL   UNL     1       0.313  -0.849  -2.566  0.00  0.00    -0.082 Cl
ATOM     14 CL   UNL     1       2.122  -0.852   2.537  0.00  0.00    -0.082 Cl
ATOM     15 CL   UNL     1       1.147   3.823   0.013  0.00  0.00    -0.083 Cl
ENDBRANCH   1  11
BRANCH   4  16
ATOM     16  C   UNL     1      -0.966  -4.873   0.912  0.00  0.00    +0.106 C 
BRANCH  16  17
ATOM     17  C   UNL     1      -0.639  -6.368   0.923  0.00  0.00    +0.019 C 
BRANCH  17  18
ATOM     18  C   UNL     1      -1.867  -7.155   1.384  0.00  0.00    +0.002 C 
BRANCH  18  19
ATOM     19  C   UNL     1      -1.540  -8.650   1.395  0.00  0.00    +0.011 C 
BRANCH  19  20
ATOM     20  C   UNL     1      -2.768  -9.437   1.856  0.00  0.00    +0.125 C 
BRANCH  20  21
ATOM     21  C   UNL     1      -2.446 -10.909   1.867  0.00  0.00    +0.356 C 
ATOM     22  O   UNL     1      -1.337 -11.293   1.537  0.00  0.00    -0.246 OA
ATOM     23  O   UNL     1      -3.295 -11.716   2.206  0.00  0.00    -0.246 OA
ENDBRANCH  20  21
ENDBRANCH  19  20
ENDBRANCH  18  19
ENDBRANCH  17  18
ENDBRANCH  16  17
ENDBRANCH   4  16
TORSDOF 7
