REMARK  Name = ZINC39669744
REMARK  12 active torsions:
REMARK  status: ('A' for Active; 'I' for Inactive)
REMARK    1  A    between atoms: C_1  and  C_2
REMARK    2  A    between atoms: C_4  and  C_11
REMARK    3  A    between atoms: N_5  and  C_7
REMARK    4  A    between atoms: C_7  and  C_8
REMARK    5  A    between atoms: C_7  and  C_9
REMARK    6  A    between atoms: C_7  and  C_10
REMARK    7  A    between atoms: C_15  and  C_24
REMARK    8  A    between atoms: N_26  and  C_27
REMARK    9  A    between atoms: C_27  and  C_28
REMARK   10  A    between atoms: C_28  and  C_29
REMARK   11  A    between atoms: C_28  and  C_30
REMARK   12  A    between atoms: C_28  and  N_31
REMARK                            x       y       z     vdW  Elec       q    Type
REMARK                         _______ _______ _______ _____ _____    ______ ____
ROOT
ATOM      1  C   UNL     1      -1.383  -3.479  -3.212  0.00  0.00    +0.265 C 
ATOM      2  O   UNL     1      -1.664  -3.644  -4.383  0.00  0.00    -0.268 OA
ATOM      3  N   UNL     1      -1.330  -4.535  -2.376  0.00  0.00    -0.295 N 
ATOM      4  C   UNL     1      -1.136  -4.522  -0.907  0.00  0.00    +0.121 C 
ATOM      5  C   UNL     1      -2.083  -5.622  -0.378  0.00  0.00    +0.100 C 
ATOM      6  C   UNL     1      -2.288  -6.571  -1.570  0.00  0.00    -0.004 C 
ATOM      7  C   UNL     1      -1.461  -5.972  -2.718  0.00  0.00    +0.115 C 
ATOM      8  C   UNL     1      -1.781  -7.968  -1.226  0.00  0.00    -0.010 C 
ATOM      9  C   UNL     1      -2.048  -8.908  -2.406  0.00  0.00    -0.082 C 
ATOM     10  N   UNL     1      -3.487  -8.944  -2.689  0.00  0.00    +0.379 N 
ATOM     11  C   UNL     1      -3.949  -7.615  -3.109  0.00  0.00    -0.082 C 
ATOM     12  C   UNL     1      -3.762  -6.621  -1.959  0.00  0.00    -0.010 C 
ATOM     13  H   UNL     1      -3.667  -9.609  -3.426  0.00  0.00    -0.086 HD
ATOM     14  H   UNL     1      -3.986  -9.224  -1.858  0.00  0.00    -0.086 HD
ENDROOT
BRANCH   1  18
ATOM     15  C   UNL     1      -0.037   0.458  -0.312  0.00  0.00    +0.067 C 
ATOM     16  C   UNL     1      -0.515  -0.399  -1.456  0.00  0.00    +0.061 A 
ATOM     17  C   UNL     1      -0.619  -1.792  -1.452  0.00  0.00    +0.057 A 
ATOM     18  C   UNL     1      -1.098  -2.127  -2.707  0.00  0.00    +0.124 A 
ATOM     19  N   UNL     1      -1.254  -0.950  -3.382  0.00  0.00    -0.254 N 
ATOM     20  N   UNL     1      -0.912   0.030  -2.626  0.00  0.00    -0.175 NA
BRANCH  19  21
ATOM     21  C   UNL     1      -1.743  -0.824  -4.758  0.00  0.00    +0.056 C 
ATOM     22  C   UNL     1      -3.118  -1.486  -4.873  0.00  0.00    +0.036 C 
ATOM     23  C   UNL     1      -1.857   0.656  -5.125  0.00  0.00    +0.036 C 
ATOM     24  C   UNL     1      -0.764  -1.512  -5.712  0.00  0.00    +0.036 C 
ENDBRANCH  19  21
ENDBRANCH   1  18
BRANCH   5  25
ATOM     25  C   UNL     1      -1.446  -6.354   0.775  0.00  0.00    +0.218 C 
ATOM     26  O   UNL     1      -0.238  -6.405   0.868  0.00  0.00    -0.275 OA
ATOM     27  N   UNL     1      -2.219  -6.951   1.704  0.00  0.00    -0.313 N 
ATOM     28  H   UNL     1      -3.182  -6.973   1.592  0.00  0.00    +0.149 HD
BRANCH  27  29
ATOM     29  C   UNL     1      -1.604  -7.569   2.882  0.00  0.00    +0.126 C 
BRANCH  29  30
ATOM     30  C   UNL     1      -2.679  -8.281   3.704  0.00  0.00    +0.032 C 
ATOM     31  C   UNL     1      -3.349  -9.357   2.847  0.00  0.00    +0.029 C 
ATOM     32  C   UNL     1      -2.036  -8.932   4.930  0.00  0.00    +0.029 C 
BRANCH  30  33
ATOM     33  N   UNL     1      -3.688  -7.306   4.141  0.00  0.00    -0.291 NA
ATOM     34  C   UNL     1      -3.061  -6.184   4.855  0.00  0.00    +0.113 C 
ATOM     35  C   UNL     1      -4.137  -5.165   5.239  0.00  0.00    +0.175 C 
ATOM     36  O   UNL     1      -5.142  -5.813   6.024  0.00  0.00    -0.377 OA
ATOM     37  C   UNL     1      -5.774  -6.910   5.359  0.00  0.00    +0.175 C 
ATOM     38  C   UNL     1      -4.714  -7.947   4.976  0.00  0.00    +0.113 C 
ENDBRANCH  30  33
ENDBRANCH  29  30
ENDBRANCH  27  29
ENDBRANCH   5  25
TORSDOF 6
