REMARK  Name = ZINC46830733
REMARK  10 active torsions:
REMARK  status: ('A' for Active; 'I' for Inactive)
REMARK    1  A    between atoms: C_1  and  C_2
REMARK    2  A    between atoms: C_8  and  O_10
REMARK    3  A    between atoms: O_10  and  C_11
REMARK    4  A    between atoms: C_11  and  C_12
REMARK    5  A    between atoms: C_12  and  N_13
REMARK    6  A    between atoms: N_16  and  C_17
REMARK    7  A    between atoms: C_20  and  N_23
REMARK    8  A    between atoms: C_24  and  C_26
REMARK    9  A    between atoms: C_26  and  C_28
REMARK   10  A    between atoms: C_26  and  N_29
REMARK                            x       y       z     vdW  Elec       q    Type
REMARK                         _______ _______ _______ _____ _____    ______ ____
ROOT
ATOM      1  C   UNL     1      -3.311  -1.003   7.707  0.00  0.00    +0.035 A 
ATOM      2  C   UNL     1      -3.614  -2.087   8.520  0.00  0.00    +0.025 A 
ATOM      3  C   UNL     1      -4.385  -1.907   9.651  0.00  0.00    +0.025 A 
ATOM      4  C   UNL     1      -4.858  -0.642   9.975  0.00  0.00    +0.034 A 
ATOM      5  C   UNL     1      -4.555   0.442   9.161  0.00  0.00    +0.025 A 
ATOM      6  C   UNL     1      -3.779   0.263   8.034  0.00  0.00    +0.025 A 
ENDROOT
BRANCH   1  10
ATOM      7  N   UNL     1      -0.842  -0.442   5.127  0.00  0.00    -0.297 N 
ATOM      8  C   UNL     1      -1.661  -0.228   6.176  0.00  0.00    +0.304 C 
ATOM      9  O   UNL     1      -1.617   0.828   6.776  0.00  0.00    -0.253 OA
ATOM     10  N   UNL     1      -2.528  -1.186   6.559  0.00  0.00    -0.269 N 
ATOM     11  H   UNL     1      -0.876  -1.284   4.648  0.00  0.00    +0.150 HD
ATOM     12  H   UNL     1      -2.611  -2.001   6.040  0.00  0.00    +0.156 HD
BRANCH   7  13
ATOM     13  C   UNL     1       0.101   0.599   4.710  0.00  0.00    +0.133 C 
BRANCH  13  14
ATOM     14  C   UNL     1       0.906   0.106   3.506  0.00  0.00    +0.179 C 
BRANCH  14  15
ATOM     15  O   UNL     1       0.030  -0.079   2.391  0.00  0.00    -0.375 OA
BRANCH  15  22
ATOM     16  C   UNL     1      -0.065   1.510  -0.007  0.00  0.00    +0.010 C 
ATOM     17  C   UNL     1      -0.060  -0.020  -0.023  0.00  0.00    +0.015 C 
ATOM     18  C   UNL     1       0.641  -0.515  -1.290  0.00  0.00    +0.006 C 
ATOM     19  C   UNL     1       0.646  -2.045  -1.306  0.00  0.00    +0.000 C 
ATOM     20  C   UNL     1       1.391  -2.565  -0.075  0.00  0.00    +0.003 C 
ATOM     21  C   UNL     1       0.690  -2.071   1.192  0.00  0.00    +0.032 C 
ATOM     22  C   UNL     1       0.685  -0.541   1.208  0.00  0.00    +0.121 C 
ENDBRANCH  15  22
ENDBRANCH  14  15
ENDBRANCH  13  14
ENDBRANCH   7  13
ENDBRANCH   1  10
BRANCH   4  23
ATOM     23  N   UNL     1      -5.642  -0.460  11.121  0.00  0.00    -0.284 N 
ATOM     24  C   UNL     1      -5.397  -1.190  12.228  0.00  0.00    +0.242 C 
ATOM     25  O   UNL     1      -4.555  -2.062  12.205  0.00  0.00    -0.273 OA
ATOM     26  H   UNL     1      -6.360   0.192  11.120  0.00  0.00    +0.155 HD
BRANCH  24  27
ATOM     27  C   UNL     1      -6.170  -0.922  13.493  0.00  0.00    +0.191 C 
ATOM     28  C   UNL     1      -7.663  -1.134  13.234  0.00  0.00    +0.042 C 
BRANCH  27  29
ATOM     29  N   UNL     1      -5.722  -1.841  14.543  0.00  0.00    -0.240 N 
ATOM     30  C   UNL     1      -6.154  -3.096  14.753  0.00  0.00    +0.219 A 
ATOM     31  N   UNL     1      -5.509  -3.580  15.784  0.00  0.00    -0.223 NA
ATOM     32  C   UNL     1      -4.661  -2.668  16.256  0.00  0.00    +0.245 A 
ATOM     33  N   UNL     1      -4.751  -1.587  15.526  0.00  0.00    -0.158 NA
ENDBRANCH  27  29
ENDBRANCH  24  27
ENDBRANCH   4  23
TORSDOF 8
