REMARK  Name = ZINC41013895
REMARK  7 active torsions:
REMARK  status: ('A' for Active; 'I' for Inactive)
REMARK    1  A    between atoms: C_1  and  C_2
REMARK    2  A    between atoms: C_4  and  N_20
REMARK    3  A    between atoms: C_6  and  S_9
REMARK    4  A    between atoms: C_7  and  C_8
REMARK    5  A    between atoms: S_9  and  N_12
REMARK    6  A    between atoms: N_12  and  C_13
REMARK    7  A    between atoms: C_13  and  C_14
REMARK                            x       y       z     vdW  Elec       q    Type
REMARK                         _______ _______ _______ _____ _____    ______ ____
ROOT
ATOM      1  S   UNL     1       0.097  -2.803   2.489  0.00  0.00    +0.059 S 
ATOM      2  O   UNL     1       0.022  -4.169   2.107  0.00  0.00    -0.153 OA
ATOM      3  O   UNL     1       1.195  -2.274   3.219  0.00  0.00    -0.153 OA
ENDROOT
BRANCH   1   9
ATOM      4  C   UNL     1      -0.163   1.773  -0.024  0.00  0.00    +0.044 C 
ATOM      5  C   UNL     1      -0.139   0.268  -0.095  0.00  0.00    -0.044 A 
ATOM      6  C   UNL     1      -0.211  -0.367  -1.319  0.00  0.00    +0.026 A 
ATOM      7  C   UNL     1      -0.189  -1.754  -1.384  0.00  0.00    +0.027 A 
ATOM      8  C   UNL     1      -0.095  -2.499  -0.215  0.00  0.00    +0.051 A 
ATOM      9  C   UNL     1      -0.023  -1.859   1.006  0.00  0.00    +0.110 A 
ATOM     10  C   UNL     1      -0.040  -0.477   1.066  0.00  0.00    -0.021 A 
ATOM     11  C   UNL     1       0.045   0.219   2.401  0.00  0.00    +0.046 C 
BRANCH   7  12
ATOM     12  N   UNL     1      -0.262  -2.398  -2.621  0.00  0.00    -0.358 N 
ATOM     13  H   UNL     1      -0.329  -1.877  -3.436  0.00  0.00    +0.142 HD
ATOM     14  H   UNL     1      -0.247  -3.367  -2.665  0.00  0.00    +0.142 HD
ENDBRANCH   7  12
ENDBRANCH   1   9
BRANCH   1  15
ATOM     15  N   UNL     1      -1.262  -2.486   3.382  0.00  0.00    -0.184 NA
ATOM     16  H   UNL     1      -1.186  -2.028   4.234  0.00  0.00    +0.148 HD
BRANCH  15  17
ATOM     17  C   UNL     1      -2.577  -2.897   2.885  0.00  0.00    +0.163 C 
BRANCH  17  18
ATOM     18  C   UNL     1      -3.577  -2.848   4.012  0.00  0.00    +0.078 A 
ATOM     19  C   UNL     1      -4.434  -1.781   4.302  0.00  0.00    +0.045 A 
ATOM     20  C   UNL     1      -5.173  -2.123   5.382  0.00  0.00    +0.105 A 
ATOM     21  N   UNL     1      -4.797  -3.362   5.763  0.00  0.00    -0.284 N 
ATOM     22  H   UNL     1      -5.158  -3.864   6.511  0.00  0.00    +0.188 HD
ATOM     23  N   UNL     1      -3.798  -3.798   4.883  0.00  0.00    -0.178 NA
ENDBRANCH  17  18
ENDBRANCH  15  17
ENDBRANCH   1  15
TORSDOF 5
