REMARK  Name = ZINC16310518
REMARK  4 active torsions:
REMARK  status: ('A' for Active; 'I' for Inactive)
REMARK    1  A    between atoms: C_3  and  C_8
REMARK    2  A    between atoms: N_10  and  N_11
REMARK    3  A    between atoms: C_12  and  C_13
REMARK    4  A    between atoms: C_17  and  N_19
REMARK                            x       y       z     vdW  Elec       q    Type
REMARK                         _______ _______ _______ _____ _____    ______ ____
ROOT
ATOM      1  N   UNL     1      -1.316   3.413   0.027  0.00  0.00    -0.187 NA
ATOM      2  C   UNL     1      -1.302   2.116   0.020  0.00  0.00    +0.138 C 
ENDROOT
BRANCH   2   3
ATOM      3  C   UNL     1      -0.017   1.393   0.010  0.00  0.00    -0.003 A 
ATOM      4  C   UNL     1       1.187   2.102   0.002  0.00  0.00    +0.011 A 
ATOM      5  C   UNL     1       2.385   1.419  -0.013  0.00  0.00    +0.023 A 
ATOM      6  C   UNL     1       2.397   0.034  -0.020  0.00  0.00    +0.071 A 
ATOM      7  C   UNL     1       1.207  -0.674  -0.013  0.00  0.00    +0.145 A 
ATOM      8  C   UNL     1       0.002  -0.004   0.002  0.00  0.00    +0.043 A 
ATOM      9 CL   UNL     1       3.910  -0.817  -0.039  0.00  0.00    -0.081 Cl
BRANCH   7  10
ATOM     10  N   UNL     1       1.229  -2.154  -0.021  0.00  0.00    +0.058 N 
ATOM     11  O   UNL     1       0.184  -2.779  -0.015  0.00  0.00    -0.126 OA
ATOM     12  O   UNL     1       2.293  -2.748  -0.035  0.00  0.00    -0.126 OA
ENDBRANCH   7  10
ENDBRANCH   2   3
BRANCH   1  15
ATOM     13  C   UNL     1      -2.552   5.448   0.044  0.00  0.00    +0.263 C 
ATOM     14  O   UNL     1      -1.506   6.068   0.042  0.00  0.00    -0.268 OA
ATOM     15  N   UNL     1      -2.537   4.101   0.036  0.00  0.00    -0.203 N 
ATOM     16  H   UNL     1      -3.372   3.606   0.038  0.00  0.00    +0.178 HD
BRANCH  13  19
ATOM     17  C   UNL     1      -6.242   6.147   0.065  0.00  0.00    +0.002 A 
ATOM     18  C   UNL     1      -5.043   5.465   0.050  0.00  0.00    +0.013 A 
ATOM     19  C   UNL     1      -3.840   6.173   0.054  0.00  0.00    +0.039 A 
ATOM     20  C   UNL     1      -3.859   7.569   0.061  0.00  0.00    +0.027 A 
ATOM     21  C   UNL     1      -5.065   8.239   0.071  0.00  0.00    +0.014 A 
ATOM     22  C   UNL     1      -6.254   7.530   0.073  0.00  0.00    +0.014 A 
ATOM     23  I   UNL     1      -5.097  10.334   0.082  0.00  0.00    -0.044 I 
ENDBRANCH  13  19
ENDBRANCH   1  15
TORSDOF 4
