REMARK  Name = ZINC16082891
REMARK  7 active torsions:
REMARK  status: ('A' for Active; 'I' for Inactive)
REMARK    1  A    between atoms: C_1  and  C_2
REMARK    2  A    between atoms: C_2  and  C_3
REMARK    3  A    between atoms: C_2  and  C_4
REMARK    4  A    between atoms: C_2  and  O_5
REMARK    5  A    between atoms: O_5  and  C_6
REMARK    6  A    between atoms: C_10  and  C_17
REMARK    7  A    between atoms: C_12  and  C_15
REMARK                            x       y       z     vdW  Elec       q    Type
REMARK                         _______ _______ _______ _____ _____    ______ ____
ROOT
ATOM      1  C   UNL     1       1.479   3.047   2.284  0.00  0.00    +0.403 C 
ATOM      2  O   UNL     1       0.947   2.051   2.732  0.00  0.00    -0.226 OA
ATOM      3  N   UNL     1       1.317   3.373   0.986  0.00  0.00    -0.266 N 
ATOM      4  C   UNL     1       0.525   2.616   0.005  0.00  0.00    +0.120 C 
ATOM      5  C   UNL     1       0.650   3.348  -1.347  0.00  0.00    +0.052 C 
ATOM      6  C   UNL     1       1.962   4.160  -1.183  0.00  0.00    +0.128 C 
ATOM      7  C   UNL     1       1.903   4.548   0.315  0.00  0.00    +0.126 C 
ENDROOT
BRANCH   5   8
ATOM      8  C   UNL     1       0.772   2.361  -2.479  0.00  0.00    -0.042 A 
ATOM      9  C   UNL     1       0.256   1.085  -2.341  0.00  0.00    +0.007 A 
ATOM     10  C   UNL     1       0.367   0.179  -3.378  0.00  0.00    +0.038 A 
ATOM     11  C   UNL     1       0.996   0.548  -4.556  0.00  0.00    +0.123 A 
ATOM     12  C   UNL     1       1.512   1.826  -4.692  0.00  0.00    +0.038 A 
ATOM     13  C   UNL     1       1.399   2.731  -3.654  0.00  0.00    +0.007 A 
ATOM     14  F   UNL     1       1.105  -0.337  -5.570  0.00  0.00    -0.205 F 
ENDBRANCH   5   8
BRANCH   6  15
ATOM     15  C   UNL     1       3.167   3.303  -1.472  0.00  0.00    +0.361 C 
ATOM     16  O   UNL     1       3.336   2.273  -0.863  0.00  0.00    -0.246 OA
ATOM     17  O   UNL     1       4.053   3.683  -2.405  0.00  0.00    -0.246 OA
ENDBRANCH   6  15
BRANCH   1  18
ATOM     18  O   UNL     1       2.232   3.825   3.084  0.00  0.00    -0.445 OA
BRANCH  18  20
ATOM     19  C   UNL     1       3.000   2.024   4.531  0.00  0.00    +0.055 C 
ATOM     20  C   UNL     1       2.363   3.413   4.470  0.00  0.00    +0.107 C 
ATOM     21  C   UNL     1       3.248   4.413   5.218  0.00  0.00    +0.055 C 
ATOM     22  C   UNL     1       0.980   3.369   5.122  0.00  0.00    +0.055 C 
ENDBRANCH  18  20
ENDBRANCH   1  18
TORSDOF 4
