REMARK  Name = ZINC04687182
REMARK  8 active torsions:
REMARK  status: ('A' for Active; 'I' for Inactive)
REMARK    1  A    between atoms: CG_4  and  CB_7
REMARK    2  A    between atoms: CB_7  and  CA_8
REMARK    3  A    between atoms: CA_8  and  C_10
REMARK    4  A    between atoms: CA_8  and  N_12
REMARK    5  A    between atoms: C_13  and  C_15
REMARK    6  A    between atoms: C_18  and  C_21
REMARK    7  A    between atoms: C_22  and  C_23
REMARK    8  A    between atoms: C_23  and  O_29
REMARK                            x       y       z     vdW  Elec       q    Type
REMARK                         _______ _______ _______ _____ _____    ______ ____
ROOT
ATOM      1  C   UNK A   0       4.660  -0.384  -5.639  0.00  0.00    +0.037 A 
ATOM      2  C   UNK A   0       5.271   0.474  -4.720  0.00  0.00    +0.014 A 
ATOM      3  C   UNK A   0       4.593   0.865  -3.588  0.00  0.00    +0.017 A 
ATOM      4  C   UNK A   0       3.294   0.404  -3.357  0.00  0.00    +0.025 A 
ATOM      5  C   UNK A   0       2.686  -0.458  -4.273  0.00  0.00    +0.017 A 
ATOM      6  C   UNK A   0       3.361  -0.845  -5.407  0.00  0.00    +0.014 A 
ENDROOT
BRANCH   1   8
ATOM      7  N   PHE A   1       4.798  -1.630  -7.740  0.00  0.00    -0.298 N 
ATOM      8  C   UNK A   0       5.387  -0.803  -6.854  0.00  0.00    +0.245 C 
ATOM      9  O   UNK A   0       6.517  -0.401  -7.055  0.00  0.00    -0.270 OA
ATOM     10  H   PHE A   1       3.897  -1.951  -7.579  0.00  0.00    +0.150 HD
BRANCH   7  11
ATOM     11  CA  PHE A   1       5.519  -2.046  -8.945  0.00  0.00    +0.191 C 
BRANCH  11  12
ATOM     12  C   PHE A   1       5.343  -1.004 -10.020  0.00  0.00    +0.376 C 
ATOM     13  O   PHE A   1       4.683  -0.016  -9.802  0.00  0.00    -0.244 OA
ATOM     14  OXT PHE A   1       5.920  -1.174 -11.220  0.00  0.00    -0.244 OA
ENDBRANCH  11  12
BRANCH  11  15
ATOM     15  CB  PHE A   1       4.964  -3.384  -9.436  0.00  0.00    +0.069 C 
BRANCH  15  19
ATOM     16  CZ  PHE A   1       5.774  -6.413  -6.535  0.00  0.00    +0.000 A 
ATOM     17  CE1 PHE A   1       4.600  -5.687  -6.466  0.00  0.00    +0.000 A 
ATOM     18  CD1 PHE A   1       4.338  -4.707  -7.405  0.00  0.00    +0.004 A 
ATOM     19  CG  PHE A   1       5.250  -4.452  -8.412  0.00  0.00    -0.045 A 
ATOM     20  CD2 PHE A   1       6.422  -5.182  -8.484  0.00  0.00    +0.004 A 
ATOM     21  CE2 PHE A   1       6.686  -6.159  -7.542  0.00  0.00    +0.000 A 
ENDBRANCH  15  19
ENDBRANCH  11  15
ENDBRANCH   7  11
ENDBRANCH   1   8
BRANCH   4  22
ATOM     22  C   UNK A   0       2.589   0.811  -2.179  0.00  0.00    -0.063 C 
ATOM     23  C   UNK A   0       2.011   1.144  -1.213  0.00  0.00    -0.062 C 
BRANCH  23  24
ATOM     24  C   UNK A   0       1.286   1.562  -0.002  0.00  0.00    +0.127 C 
ATOM     25  C   UNK A   0       2.064   1.114   1.238  0.00  0.00    +0.048 C 
ATOM     26  C   UNK A   0       3.453   1.755   1.228  0.00  0.00    +0.004 C 
ATOM     27  C   UNK A   0       3.311   3.279   1.237  0.00  0.00    +0.000 C 
ATOM     28  C   UNK A   0       2.534   3.726  -0.002  0.00  0.00    +0.004 C 
ATOM     29  C   UNK A   0       1.145   3.085   0.008  0.00  0.00    +0.048 C 
BRANCH  24  30
ATOM     30  O   UNK A   0      -0.011   0.963   0.007  0.00  0.00    -0.377 OA
ATOM     31  H   UNK A   0       0.002  -0.004   0.002  0.00  0.00    +0.211 HD
ENDBRANCH  24  30
ENDBRANCH  23  24
ENDBRANCH   4  22
TORSDOF 8
