REMARK  Name = ZINC00896287
REMARK  4 active torsions:
REMARK  status: ('A' for Active; 'I' for Inactive)
REMARK    1  A    between atoms: C_5  and  N_7
REMARK    2  A    between atoms: C_8  and  C_10
REMARK    3  A    between atoms: N_15  and  C_17
REMARK    4  A    between atoms: C_21  and  N_23
REMARK                            x       y       z     vdW  Elec       q    Type
REMARK                         _______ _______ _______ _____ _____    ______ ____
ROOT
ATOM      1  C   UNL     1       3.625   5.999  -0.216  0.00  0.00    +0.102 C 
ATOM      2  C   UNL     1       4.317   5.718  -1.570  0.00  0.00    +0.110 C 
ATOM      3  C   UNL     1       3.825   6.825  -2.476  0.00  0.00    +0.221 C 
ATOM      4  O   UNL     1       3.903   6.818  -3.686  0.00  0.00    -0.275 OA
ATOM      5  N   UNL     1       3.289   7.816  -1.744  0.00  0.00    -0.271 N 
ATOM      6  C   UNL     1       3.359   7.518  -0.309  0.00  0.00    +0.127 C 
ENDROOT
BRANCH   5   7
ATOM      7  C   UNL     1       2.734   8.983  -2.282  0.00  0.00    +0.038 A 
ATOM      8  C   UNL     1       2.621   9.130  -3.658  0.00  0.00    +0.023 A 
ATOM      9  C   UNL     1       2.068  10.280  -4.185  0.00  0.00    +0.004 A 
ATOM     10  C   UNL     1       1.638  11.291  -3.345  0.00  0.00    +0.033 A 
ATOM     11  C   UNL     1       1.755  11.150  -1.974  0.00  0.00    +0.128 A 
ATOM     12  C   UNL     1       2.301  10.000  -1.440  0.00  0.00    +0.056 A 
BRANCH  11  13
ATOM     13  N   UNL     1       1.293  12.234  -1.078  0.00  0.00    +0.056 N 
ATOM     14  O   UNL     1       1.395  12.111   0.129  0.00  0.00    -0.126 OA
ATOM     15  O   UNL     1       0.810  13.249  -1.548  0.00  0.00    -0.126 OA
ENDBRANCH  11  13
ENDBRANCH   5   7
BRANCH   1  17
ATOM     16  N   UNL     1       2.356   3.886  -0.009  0.00  0.00    -0.284 N 
ATOM     17  C   UNL     1       2.334   5.231  -0.101  0.00  0.00    +0.222 C 
ATOM     18  O   UNL     1       1.275   5.822  -0.091  0.00  0.00    -0.275 OA
ATOM     19  H   UNL     1       3.203   3.419   0.065  0.00  0.00    +0.155 HD
BRANCH  16  24
ATOM     20  C   UNL     1      -1.156   2.989  -0.625  0.00  0.00    +0.002 A 
ATOM     21  C   UNL     1      -1.213   1.736  -0.043  0.00  0.00    +0.001 A 
ATOM     22  C   UNL     1      -0.090   1.198   0.559  0.00  0.00    +0.017 A 
ATOM     23  C   UNL     1       1.096   1.908   0.570  0.00  0.00    +0.039 A 
ATOM     24  C   UNL     1       1.157   3.165  -0.019  0.00  0.00    +0.047 A 
ATOM     25  C   UNL     1       0.025   3.703  -0.617  0.00  0.00    +0.024 A 
ATOM     26 BR   UNL     1       2.633   1.169   1.387  0.00  0.00    -0.048 Br
ENDBRANCH  16  24
ENDBRANCH   1  17
TORSDOF 4
