REMARK  Name = ZINC00244214
REMARK  5 active torsions:
REMARK  status: ('A' for Active; 'I' for Inactive)
REMARK    1  A    between atoms: C_2  and  C_3
REMARK    2  A    between atoms: C_3  and  N_4
REMARK    3  A    between atoms: C_8  and  N_15
REMARK    4  A    between atoms: C_12  and  C_13
REMARK    5  A    between atoms: C_13  and  O_14
REMARK                            x       y       z     vdW  Elec       q    Type
REMARK                         _______ _______ _______ _____ _____    ______ ____
ROOT
ATOM      1  N   UNL     1      -2.564   3.541   0.045  0.00  0.00    -0.322 N 
ATOM      2  C   UNL     1      -1.236   3.164   0.030  0.00  0.00    +0.069 A 
ATOM      3  C   UNL     1      -0.034   3.859   0.022  0.00  0.00    +0.030 A 
ATOM      4  C   UNL     1       1.156   3.164   0.007  0.00  0.00    +0.035 A 
ATOM      5  C   UNL     1       1.160   1.776   0.001  0.00  0.00    +0.128 A 
ATOM      6  C   UNL     1      -0.013   1.076   0.008  0.00  0.00    +0.062 A 
ATOM      7  C   UNL     1      -1.231   1.759   0.017  0.00  0.00    +0.092 A 
ATOM      8  N   UNL     1      -2.529   1.359   0.033  0.00  0.00    -0.230 NA
ATOM      9  C   UNL     1      -3.308   2.402   0.046  0.00  0.00    +0.137 A 
ENDROOT
BRANCH   5  10
ATOM     10  N   UNL     1       2.449   1.047  -0.016  0.00  0.00    +0.056 N 
ATOM     11  O   UNL     1       2.459  -0.171  -0.022  0.00  0.00    -0.126 OA
ATOM     12  O   UNL     1       3.498   1.665  -0.022  0.00  0.00    -0.126 OA
ENDBRANCH   5  10
BRANCH   1  13
ATOM     13  C   UNL     1      -3.078   4.913   0.057  0.00  0.00    +0.150 C 
BRANCH  13  15
ATOM     14  C   UNL     1      -4.433   5.846  -1.747  0.00  0.00    +0.005 C 
ATOM     15  C   UNL     1      -3.267   5.391  -1.359  0.00  0.00    -0.013 C 
ENDBRANCH  13  15
ENDBRANCH   1  13
BRANCH   9  16
ATOM     16  C   UNL     1      -4.814   2.354   0.061  0.00  0.00    +0.230 C 
BRANCH  16  17
ATOM     17  O   UNL     1      -5.303   2.346  -1.282  0.00  0.00    -0.387 OA
ATOM     18  H   UNL     1      -6.268   2.316  -1.348  0.00  0.00    +0.210 HD
ENDBRANCH  16  17
ENDBRANCH   9  16
TORSDOF 5
