REMARK  Name = ZINC08572643
REMARK  4 active torsions:
REMARK  status: ('A' for Active; 'I' for Inactive)
REMARK    1  A    between atoms: C_4  and  N_22
REMARK    2  A    between atoms: C_5  and  C_7
REMARK    3  A    between atoms: N_9  and  N_10
REMARK    4  A    between atoms: C_11  and  C_12
REMARK                            x       y       z     vdW  Elec       q    Type
REMARK                         _______ _______ _______ _____ _____    ______ ____
ROOT
ATOM      1  C   UNL     1      -5.002   0.937   0.520  0.00  0.00    +0.265 C 
ATOM      2  O   UNL     1      -6.026   1.558   0.304  0.00  0.00    -0.268 OA
ATOM      3  N   UNL     1      -4.005   1.506   1.225  0.00  0.00    -0.203 N 
ATOM      4  H   UNL     1      -3.222   0.986   1.465  0.00  0.00    +0.178 HD
ENDROOT
BRANCH   1   9
ATOM      5  C   UNL     1      -3.523  -2.418  -0.276  0.00  0.00    +0.001 A 
ATOM      6  C   UNL     1      -4.570  -3.026  -0.950  0.00  0.00    +0.002 A 
ATOM      7  C   UNL     1      -5.758  -2.353  -1.150  0.00  0.00    +0.023 A 
ATOM      8  C   UNL     1      -5.911  -1.057  -0.673  0.00  0.00    +0.037 A 
ATOM      9  C   UNL     1      -4.853  -0.438   0.010  0.00  0.00    +0.059 A 
ATOM     10  C   UNL     1      -3.655  -1.132   0.199  0.00  0.00    +0.015 A 
BRANCH   8  11
ATOM     11  N   UNL     1      -7.106  -0.377  -0.873  0.00  0.00    -0.357 N 
ATOM     12  H   UNL     1      -7.118   0.593  -0.869  0.00  0.00    +0.142 HD
ATOM     13  H   UNL     1      -7.928  -0.872  -1.017  0.00  0.00    +0.142 HD
ENDBRANCH   8  11
ENDBRANCH   1   9
BRANCH   3  14
ATOM     14  N   UNL     1      -4.098   2.850   1.611  0.00  0.00    -0.187 NA
ATOM     15  C   UNL     1      -3.086   3.434   2.177  0.00  0.00    +0.139 C 
BRANCH  15  16
ATOM     16  C   UNL     1      -1.723   2.917   1.964  0.00  0.00    +0.012 A 
ATOM     17  C   UNL     1      -1.447   2.100   0.864  0.00  0.00    +0.060 A 
ATOM     18  C   UNL     1      -0.167   1.617   0.669  0.00  0.00    +0.167 A 
ATOM     19  C   UNL     1       0.848   1.945   1.569  0.00  0.00    +0.167 A 
ATOM     20  C   UNL     1       0.574   2.755   2.661  0.00  0.00    +0.065 A 
ATOM     21  C   UNL     1      -0.703   3.236   2.866  0.00  0.00    +0.030 A 
ATOM     22 BR   UNL     1      -1.072   4.334   4.361  0.00  0.00    -0.050 Br
ATOM     23  O   UNL     1       2.004   1.349   1.155  0.00  0.00    -0.453 OA
ATOM     24  C   UNL     1       1.784   0.993  -0.222  0.00  0.00    +0.466 C 
ATOM     25  O   UNL     1       0.357   0.817  -0.306  0.00  0.00    -0.453 OA
ENDBRANCH  15  16
ENDBRANCH   3  14
TORSDOF 4
