REMARK  Name = ZINC19499331
REMARK  10 active torsions:
REMARK  status: ('A' for Active; 'I' for Inactive)
REMARK    1  A    between atoms: C_1  and  C_2
REMARK    2  A    between atoms: C_2  and  C_3
REMARK    3  A    between atoms: N_5  and  C_6
REMARK    4  A    between atoms: C_9  and  C_12
REMARK    5  A    between atoms: C_12  and  C_14
REMARK    6  A    between atoms: C_12  and  O_34
REMARK    7  A    between atoms: C_14  and  N_15
REMARK    8  A    between atoms: C_22  and  O_33
REMARK    9  A    between atoms: C_27  and  O_31
REMARK   10  A    between atoms: O_31  and  C_32
REMARK                            x       y       z     vdW  Elec       q    Type
REMARK                         _______ _______ _______ _____ _____    ______ ____
ROOT
ATOM      1  N   UNL     1      -6.630   4.881  -1.217  0.00  0.00    +0.382 N 
ATOM      2  C   UNL     1      -7.705   4.064  -0.641  0.00  0.00    -0.075 C 
ATOM      3  C   UNL     1      -8.965   4.918  -0.477  0.00  0.00    +0.029 C 
ATOM      4  C   UNL     1      -9.385   5.468  -1.841  0.00  0.00    +0.110 C 
ATOM      5  C   UNL     1      -8.230   6.270  -2.445  0.00  0.00    +0.029 C 
ATOM      6  C   UNL     1      -6.994   5.375  -2.551  0.00  0.00    -0.075 C 
ATOM      7  C   UNL     1     -10.607   6.377  -1.673  0.00  0.00    +0.084 C 
ATOM      8  C   UNL     1     -11.706   5.578  -0.967  0.00  0.00    +0.152 C 
ATOM      9  C   UNL     1     -11.869   4.237  -1.636  0.00  0.00    +0.023 A 
ATOM     10  C   UNL     1     -13.033   3.519  -1.413  0.00  0.00    +0.013 A 
ATOM     11  C   UNL     1     -13.218   2.287  -2.006  0.00  0.00    +0.046 A 
ATOM     12  C   UNL     1     -12.233   1.760  -2.831  0.00  0.00    +0.124 A 
ATOM     13  C   UNL     1     -11.069   2.474  -3.055  0.00  0.00    +0.091 A 
ATOM     14  C   UNL     1     -10.885   3.717  -2.459  0.00  0.00    +0.130 A 
ATOM     15  O   UNL     1      -9.732   4.392  -2.711  0.00  0.00    -0.485 OA
ATOM     16  H   UNL     1      -6.486   5.755  -0.564  0.00  0.00    -0.082 HD
ENDROOT
BRANCH  12  17
ATOM     17  O   UNL     1     -12.411   0.546  -3.415  0.00  0.00    -0.495 OA
ATOM     18  C   UNL     1     -13.637  -0.134  -3.138  0.00  0.00    +0.277 C 
ENDBRANCH  12  17
BRANCH   8  19
ATOM     19  O   UNL     1     -12.938   6.298  -1.038  0.00  0.00    -0.387 OA
ATOM     20  H   UNL     1     -13.848   5.879  -0.583  0.00  0.00    +0.210 HD
ENDBRANCH   8  19
BRANCH   1  21
ATOM     21  C   UNL     1      -5.366   4.134  -1.258  0.00  0.00    -0.042 C 
BRANCH  21  22
ATOM     22  C   UNL     1      -4.892   3.852   0.169  0.00  0.00    +0.128 C 
BRANCH  22  26
ATOM     23  C   UNL     1      -1.215   1.678   0.048  0.00  0.00    +0.033 A 
ATOM     24  C   UNL     1      -1.206   3.064  -0.030  0.00  0.00    +0.023 A 
ATOM     25  C   UNL     1      -2.397   3.764   0.003  0.00  0.00    +0.008 A 
ATOM     26  C   UNL     1      -3.596   3.086   0.126  0.00  0.00    -0.021 A 
ATOM     27  C   UNL     1      -3.607   1.705   0.210  0.00  0.00    +0.008 A 
ATOM     28  C   UNL     1      -2.421   1.000   0.171  0.00  0.00    +0.023 A 
BRANCH  23  31
ATOM     29  C   UNL     1       0.041  -0.237  -0.598  0.00  0.00    +0.217 C 
ATOM     30  O   UNL     1      -0.972  -0.739  -1.038  0.00  0.00    -0.275 OA
ATOM     31  N   UNL     1      -0.011   0.966   0.007  0.00  0.00    -0.286 N 
ATOM     32  H   UNL     1       0.893   1.388   0.470  0.00  0.00    +0.155 HD
BRANCH  29  34
ATOM     33  C   UNL     1       1.138  -2.292  -1.448  0.00  0.00    +0.013 C 
ATOM     34  C   UNL     1       1.357  -0.960  -0.728  0.00  0.00    +0.093 C 
ENDBRANCH  29  34
ENDBRANCH  23  31
ENDBRANCH  22  26
BRANCH  22  35
ATOM     35  O   UNL     1      -4.692   5.089   0.857  0.00  0.00    -0.389 OA
ATOM     36  H   UNL     1      -5.532   5.787   0.989  0.00  0.00    +0.210 HD
ENDBRANCH  22  35
ENDBRANCH  21  22
ENDBRANCH   1  21
TORSDOF 8
