REMARK  Name = ZINC35736145
REMARK  5 active torsions:
REMARK  status: ('A' for Active; 'I' for Inactive)
REMARK    1  A    between atoms: C_1  and  C_2
REMARK    2  A    between atoms: C_2  and  C_4
REMARK    3  A    between atoms: C_2  and  N_10
REMARK    4  A    between atoms: N_10  and  C_11
REMARK    5  A    between atoms: C_16  and  N_17
REMARK                            x       y       z     vdW  Elec       q    Type
REMARK                         _______ _______ _______ _____ _____    ______ ____
ROOT
ATOM      1  C   UNL     1       0.105  -0.412   2.498  0.00  0.00    +0.060 A 
ATOM      2  C   UNL     1      -1.217  -0.007   2.598  0.00  0.00    +0.048 A 
ATOM      3  C   UNL     1      -1.980  -0.382   3.700  0.00  0.00    +0.039 A 
ATOM      4  C   UNL     1      -1.396  -1.163   4.691  0.00  0.00    -0.015 A 
ATOM      5  C   UNL     1      -0.082  -1.565   4.592  0.00  0.00    +0.040 A 
ATOM      6  C   UNL     1       0.673  -1.196   3.494  0.00  0.00    +0.147 A 
ATOM      7  C   UNL     1      -2.465  -1.395   5.734  0.00  0.00    +0.133 C 
ATOM      8  C   UNL     1      -3.672  -0.658   5.195  0.00  0.00    +0.222 C 
ATOM      9  O   UNL     1      -4.763  -0.582   5.720  0.00  0.00    -0.275 OA
ATOM     10  N   UNL     1      -3.309  -0.105   4.025  0.00  0.00    -0.285 N 
ATOM     11  H   UNL     1      -3.902   0.425   3.471  0.00  0.00    +0.155 HD
ENDROOT
BRANCH   6  12
ATOM     12  N   UNL     1       2.084  -1.632   3.383  0.00  0.00    +0.058 N 
ATOM     13  O   UNL     1       2.539  -1.938   2.305  0.00  0.00    -0.126 OA
ATOM     14  O   UNL     1       2.781  -1.682   4.370  0.00  0.00    -0.126 OA
ENDBRANCH   6  12
BRANCH   1  15
ATOM     15  N   UNL     1       0.867  -0.034   1.390  0.00  0.00    -0.337 N 
ATOM     16  H   UNL     1       1.814  -0.242   1.359  0.00  0.00    +0.146 HD
BRANCH  15  18
ATOM     17  C   UNL     1       0.203   2.176   0.580  0.00  0.00    +0.030 C 
ATOM     18  C   UNL     1       0.236   0.677   0.275  0.00  0.00    +0.096 C 
BRANCH  18  19
ATOM     19  C   UNL     1       1.039   0.434  -1.004  0.00  0.00    +0.138 C 
ATOM     20  C   UNL     1       0.339   1.102  -2.214  0.00  0.00    +0.035 C 
ATOM     21  C   UNL     1       1.541   1.307  -3.175  0.00  0.00    +0.031 C 
ATOM     22  C   UNL     1       2.698   1.596  -2.194  0.00  0.00    +0.160 C 
ATOM     23  O   UNL     1       2.324   1.069  -0.914  0.00  0.00    -0.375 OA
ENDBRANCH  18  19
ENDBRANCH  15  18
ENDBRANCH   1  15
TORSDOF 4
