REMARK  Name = ZINC23357943
REMARK  14 active torsions:
REMARK  status: ('A' for Active; 'I' for Inactive)
REMARK    1  A    between atoms: C_1  and  C_2
REMARK    2  A    between atoms: C_5  and  N_9
REMARK    3  A    between atoms: C_10  and  C_12
REMARK    4  A    between atoms: C_12  and  N_13
REMARK    5  A    between atoms: N_13  and  C_14
REMARK    6  A    between atoms: N_13  and  C_18
REMARK    7  A    between atoms: C_14  and  C_15
REMARK    8  A    between atoms: C_15  and  C_16
REMARK    9  A    between atoms: C_15  and  C_17
REMARK   10  A    between atoms: C_19  and  N_31
REMARK   11  A    between atoms: N_20  and  C_27
REMARK   12  A    between atoms: C_27  and  C_28
REMARK   13  A    between atoms: C_28  and  C_29
REMARK   14  A    between atoms: C_28  and  C_30
REMARK                            x       y       z     vdW  Elec       q    Type
REMARK                         _______ _______ _______ _____ _____    ______ ____
ROOT
ATOM      1  N   UNL     1      -5.996   2.662   0.154  0.00  0.00    -0.314 N 
ENDROOT
BRANCH   1   2
ATOM      2  C   UNL     1      -7.251   3.278   0.366  0.00  0.00    +0.134 A 
ATOM      3  C   UNL     1      -8.045   2.895   1.413  0.00  0.00    +0.127 A 
ATOM      4  N   UNL     1      -9.262   3.510   1.598  0.00  0.00    -0.280 N 
ATOM      5  C   UNL     1      -9.668   4.481   0.758  0.00  0.00    +0.331 A 
ATOM      6  O   UNL     1     -10.746   5.014   0.937  0.00  0.00    -0.246 OA
ATOM      7  N   UNL     1      -8.901   4.870  -0.276  0.00  0.00    -0.273 N 
ATOM      8  H   UNL     1      -9.252   5.660  -0.955  0.00  0.00    +0.173 HD
ATOM      9  C   UNL     1      -7.699   4.298  -0.492  0.00  0.00    +0.277 A 
ATOM     10  O   UNL     1      -7.007   4.661  -1.428  0.00  0.00    -0.266 OA
BRANCH   3  11
ATOM     11  N   UNL     1      -7.630   1.903   2.272  0.00  0.00    -0.343 N 
ATOM     12  H   UNL     1      -8.273   1.599   3.112  0.00  0.00    +0.144 HD
ATOM     13  H   UNL     1      -6.657   1.414   2.119  0.00  0.00    +0.144 HD
ENDBRANCH   3  11
BRANCH   4  14
ATOM     14  C   UNL     1     -10.120   3.108   2.715  0.00  0.00    +0.131 C 
BRANCH  14  15
ATOM     15  C   UNL     1      -9.789   3.958   3.943  0.00  0.00    +0.003 C 
ATOM     16  C   UNL     1     -10.148   5.419   3.664  0.00  0.00    +0.009 C 
ATOM     17  C   UNL     1     -10.595   3.455   5.143  0.00  0.00    +0.009 C 
ENDBRANCH  14  15
ENDBRANCH   4  14
ENDBRANCH   1   2
BRANCH   1  18
ATOM     18  C   UNL     1      -4.901   3.628   0.310  0.00  0.00    +0.201 C 
BRANCH  18  20
ATOM     19  N   UNL     1      -3.950   5.026   2.117  0.00  0.00    -0.284 N 
ATOM     20  C   UNL     1      -4.804   4.048   1.755  0.00  0.00    +0.235 C 
ATOM     21  O   UNL     1      -5.495   3.506   2.591  0.00  0.00    -0.274 OA
ATOM     22  H   UNL     1      -3.388   5.577   1.349  0.00  0.00    +0.155 HD
BRANCH  19  27
ATOM     23  C   UNL     1      -3.249   6.298   7.602  0.00  0.00    +0.047 C 
ATOM     24  C   UNL     1      -3.436   5.960   6.146  0.00  0.00    -0.015 A 
ATOM     25  C   UNL     1      -2.363   6.034   5.277  0.00  0.00    +0.008 A 
ATOM     26  C   UNL     1      -2.532   5.730   3.940  0.00  0.00    +0.024 A 
ATOM     27  C   UNL     1      -3.779   5.339   3.469  0.00  0.00    +0.036 A 
ATOM     28  C   UNL     1      -4.856   5.266   4.342  0.00  0.00    +0.062 A 
ATOM     29  C   UNL     1      -4.683   5.577   5.679  0.00  0.00    +0.128 A 
ATOM     30  F   UNL     1      -5.730   5.507   6.530  0.00  0.00    -0.205 F 
ENDBRANCH  19  27
ENDBRANCH  18  20
ENDBRANCH   1  18
BRANCH   1  31
ATOM     31  C   UNL     1      -5.943   2.016  -1.165  0.00  0.00    +0.109 C 
BRANCH  31  32
ATOM     32  C   UNL     1      -4.830   0.966  -1.174  0.00  0.00    +0.000 C 
ATOM     33  C   UNL     1      -5.160  -0.136  -0.166  0.00  0.00    +0.009 C 
ATOM     34  C   UNL     1      -4.714   0.359  -2.574  0.00  0.00    +0.009 C 
ENDBRANCH  31  32
ENDBRANCH   1  31
TORSDOF 9
