REMARK  Name = ZINC49392530
REMARK  5 active torsions:
REMARK  status: ('A' for Active; 'I' for Inactive)
REMARK    1  A    between atoms: C_1  and  C_2
REMARK    2  A    between atoms: C_4  and  C_7
REMARK    3  A    between atoms: C_7  and  N_13
REMARK    4  A    between atoms: N_13  and  C_14
REMARK    5  A    between atoms: C_14  and  C_15
REMARK                            x       y       z     vdW  Elec       q    Type
REMARK                         _______ _______ _______ _____ _____    ______ ____
ROOT
ATOM      1  C   UNL     1      -1.588  -3.254  -0.008  0.00  0.00    -0.003 C 
ATOM      2  C   UNL     1      -2.389  -3.276  -1.311  0.00  0.00    -0.005 C 
ATOM      3  C   UNL     1      -3.328  -4.483  -1.313  0.00  0.00    -0.001 C 
ATOM      4  C   UNL     1      -2.506  -5.769  -1.198  0.00  0.00    -0.000 C 
ATOM      5  C   UNL     1      -1.705  -5.747   0.105  0.00  0.00    -0.001 C 
ATOM      6  C   UNL     1      -0.766  -4.540   0.107  0.00  0.00    -0.005 C 
ENDROOT
BRANCH   1  10
ATOM      7  C   UNL     1      -0.018   1.503   0.010  0.00  0.00    +0.112 C 
ATOM      8  C   UNL     1       0.002  -0.004   0.002  0.00  0.00    +0.224 A 
ATOM      9  N   UNL     1      -1.044  -0.783   0.003  0.00  0.00    -0.198 NA
ATOM     10  C   UNL     1      -0.663  -2.065  -0.006  0.00  0.00    +0.161 A 
ATOM     11  N   UNL     1       0.638  -2.118  -0.012  0.00  0.00    -0.063 NA
ATOM     12  O   UNL     1       1.097  -0.774  -0.013  0.00  0.00    -0.338 OA
ENDBRANCH   1  10
BRANCH   1  13
ATOM     13  N   UNL     1      -2.510  -3.159   1.132  0.00  0.00    +0.391 N 
ATOM     14  H   UNL     1      -3.129  -3.956   1.131  0.00  0.00    -0.084 HD
ATOM     15  H   UNL     1      -1.982  -3.145   1.991  0.00  0.00    -0.084 HD
BRANCH  13  16
ATOM     16  C   UNL     1      -3.299  -1.925   1.022  0.00  0.00    -0.038 C 
BRANCH  16  17
ATOM     17  C   UNL     1      -4.245  -1.827   2.191  0.00  0.00    -0.026 A 
ATOM     18  C   UNL     1      -4.049  -1.250   3.401  0.00  0.00    +0.010 A 
ATOM     19  C   UNL     1      -5.070  -1.281   4.332  0.00  0.00    +0.023 A 
ATOM     20  C   UNL     1      -6.238  -1.889   4.006  0.00  0.00    +0.055 A 
ATOM     21  S   UNL     1      -5.916  -2.437   2.338  0.00  0.00    -0.088 S 
ATOM     22 BR   UNL     1      -7.803  -2.096   5.047  0.00  0.00    -0.043 Br
ENDBRANCH  16  17
ENDBRANCH  13  16
ENDBRANCH   1  13
TORSDOF 4
