REMARK  Name = ZINC39469479
REMARK  5 active torsions:
REMARK  status: ('A' for Active; 'I' for Inactive)
REMARK    1  A    between atoms: C_1  and  C_2
REMARK    2  A    between atoms: C_2  and  O_3
REMARK    3  A    between atoms: O_3  and  P_4
REMARK    4  A    between atoms: C_12  and  C_23
REMARK    5  A    between atoms: C_28  and  O_29
REMARK                            x       y       z     vdW  Elec       q    Type
REMARK                         _______ _______ _______ _____ _____    ______ ____
ROOT
ATOM      1  P   UNL     1       0.877  -2.026  -1.510  0.00  0.00    +0.421 P 
ATOM      2  O   UNL     1      -0.397  -2.760  -1.339  0.00  0.00    -0.239 OA
ATOM      3  N   UNL     1       2.048  -2.670  -0.541  0.00  0.00    -0.156 NA
ATOM      4  N   UNL     1       3.364  -2.422  -0.874  0.00  0.00    -0.228 NA
ATOM      5  C   UNL     1       4.203  -3.159   0.087  0.00  0.00    +0.111 C 
ATOM      6  C   UNL     1       5.682  -2.912  -0.175  0.00  0.00    +0.035 C 
ATOM      7  C   UNL     1       6.014  -1.453  -0.012  0.00  0.00    -0.012 C 
ATOM      8  C   UNL     1       7.112  -0.959  -0.609  0.00  0.00    -0.004 C 
ATOM      9  C   UNL     1       7.973  -1.865  -1.401  0.00  0.00    +0.022 C 
ATOM     10  C   UNL     1       7.474  -3.000  -1.877  0.00  0.00    -0.007 C 
ATOM     11  C   UNL     1       6.030  -3.341  -1.603  0.00  0.00    +0.022 C 
ATOM     12  C   UNL     1       5.135  -2.570  -2.575  0.00  0.00    +0.031 C 
ATOM     13  C   UNL     1       3.656  -2.815  -2.256  0.00  0.00    +0.100 C 
ATOM     14  C   UNL     1       2.836  -1.992  -3.259  0.00  0.00    +0.191 C 
ATOM     15  O   UNL     1       1.433  -2.207  -3.029  0.00  0.00    -0.294 OA
ATOM     16 BR   UNL     1       9.777  -1.408  -1.735  0.00  0.00    -0.050 Br
ATOM     17  H   UNL     1       1.819  -3.204   0.235  0.00  0.00    +0.153 HD
ENDROOT
BRANCH   8  18
ATOM     18  C   UNL     1       7.457   0.477  -0.476  0.00  0.00    +0.024 A 
ATOM     19  C   UNL     1       7.997   0.960   0.715  0.00  0.00    +0.012 A 
ATOM     20  C   UNL     1       8.315   2.297   0.833  0.00  0.00    +0.001 A 
ATOM     21  C   UNL     1       8.101   3.162  -0.226  0.00  0.00    +0.004 A 
ATOM     22  C   UNL     1       7.566   2.694  -1.411  0.00  0.00    +0.046 A 
ATOM     23  C   UNL     1       7.247   1.352  -1.546  0.00  0.00    +0.125 A 
BRANCH  23  24
ATOM     24  O   UNL     1       6.726   0.889  -2.713  0.00  0.00    -0.506 OA
ATOM     25  H   UNL     1       5.761   0.923  -2.754  0.00  0.00    +0.292 HD
ENDBRANCH  23  24
ENDBRANCH   8  18
BRANCH   1  26
ATOM     26  O   UNL     1       0.671  -0.465  -1.174  0.00  0.00    -0.296 OA
BRANCH  26  28
ATOM     27  C   UNL     1      -0.019   1.526   0.010  0.00  0.00    +0.035 C 
ATOM     28  C   UNL     1       0.002  -0.004   0.002  0.00  0.00    +0.168 C 
ENDBRANCH  26  28
ENDBRANCH   1  26
TORSDOF 4
