REMARK  Name = ZINC53110435
REMARK  7 active torsions:
REMARK  status: ('A' for Active; 'I' for Inactive)
REMARK    1  A    between atoms: C_1  and  C_2
REMARK    2  A    between atoms: C_3  and  C_22
REMARK    3  A    between atoms: C_7  and  N_11
REMARK    4  A    between atoms: N_11  and  C_12
REMARK    5  A    between atoms: C_12  and  C_20
REMARK    6  A    between atoms: C_16  and  C_19
REMARK    7  A    between atoms: C_20  and  O_21
REMARK                            x       y       z     vdW  Elec       q    Type
REMARK                         _______ _______ _______ _____ _____    ______ ____
ROOT
ATOM      1  N   UNL     1      -0.876   1.300   2.775  0.00  0.00    -0.321 N 
ATOM      2  H   UNL     1      -0.176   0.714   2.450  0.00  0.00    +0.148 HD
ENDROOT
BRANCH   1   9
ATOM      3  C   UNL     1       0.390   0.067   0.511  0.00  0.00    +0.045 C 
ATOM      4  C   UNL     1      -0.704   0.793  -0.230  0.00  0.00    -0.028 A 
ATOM      5  C   UNL     1      -0.802   0.691  -1.564  0.00  0.00    -0.008 A 
ATOM      6  S   UNL     1      -2.216   1.704  -1.955  0.00  0.00    -0.074 S 
ATOM      7  C   UNL     1      -2.637   2.236  -0.317  0.00  0.00    +0.114 A 
ATOM      8  C   UNL     1      -1.667   1.605   0.493  0.00  0.00    +0.051 A 
ATOM      9  C   UNL     1      -1.776   1.863   1.887  0.00  0.00    +0.131 A 
ATOM     10  N   UNL     1      -2.748   2.646   2.324  0.00  0.00    -0.220 NA
ATOM     11  C   UNL     1      -3.626   3.200   1.508  0.00  0.00    +0.224 A 
ATOM     12  N   UNL     1      -3.571   3.007   0.204  0.00  0.00    -0.228 NA
ATOM     13  C   UNL     1       0.075  -0.092  -2.507  0.00  0.00    +0.052 C 
ENDBRANCH   1   9
BRANCH   1  14
ATOM     14  C   UNL     1      -0.982   1.591   4.207  0.00  0.00    +0.057 C 
ATOM     15  C   UNL     1       0.078   0.793   4.969  0.00  0.00    +0.028 C 
ATOM     16  C   UNL     1       1.470   1.187   4.470  0.00  0.00    +0.002 C 
ATOM     17  C   UNL     1       1.691   2.683   4.704  0.00  0.00    +0.003 C 
ATOM     18  C   UNL     1       0.632   3.481   3.942  0.00  0.00    -0.012 C 
ATOM     19  C   UNL     1      -0.760   3.087   4.441  0.00  0.00    +0.031 C 
ATOM     20  C   UNL     1       0.742   3.177   2.446  0.00  0.00    +0.007 C 
BRANCH  14  21
ATOM     21  C   UNL     1      -2.373   1.198   4.706  0.00  0.00    +0.181 C 
BRANCH  21  22
ATOM     22  O   UNL     1      -2.630  -0.168   4.372  0.00  0.00    -0.393 OA
ATOM     23  H   UNL     1      -3.497  -0.486   4.659  0.00  0.00    +0.209 HD
ENDBRANCH  21  22
ENDBRANCH  14  21
ENDBRANCH   1  14
TORSDOF 4
