REMARK  Name = ZINC08643818
REMARK  5 active torsions:
REMARK  status: ('A' for Active; 'I' for Inactive)
REMARK    1  A    between atoms: C_6  and  N_7
REMARK    2  A    between atoms: C_12  and  O_31
REMARK    3  A    between atoms: C_14  and  O_30
REMARK    4  A    between atoms: C_17  and  C_22
REMARK    5  A    between atoms: N_24  and  C_25
REMARK                            x       y       z     vdW  Elec       q    Type
REMARK                         _______ _______ _______ _____ _____    ______ ____
ROOT
ATOM      1  N   UNL     1       1.161   3.485   0.009  0.00  0.00    -0.294 N 
ATOM      2  C   UNL     1       2.342   4.187   0.106  0.00  0.00    +0.154 C 
ATOM      3  N   UNL     1       3.547   3.696   0.105  0.00  0.00    -0.256 NA
ATOM      4  C   UNL     1       4.693   4.555   0.247  0.00  0.00    +0.153 C 
ATOM      5  C   UNL     1       5.923   4.118  -0.485  0.00  0.00    +0.168 C 
ATOM      6  C   UNL     1       6.183   4.911  -1.751  0.00  0.00    +0.146 C 
ATOM      7  C   UNL     1       6.224   6.400  -1.392  0.00  0.00    +0.048 C 
ATOM      8  C   UNL     1       4.838   6.824  -0.923  0.00  0.00    +0.093 C 
ATOM      9  C   UNL     1       4.371   6.037   0.286  0.00  0.00    +0.093 C 
ATOM     10  S   UNL     1       2.532   5.954   0.248  0.00  0.00    -0.084 S 
ATOM     11  H   UNL     1       0.319   3.961  -0.063  0.00  0.00    +0.154 HD
ENDROOT
BRANCH   1  17
ATOM     12  C   UNL     1       2.224   1.404   0.620  0.00  0.00    +0.025 A 
ATOM     13  C   UNL     1       2.236   0.023   0.624  0.00  0.00    +0.022 A 
ATOM     14  C   UNL     1       1.206  -0.681   0.027  0.00  0.00    +0.041 A 
ATOM     15  C   UNL     1       0.161  -0.004  -0.577  0.00  0.00    +0.022 A 
ATOM     16  C   UNL     1       0.143   1.377  -0.585  0.00  0.00    +0.025 A 
ATOM     17  C   UNL     1       1.176   2.086   0.015  0.00  0.00    +0.033 A 
ATOM     18 CL   UNL     1       1.224  -2.417   0.034  0.00  0.00    -0.084 Cl
ENDBRANCH   1  17
BRANCH   8  19
ATOM     19  C   UNL     1       4.870   8.289  -0.569  0.00  0.00    +0.218 C 
ATOM     20  O   UNL     1       4.548   8.651   0.543  0.00  0.00    -0.275 OA
ATOM     21  N   UNL     1       5.256   9.196  -1.488  0.00  0.00    -0.312 N 
ATOM     22  H   UNL     1       5.514   8.906  -2.377  0.00  0.00    +0.149 HD
BRANCH  21  23
ATOM     23  C   UNL     1       5.287  10.620  -1.144  0.00  0.00    +0.073 C 
ATOM     24  C   UNL     1       3.908  11.258  -1.411  0.00  0.00    +0.022 C 
ATOM     25  C   UNL     1       4.242  12.672  -1.948  0.00  0.00    +0.002 C 
ATOM     26  C   UNL     1       5.493  12.418  -2.825  0.00  0.00    +0.002 C 
ATOM     27  C   UNL     1       6.295  11.358  -2.043  0.00  0.00    +0.022 C 
ENDBRANCH  21  23
ENDBRANCH   8  19
BRANCH   6  28
ATOM     28  O   UNL     1       7.432   4.518  -2.324  0.00  0.00    -0.389 OA
ATOM     29  H   UNL     1       7.662   4.998  -3.131  0.00  0.00    +0.210 HD
ENDBRANCH   6  28
BRANCH   5  30
ATOM     30  O   UNL     1       5.798   2.732  -0.811  0.00  0.00    -0.387 OA
ATOM     31  H   UNL     1       6.557   2.370  -1.288  0.00  0.00    +0.210 HD
ENDBRANCH   5  30
TORSDOF 5
