REMARK  Name = ZINC08442017
REMARK  11 active torsions:
REMARK  status: ('A' for Active; 'I' for Inactive)
REMARK    1  A    between atoms: C_1  and  C_2
REMARK    2  A    between atoms: C_2  and  C_3
REMARK    3  A    between atoms: C_2  and  C_4
REMARK    4  A    between atoms: C_2  and  C_5
REMARK    5  A    between atoms: C_13  and  C_25
REMARK    6  A    between atoms: C_15  and  C_21
REMARK    7  A    between atoms: C_15  and  C_23
REMARK    8  A    between atoms: C_16  and  N_20
REMARK    9  A    between atoms: C_17  and  C_18
REMARK   10  A    between atoms: C_30  and  O_31
REMARK   11  A    between atoms: O_31  and  C_32
REMARK                            x       y       z     vdW  Elec       q    Type
REMARK                         _______ _______ _______ _____ _____    ______ ____
ROOT
ATOM      1  C   UNL     1       4.638   0.259  -0.886  0.00  0.00    -0.001 C 
ATOM      2  C   UNL     1       4.826   1.689  -0.362  0.00  0.00    +0.031 C 
ATOM      3  C   UNL     1       3.463   2.326  -0.264  0.00  0.00    -0.021 C 
ATOM      4  C   UNL     1       2.395   1.607   0.018  0.00  0.00    -0.029 C 
ATOM      5  C   UNL     1       2.430   0.138   0.318  0.00  0.00    +0.031 C 
ATOM      6  C   UNL     1       3.780  -0.511   0.116  0.00  0.00    +0.013 C 
ATOM      7  C   UNL     1       1.338  -0.547  -0.505  0.00  0.00    +0.070 C 
ATOM      8  C   UNL     1      -0.025  -0.015  -0.062  0.00  0.00    +0.188 C 
ATOM      9  C   UNL     1      -0.056   1.484  -0.052  0.00  0.00    +0.054 C 
ATOM     10  C   UNL     1       1.058   2.257  -0.004  0.00  0.00    +0.074 C 
ENDROOT
BRANCH   7  11
ATOM     11  C   UNL     1       1.395  -2.037  -0.282  0.00  0.00    +0.001 A 
ATOM     12  C   UNL     1       1.396  -2.544   1.003  0.00  0.00    +0.007 A 
ATOM     13  C   UNL     1       1.448  -3.910   1.208  0.00  0.00    +0.001 A 
ATOM     14  C   UNL     1       1.498  -4.772   0.128  0.00  0.00    +0.004 A 
ATOM     15  C   UNL     1       1.495  -4.271  -1.159  0.00  0.00    +0.046 A 
ATOM     16  C   UNL     1       1.439  -2.900  -1.367  0.00  0.00    +0.130 A 
BRANCH  16  17
ATOM     17  O   UNL     1       1.432  -2.404  -2.632  0.00  0.00    -0.434 OA
BRANCH  17  18
ATOM     18  C   UNL     1       1.480  -3.351  -3.701  0.00  0.00    +0.541 C 
ATOM     19  F   UNL     1       2.652  -4.109  -3.601  0.00  0.00    -0.166 F 
ATOM     20  F   UNL     1       0.369  -4.198  -3.623  0.00  0.00    -0.166 F 
ENDBRANCH  17  18
ENDBRANCH  16  17
ENDBRANCH   7  11
BRANCH   1  22
ATOM     21  C   UNL     1       6.693  -0.467   0.336  0.00  0.00    +0.011 C 
ATOM     22  C   UNL     1       6.001  -0.421  -1.028  0.00  0.00    -0.035 C 
ATOM     23  C   UNL     1       5.808  -1.846  -1.550  0.00  0.00    +0.011 C 
ATOM     24  C   UNL     1       6.866   0.370  -2.011  0.00  0.00    +0.011 C 
ENDBRANCH   1  22
BRANCH   9  25
ATOM     25  N   UNL     1      -1.272   2.105  -0.100  0.00  0.00    -0.358 N 
ATOM     26  H   UNL     1      -1.329   3.204  -0.095  0.00  0.00    +0.142 HD
ATOM     27  H   UNL     1      -2.194   1.507  -0.145  0.00  0.00    +0.142 HD
ENDBRANCH   9  25
BRANCH  10  28
ATOM     28  C   UNL     1       0.947   3.684   0.026  0.00  0.00    +0.101 C 
ATOM     29  N   UNL     1       0.859   4.816   0.050  0.00  0.00    -0.191 NA
ENDBRANCH  10  28
BRANCH   8  30
ATOM     30  C   UNL     1      -0.316  -0.510   1.293  0.00  0.00    +0.091 C 
ATOM     31  N   UNL     1      -0.541  -0.892   2.339  0.00  0.00    -0.194 NA
ENDBRANCH   8  30
BRANCH   8  32
ATOM     32  C   UNL     1      -1.058  -0.511  -0.985  0.00  0.00    +0.091 C 
ATOM     33  N   UNL     1      -1.855  -0.894  -1.698  0.00  0.00    -0.194 NA
ENDBRANCH   8  32
TORSDOF 8
