REMARK  Name = ZINC13616181
REMARK  5 active torsions:
REMARK  status: ('A' for Active; 'I' for Inactive)
REMARK    1  A    between atoms: C_1  and  C_2
REMARK    2  A    between atoms: C_4  and  C_15
REMARK    3  A    between atoms: C_5  and  C_14
REMARK    4  A    between atoms: N_6  and  C_7
REMARK    5  A    between atoms: N_22  and  C_25
REMARK                            x       y       z     vdW  Elec       q    Type
REMARK                         _______ _______ _______ _____ _____    ______ ____
ROOT
ATOM      1  C   UNL     1      -0.858  -3.706  -1.112  0.00  0.00    +0.028 C 
ATOM      2  C   UNL     1      -1.098  -3.548  -2.472  0.00  0.00    +0.102 C 
ATOM      3  C   UNL     1      -0.682  -4.564  -3.448  0.00  0.00    +0.276 C 
ATOM      4  O   UNL     1      -0.050  -5.688  -3.049  0.00  0.00    -0.268 OA
ATOM      5  N   UNL     1      -0.940  -4.352  -4.728  0.00  0.00    -0.123 NA
ATOM      6  C   UNL     1      -1.561  -3.254  -5.151  0.00  0.00    +0.340 C 
ATOM      7  O   UNL     1      -1.764  -3.131  -6.346  0.00  0.00    -0.250 OA
ATOM      8  N   UNL     1      -1.976  -2.276  -4.333  0.00  0.00    -0.188 N 
ATOM      9  C   UNL     1      -1.786  -2.355  -2.999  0.00  0.00    +0.264 C 
ATOM     10  O   UNL     1      -2.167  -1.469  -2.256  0.00  0.00    -0.269 OA
ENDROOT
BRANCH   1  14
ATOM     11  C   UNL     1      -0.913   0.909   0.929  0.00  0.00    +0.064 C 
ATOM     12  C   UNL     1      -1.103  -0.564   0.677  0.00  0.00    +0.022 A 
ATOM     13  C   UNL     1      -0.683  -1.227  -0.412  0.00  0.00    +0.031 A 
ATOM     14  C   UNL     1      -1.084  -2.630  -0.225  0.00  0.00    -0.003 A 
ATOM     15  C   UNL     1      -1.730  -2.679   1.004  0.00  0.00    +0.028 A 
ATOM     16  N   UNL     1      -1.726  -1.439   1.526  0.00  0.00    -0.317 N 
ATOM     17  C   UNL     1      -2.327  -3.906   1.642  0.00  0.00    +0.064 C 
BRANCH  16  18
ATOM     18  C   UNL     1      -2.284  -1.091   2.764  0.00  0.00    +0.047 A 
ATOM     19  C   UNL     1      -1.745  -1.602   3.937  0.00  0.00    +0.027 A 
ATOM     20  C   UNL     1      -2.296  -1.258   5.156  0.00  0.00    +0.022 A 
ATOM     21  C   UNL     1      -3.384  -0.404   5.208  0.00  0.00    +0.041 A 
ATOM     22  C   UNL     1      -3.923   0.106   4.040  0.00  0.00    +0.022 A 
ATOM     23  C   UNL     1      -3.372  -0.231   2.819  0.00  0.00    +0.027 A 
ATOM     24 CL   UNL     1      -4.075   0.026   6.742  0.00  0.00    -0.084 Cl
ENDBRANCH  16  18
ENDBRANCH   1  14
BRANCH   8  25
ATOM     25  C   UNL     1      -2.622  -1.155  -4.872  0.00  0.00    +0.046 A 
ATOM     26  C   UNL     1      -1.880  -0.054  -5.281  0.00  0.00    +0.025 A 
ATOM     27  C   UNL     1      -2.519   1.049  -5.813  0.00  0.00    +0.022 A 
ATOM     28  C   UNL     1      -3.898   1.058  -5.937  0.00  0.00    +0.041 A 
ATOM     29  C   UNL     1      -4.639  -0.037  -5.530  0.00  0.00    +0.022 A 
ATOM     30  C   UNL     1      -4.004  -1.145  -5.003  0.00  0.00    +0.025 A 
ATOM     31 CL   UNL     1      -4.698   2.446  -6.605  0.00  0.00    -0.084 Cl
ENDBRANCH   8  25
TORSDOF 3
