REMARK  Name = ZINC62580597
REMARK  7 active torsions:
REMARK  status: ('A' for Active; 'I' for Inactive)
REMARK    1  A    between atoms: C_1  and  C_2
REMARK    2  A    between atoms: C_2  and  C_4
REMARK    3  A    between atoms: C_2  and  N_11
REMARK    4  A    between atoms: N_11  and  C_12
REMARK    5  A    between atoms: N_15  and  C_16
REMARK    6  A    between atoms: C_16  and  C_17
REMARK    7  A    between atoms: C_17  and  N_18
REMARK                            x       y       z     vdW  Elec       q    Type
REMARK                         _______ _______ _______ _____ _____    ______ ____
ROOT
ATOM      1  N   UNL     1       0.617  -0.401  -1.310  0.00  0.00    -0.282 N 
ATOM      2  C   UNL     1       2.001  -0.051  -1.638  0.00  0.00    +0.134 C 
ATOM      3  C   UNL     1      -0.169  -0.984  -2.237  0.00  0.00    +0.302 C 
ATOM      4  O   UNL     1      -1.317  -1.274  -1.965  0.00  0.00    -0.253 OA
ATOM      5  N   UNL     1       0.319  -1.244  -3.466  0.00  0.00    -0.298 N 
ATOM      6  H   UNL     1       1.236  -1.012  -3.684  0.00  0.00    +0.150 HD
ENDROOT
BRANCH   1   8
ATOM      7  C   UNL     1       0.302   1.360   0.358  0.00  0.00    +0.033 C 
ATOM      8  C   UNL     1       0.087  -0.118   0.026  0.00  0.00    +0.104 C 
BRANCH   8   9
ATOM      9  C   UNL     1       0.804  -0.970   1.042  0.00  0.00    -0.027 A 
ATOM     10  C   UNL     1       2.183  -0.923   1.133  0.00  0.00    +0.008 A 
ATOM     11  C   UNL     1       2.841  -1.703   2.064  0.00  0.00    +0.038 A 
ATOM     12  C   UNL     1       2.119  -2.533   2.906  0.00  0.00    +0.123 A 
ATOM     13  C   UNL     1       0.739  -2.579   2.814  0.00  0.00    +0.038 A 
ATOM     14  C   UNL     1       0.082  -1.794   1.885  0.00  0.00    +0.008 A 
ATOM     15  F   UNL     1       2.762  -3.296   3.817  0.00  0.00    -0.205 F 
ENDBRANCH   8   9
ENDBRANCH   1   8
BRANCH   5  16
ATOM     16  C   UNL     1      -0.535  -1.877  -4.474  0.00  0.00    +0.125 C 
BRANCH  16  17
ATOM     17  C   UNL     1       0.256  -2.059  -5.771  0.00  0.00    +0.136 C 
BRANCH  17  18
ATOM     18  N   UNL     1      -0.598  -2.692  -6.779  0.00  0.00    -0.231 N 
ATOM     19  C   UNL     1      -0.615  -4.013  -6.846  0.00  0.00    +0.233 C 
ATOM     20  O   UNL     1       0.047  -4.707  -6.105  0.00  0.00    -0.274 OA
ATOM     21  C   UNL     1      -1.525  -4.600  -7.915  0.00  0.00    +0.175 C 
ATOM     22  S   UNL     1      -2.200  -3.048  -8.640  0.00  0.00    -0.058 S 
ATOM     23  C   UNL     1      -1.327  -1.899  -7.586  0.00  0.00    +0.281 C 
ATOM     24  O   UNL     1      -1.379  -0.684  -7.596  0.00  0.00    -0.262 OA
ENDBRANCH  17  18
ENDBRANCH  16  17
ENDBRANCH   5  16
TORSDOF 5
