REMARK  Name = ZINC04776587
REMARK  5 active torsions:
REMARK  status: ('A' for Active; 'I' for Inactive)
REMARK    1  A    between atoms: C_1  and  C_2
REMARK    2  A    between atoms: C_2  and  C_11
REMARK    3  A    between atoms: C_3  and  C_9
REMARK    4  A    between atoms: C_3  and  O_10
REMARK    5  A    between atoms: N_4  and  N_8
REMARK                            x       y       z     vdW  Elec       q    Type
REMARK                         _______ _______ _______ _____ _____    ______ ____
ROOT
ATOM      1  C   UNL     1       1.132   4.153   1.264  0.00  0.00    +0.066 C 
ATOM      2  C   UNL     1       0.735   3.367   0.013  0.00  0.00    +0.183 C 
ATOM      3  C   UNL     1      -0.795   3.199  -0.057  0.00  0.00    +0.193 C 
ATOM      4  N   UNL     1      -0.989   1.742  -0.019  0.00  0.00    -0.170 N 
ATOM      5  C   UNL     1       0.208   1.147   0.066  0.00  0.00    +0.420 C 
ATOM      6  O   UNL     1       0.348  -0.059   0.115  0.00  0.00    -0.225 OA
ATOM      7  O   UNL     1       1.237   2.002   0.086  0.00  0.00    -0.434 OA
ATOM      8  C   UNL     1      -1.464   3.866   1.147  0.00  0.00    +0.069 C 
ENDROOT
BRANCH   2   9
ATOM      9  C   UNL     1       1.250   4.054  -1.226  0.00  0.00    +0.000 A 
ATOM     10  C   UNL     1       1.011   5.402  -1.419  0.00  0.00    +0.007 A 
ATOM     11  C   UNL     1       1.488   6.033  -2.553  0.00  0.00    +0.000 A 
ATOM     12  C   UNL     1       2.195   5.314  -3.498  0.00  0.00    +0.000 A 
ATOM     13  C   UNL     1       2.430   3.965  -3.308  0.00  0.00    +0.000 A 
ATOM     14  C   UNL     1       1.957   3.335  -2.171  0.00  0.00    +0.007 A 
ENDBRANCH   2   9
BRANCH   4  15
ATOM     15  N   UNL     1      -2.194   1.099  -0.062  0.00  0.00    -0.246 NA
ATOM     16  H   UNL     1      -2.072   0.099  -0.020  0.00  0.00    +0.141 HD
ATOM     17  H   UNL     1      -2.802   1.421   0.677  0.00  0.00    +0.141 HD
ENDBRANCH   4  15
BRANCH   3  18
ATOM     18  O   UNL     1      -1.305   3.741  -1.276  0.00  0.00    -0.367 OA
ATOM     19  H   UNL     1      -2.264   3.662  -1.371  0.00  0.00    +0.212 HD
ENDBRANCH   3  18
TORSDOF 3
