REMARK  Name = ZINC66243764
REMARK  10 active torsions:
REMARK  status: ('A' for Active; 'I' for Inactive)
REMARK    1  A    between atoms: C_1  and  C_2
REMARK    2  A    between atoms: C_2  and  C_3
REMARK    3  A    between atoms: C_2  and  C_4
REMARK    4  A    between atoms: C_2  and  O_5
REMARK    5  A    between atoms: O_5  and  C_6
REMARK    6  A    between atoms: N_11  and  C_14
REMARK    7  A    between atoms: C_17  and  C_21
REMARK    8  A    between atoms: C_21  and  N_22
REMARK    9  A    between atoms: N_24  and  C_25
REMARK   10  A    between atoms: C_25  and  C_26
REMARK                            x       y       z     vdW  Elec       q    Type
REMARK                         _______ _______ _______ _____ _____    ______ ____
ROOT
ATOM      1  C   UNL     1       4.252  -0.653  -6.122  0.00  0.00    +0.065 A 
ATOM      2  C   UNL     1       4.250   0.125  -7.272  0.00  0.00    +0.026 A 
ATOM      3  C   UNL     1       4.957  -0.288  -8.385  0.00  0.00    +0.007 A 
ATOM      4  C   UNL     1       5.666  -1.474  -8.356  0.00  0.00    -0.025 A 
ATOM      5  C   UNL     1       5.670  -2.254  -7.213  0.00  0.00    +0.045 A 
ATOM      6  C   UNL     1       4.970  -1.844  -6.094  0.00  0.00    +0.145 A 
ATOM      7  F   UNL     1       4.979  -2.602  -4.975  0.00  0.00    -0.204 F 
ENDROOT
BRANCH   1  13
ATOM      8  C   UNL     1       1.952  -0.085  -1.337  0.00  0.00    +0.403 C 
ATOM      9  O   UNL     1       2.488   0.619  -0.503  0.00  0.00    -0.226 OA
ATOM     10  N   UNL     1       2.641  -0.485  -2.424  0.00  0.00    -0.264 N 
ATOM     11  C   UNL     1       2.004  -1.331  -3.443  0.00  0.00    +0.130 C 
ATOM     12  C   UNL     1       2.136  -0.641  -4.806  0.00  0.00    +0.124 C 
ATOM     13  N   UNL     1       3.537  -0.238  -4.994  0.00  0.00    -0.325 N 
ATOM     14  C   UNL     1       4.174   0.608  -3.975  0.00  0.00    +0.124 C 
ATOM     15  C   UNL     1       4.040  -0.078  -2.615  0.00  0.00    +0.130 C 
BRANCH   8  16
ATOM     16  O   UNL     1       0.671  -0.465  -1.174  0.00  0.00    -0.445 OA
BRANCH  16  18
ATOM     17  C   UNL     1      -0.019   1.526   0.010  0.00  0.00    +0.055 C 
ATOM     18  C   UNL     1       0.002  -0.004   0.002  0.00  0.00    +0.107 C 
ATOM     19  C   UNL     1       0.742  -0.511   1.242  0.00  0.00    +0.055 C 
ATOM     20  C   UNL     1      -1.433  -0.534   0.013  0.00  0.00    +0.055 C 
ENDBRANCH  16  18
ENDBRANCH   8  16
ENDBRANCH   1  13
BRANCH   4  21
ATOM     21  C   UNL     1       6.436  -1.921  -9.573  0.00  0.00    +0.151 C 
BRANCH  21  22
ATOM     22  N   UNL     1       7.799  -1.389  -9.510  0.00  0.00    -0.354 N 
ATOM     23  C   UNL     1       8.692  -1.666 -10.518  0.00  0.00    +0.169 C 
ATOM     24  N   UNL     1       9.905  -1.192 -10.463  0.00  0.00    -0.354 N 
ATOM     25  N   UNL     1       8.305  -2.442 -11.585  0.00  0.00    -0.371 N 
ATOM     26  H   UNL     1       8.072  -0.841  -8.758  0.00  0.00    +0.163 HD
ATOM     27  H   UNL     1       7.402  -2.794 -11.627  0.00  0.00    +0.159 HD
ATOM     28  H   UNL     1       8.935  -2.637 -12.297  0.00  0.00    +0.159 HD
ATOM     29  H   UNL     1      10.178  -0.645  -9.710  0.00  0.00    +0.163 HD
BRANCH  24  30
ATOM     30  C   UNL     1      10.856  -1.488 -11.537  0.00  0.00    +0.142 C 
BRANCH  30  31
ATOM     31  C   UNL     1      12.177  -0.828 -11.234  0.00  0.00    -0.014 C 
ATOM     32  C   UNL     1      13.274  -1.543 -11.201  0.00  0.00    +0.005 C 
ENDBRANCH  30  31
ENDBRANCH  24  30
ENDBRANCH  21  22
ENDBRANCH   4  21
TORSDOF 7
