REMARK  Name = ZINC01226934
REMARK  9 active torsions:
REMARK  status: ('A' for Active; 'I' for Inactive)
REMARK    1  A    between atoms: C_1  and  C_2
REMARK    2  A    between atoms: C_11  and  O_13
REMARK    3  A    between atoms: C_14  and  C_22
REMARK    4  A    between atoms: C_16  and  C_20
REMARK    5  A    between atoms: C_17  and  N_19
REMARK    6  A    between atoms: C_26  and  O_30
REMARK    7  A    between atoms: C_27  and  O_28
REMARK    8  A    between atoms: O_28  and  C_29
REMARK    9  A    between atoms: O_30  and  C_31
REMARK                            x       y       z     vdW  Elec       q    Type
REMARK                         _______ _______ _______ _____ _____    ______ ____
ROOT
ATOM      1  C   UNL     1       2.723   4.564   0.555  0.00  0.00    +0.045 C 
ATOM      2  C   UNL     1       4.111   3.981   0.503  0.00  0.00    -0.029 A 
ATOM      3  C   UNL     1       5.196   4.779   0.321  0.00  0.00    +0.096 A 
ATOM      4  C   UNL     1       6.482   4.208   0.277  0.00  0.00    +0.337 A 
ATOM      5  O   UNL     1       7.445   4.936   0.113  0.00  0.00    -0.245 OA
ATOM      6  O   UNL     1       6.682   2.890   0.409  0.00  0.00    -0.422 OA
ATOM      7  C   UNL     1       5.626   2.070   0.590  0.00  0.00    +0.146 A 
ATOM      8  C   UNL     1       4.319   2.584   0.643  0.00  0.00    +0.063 A 
ATOM      9  C   UNL     1       3.225   1.717   0.834  0.00  0.00    +0.149 A 
ATOM     10  C   UNL     1       3.446   0.362   0.966  0.00  0.00    +0.050 A 
ATOM     11  C   UNL     1       4.743  -0.142   0.912  0.00  0.00    +0.128 A 
ATOM     12  C   UNL     1       5.825   0.703   0.726  0.00  0.00    +0.093 A 
ATOM     13  C   UNL     1       2.292  -0.585   1.169  0.00  0.00    +0.105 C 
ATOM     14  C   UNL     1       0.999   0.083   0.793  0.00  0.00    +0.098 C 
ATOM     15  C   UNL     1       0.913   1.429   0.674  0.00  0.00    +0.199 C 
ATOM     16  O   UNL     1       1.973   2.228   0.885  0.00  0.00    -0.440 OA
ENDROOT
BRANCH  13  17
ATOM     17  C   UNL     1       2.237  -1.000   2.616  0.00  0.00    +0.011 A 
ATOM     18  C   UNL     1       2.625  -2.275   2.985  0.00  0.00    +0.008 A 
ATOM     19  C   UNL     1       2.576  -2.659   4.312  0.00  0.00    +0.004 A 
ATOM     20  C   UNL     1       2.139  -1.770   5.277  0.00  0.00    +0.049 A 
ATOM     21  C   UNL     1       1.748  -0.492   4.914  0.00  0.00    +0.162 A 
ATOM     22  C   UNL     1       1.803  -0.103   3.579  0.00  0.00    +0.166 A 
BRANCH  22  23
ATOM     23  O   UNL     1       1.426   1.153   3.218  0.00  0.00    -0.491 OA
ATOM     24  C   UNL     1       0.024   1.433   3.211  0.00  0.00    +0.277 C 
ENDBRANCH  22  23
BRANCH  21  25
ATOM     25  O   UNL     1       1.318   0.384   5.862  0.00  0.00    -0.491 OA
ATOM     26  C   UNL     1       1.295  -0.082   7.212  0.00  0.00    +0.277 C 
ENDBRANCH  21  25
ENDBRANCH  13  17
BRANCH  15  27
ATOM     27  N   UNL     1      -0.288   1.993   0.323  0.00  0.00    -0.328 N 
ATOM     28  H   UNL     1      -1.061   1.428   0.164  0.00  0.00    +0.145 HD
ATOM     29  H   UNL     1      -0.365   2.955   0.235  0.00  0.00    +0.145 HD
ENDBRANCH  15  27
BRANCH  11  30
ATOM     30  O   UNL     1       4.950  -1.477   1.043  0.00  0.00    -0.506 OA
ATOM     31  H   UNL     1       5.012  -1.950   0.202  0.00  0.00    +0.292 HD
ENDBRANCH  11  30
BRANCH  14  32
ATOM     32  C   UNL     1      -0.163  -0.720   0.556  0.00  0.00    +0.101 C 
ATOM     33  N   UNL     1      -1.085  -1.356   0.368  0.00  0.00    -0.191 NA
ENDBRANCH  14  32
TORSDOF 6
