REMARK  Name = ZINC45540365
REMARK  11 active torsions:
REMARK  status: ('A' for Active; 'I' for Inactive)
REMARK    1  A    between atoms: C_1  and  C_2
REMARK    2  A    between atoms: C_5  and  C_9
REMARK    3  A    between atoms: C_7  and  C_8
REMARK    4  A    between atoms: C_9  and  C_11
REMARK    5  A    between atoms: C_9  and  N_12
REMARK    6  A    between atoms: C_13  and  C_15
REMARK    7  A    between atoms: C_15  and  O_16
REMARK    8  A    between atoms: O_16  and  C_17
REMARK    9  A    between atoms: C_17  and  C_19
REMARK   10  A    between atoms: C_20  and  C_25
REMARK   11  A    between atoms: C_23  and  N_24
REMARK                            x       y       z     vdW  Elec       q    Type
REMARK                         _______ _______ _______ _____ _____    ______ ____
ROOT
ATOM      1  N   UNL     1      -0.828  -4.769  -1.077  0.00  0.00    -0.306 N 
ATOM      2  C   UNL     1      -1.371  -5.999  -0.981  0.00  0.00    +0.251 C 
ATOM      3  O   UNL     1      -1.125  -6.697  -0.019  0.00  0.00    -0.272 OA
ATOM      4  H   UNL     1      -1.024  -4.212  -1.846  0.00  0.00    +0.149 HD
ENDROOT
BRANCH   1   5
ATOM      5  C   UNL     1       0.059  -4.275  -0.021  0.00  0.00    +0.100 C 
ATOM      6  C   UNL     1       1.485  -4.766  -0.282  0.00  0.00    +0.033 C 
BRANCH   5  11
ATOM      7  C   UNL     1      -0.018   1.503   0.010  0.00  0.00    +0.044 C 
ATOM      8  C   UNL     1       0.002  -0.004   0.002  0.00  0.00    -0.048 A 
ATOM      9  C   UNL     1       0.006  -0.689  -1.199  0.00  0.00    +0.004 A 
ATOM     10  C   UNL     1       0.025  -2.071  -1.207  0.00  0.00    +0.006 A 
ATOM     11  C   UNL     1       0.040  -2.768  -0.013  0.00  0.00    -0.027 A 
ATOM     12  C   UNL     1       0.037  -2.084   1.188  0.00  0.00    +0.009 A 
ATOM     13  C   UNL     1       0.023  -0.702   1.195  0.00  0.00    -0.047 A 
ATOM     14  C   UNL     1       0.025   0.045   2.504  0.00  0.00    +0.044 C 
ENDBRANCH   5  11
ENDBRANCH   1   5
BRANCH   2  15
ATOM     15  C   UNL     1      -2.284  -6.507  -2.067  0.00  0.00    +0.328 C 
BRANCH  15  16
ATOM     16  O   UNL     1      -2.728  -7.825  -1.738  0.00  0.00    -0.452 OA
BRANCH  16  17
ATOM     17  C   UNL     1      -3.558  -8.427  -2.613  0.00  0.00    +0.346 C 
ATOM     18  O   UNL     1      -3.896  -7.849  -3.628  0.00  0.00    -0.245 OA
BRANCH  17  19
ATOM     19  C   UNL     1      -4.054  -9.779  -2.341  0.00  0.00    +0.142 A 
ATOM     20  C   UNL     1      -5.241 -10.116  -1.640  0.00  0.00    +0.097 A 
ATOM     21  N   UNL     1      -5.337 -11.411  -1.606  0.00  0.00    -0.081 NA
ATOM     22  O   UNL     1      -4.226 -11.973  -2.277  0.00  0.00    -0.339 OA
ATOM     23  C   UNL     1      -3.452 -10.974  -2.727  0.00  0.00    +0.230 A 
ATOM     24  C   UNL     1      -6.220  -9.140  -1.040  0.00  0.00    +0.070 C 
BRANCH  23  25
ATOM     25  N   UNL     1      -2.285 -11.104  -3.432  0.00  0.00    -0.327 N 
ATOM     26  H   UNL     1      -1.796 -10.315  -3.711  0.00  0.00    +0.145 HD
ATOM     27  H   UNL     1      -1.948 -11.987  -3.653  0.00  0.00    +0.145 HD
ENDBRANCH  23  25
ENDBRANCH  17  19
ENDBRANCH  16  17
ENDBRANCH  15  16
ENDBRANCH   2  15
TORSDOF 7
