REMARK  Name = ZINC20757332
REMARK  5 active torsions:
REMARK  status: ('A' for Active; 'I' for Inactive)
REMARK    1  A    between atoms: C_3  and  N_33
REMARK    2  A    between atoms: C_6  and  C_7
REMARK    3  A    between atoms: C_18  and  C_23
REMARK    4  A    between atoms: N_25  and  C_26
REMARK    5  A    between atoms: C_26  and  C_27
REMARK                            x       y       z     vdW  Elec       q    Type
REMARK                         _______ _______ _______ _____ _____    ______ ____
ROOT
ATOM      1  C   UNL     1       1.229  -2.186  -0.021  0.00  0.00    +0.105 C 
ATOM      2  C   UNL     1       1.478  -2.688  -1.445  0.00  0.00    +0.029 C 
ATOM      3  C   UNL     1       0.169  -2.471  -2.254  0.00  0.00    +0.033 C 
ATOM      4  C   UNL     1      -0.672  -3.679  -1.890  0.00  0.00    -0.030 C 
ATOM      5  C   UNL     1       0.088  -4.653  -1.452  0.00  0.00    -0.023 C 
ATOM      6  C   UNL     1       1.537  -4.228  -1.456  0.00  0.00    +0.049 C 
ATOM      7  C   UNL     1       2.274  -4.794  -0.284  0.00  0.00    -0.019 A 
ATOM      8  C   UNL     1       2.607  -6.137  -0.298  0.00  0.00    +0.019 A 
ATOM      9  C   UNL     1       3.296  -6.706   0.774  0.00  0.00    +0.037 A 
ATOM     10  C   UNL     1       3.654  -5.917   1.871  0.00  0.00    +0.015 A 
ATOM     11  C   UNL     1       3.322  -4.582   1.885  0.00  0.00    +0.024 A 
ATOM     12  C   UNL     1       2.634  -4.020   0.813  0.00  0.00    +0.031 A 
ATOM     13  N   UNL     1       2.306  -2.667   0.850  0.00  0.00    -0.336 N 
ATOM     14  H   UNL     1       2.834  -1.964   1.512  0.00  0.00    +0.147 HD
ENDROOT
BRANCH   1  20
ATOM     15  C   UNL     1       0.002  -0.004   0.002  0.00  0.00    +0.008 A 
ATOM     16  C   UNL     1      -0.017   1.378   0.010  0.00  0.00    +0.033 A 
ATOM     17  C   UNL     1       1.171   2.086   0.002  0.00  0.00    +0.126 A 
ATOM     18  C   UNL     1       2.377   1.411  -0.015  0.00  0.00    +0.033 A 
ATOM     19  C   UNL     1       2.396   0.029  -0.021  0.00  0.00    +0.008 A 
ATOM     20  C   UNL     1       1.208  -0.679  -0.013  0.00  0.00    -0.027 A 
BRANCH  17  21
ATOM     21  N   UNL     1       1.151   3.566   0.010  0.00  0.00    +0.056 N 
ATOM     22  O   UNL     1       0.088   4.160   0.023  0.00  0.00    -0.126 OA
ATOM     23  O   UNL     1       2.197   4.189   0.003  0.00  0.00    -0.126 OA
ENDBRANCH  17  21
ENDBRANCH   1  20
BRANCH   9  24
ATOM     24  C   UNL     1       3.646  -8.138   0.749  0.00  0.00    +0.244 C 
ATOM     25  O   UNL     1       3.335  -8.824  -0.206  0.00  0.00    -0.270 OA
ATOM     26  N   UNL     1       4.311  -8.688   1.784  0.00  0.00    -0.309 N 
ATOM     27  H   UNL     1       4.592  -8.068   2.648  0.00  0.00    +0.149 HD
BRANCH  26  28
ATOM     28  C   UNL     1       4.659 -10.110   1.760  0.00  0.00    +0.136 C 
BRANCH  28  29
ATOM     29  C   UNL     1       5.404 -10.476   3.045  0.00  0.00    +0.135 C 
ATOM     30  C   UNL     1       5.775 -11.971   3.029  0.00  0.00    +0.035 C 
ATOM     31  C   UNL     1       7.317 -11.981   3.162  0.00  0.00    +0.031 C 
ATOM     32  C   UNL     1       7.599 -10.585   3.774  0.00  0.00    +0.160 C 
ATOM     33  O   UNL     1       6.632  -9.732   3.127  0.00  0.00    -0.375 OA
ENDBRANCH  28  29
ENDBRANCH  26  28
ENDBRANCH   9  24
TORSDOF 5
