REMARK  Name = ZINC66426826
REMARK  12 active torsions:
REMARK  status: ('A' for Active; 'I' for Inactive)
REMARK    1  A    between atoms: C_1  and  C_2
REMARK    2  A    between atoms: C_2  and  C_3
REMARK    3  A    between atoms: C_2  and  C_4
REMARK    4  A    between atoms: C_2  and  C_5
REMARK    5  A    between atoms: C_10  and  O_11
REMARK    6  A    between atoms: O_11  and  C_12
REMARK    7  A    between atoms: C_12  and  C_13
REMARK    8  A    between atoms: C_13  and  N_14
REMARK    9  A    between atoms: C_15  and  C_17
REMARK   10  A    between atoms: C_17  and  C_18
REMARK   11  A    between atoms: C_18  and  C_20
REMARK   12  A    between atoms: C_18  and  N_25
REMARK                            x       y       z     vdW  Elec       q    Type
REMARK                         _______ _______ _______ _____ _____    ______ ____
ROOT
ATOM      1  N   UNL     1      -1.529  -4.779   0.258  0.00  0.00    -0.312 N 
ATOM      2  C   UNL     1      -2.288  -5.430   1.162  0.00  0.00    +0.215 C 
ATOM      3  O   UNL     1      -1.770  -6.184   1.958  0.00  0.00    -0.276 OA
ATOM      4  H   UNL     1      -1.943  -4.176  -0.379  0.00  0.00    +0.149 HD
ENDROOT
BRANCH   1   5
ATOM      5  C   UNL     1      -0.078  -4.982   0.238  0.00  0.00    +0.145 C 
BRANCH   5   6
ATOM      6  C   UNL     1       0.540  -4.132  -0.874  0.00  0.00    +0.247 C 
BRANCH   6   7
ATOM      7  O   UNL     1       0.356  -2.747  -0.573  0.00  0.00    -0.490 OA
BRANCH   7  13
ATOM      8  C   UNL     1       0.707  -0.490  -1.238  0.00  0.00    -0.000 A 
ATOM      9  C   UNL     1       1.217   0.419  -2.145  0.00  0.00    +0.008 A 
ATOM     10  C   UNL     1       1.863  -0.026  -3.283  0.00  0.00    +0.001 A 
ATOM     11  C   UNL     1       2.003  -1.382  -3.516  0.00  0.00    +0.004 A 
ATOM     12  C   UNL     1       1.496  -2.295  -2.612  0.00  0.00    +0.046 A 
ATOM     13  C   UNL     1       0.851  -1.851  -1.467  0.00  0.00    +0.124 A 
BRANCH   8  15
ATOM     14  C   UNL     1      -0.019   1.526   0.010  0.00  0.00    +0.015 C 
ATOM     15  C   UNL     1       0.002  -0.004   0.002  0.00  0.00    -0.009 C 
ATOM     16  C   UNL     1       0.742  -0.511   1.242  0.00  0.00    +0.015 C 
ATOM     17  C   UNL     1      -1.433  -0.534   0.013  0.00  0.00    +0.015 C 
ENDBRANCH   8  15
ENDBRANCH   7  13
ENDBRANCH   6   7
ENDBRANCH   5   6
ENDBRANCH   1   5
BRANCH   2  18
ATOM     18  C   UNL     1      -3.780  -5.222   1.182  0.00  0.00    +0.123 C 
BRANCH  18  19
ATOM     19  C   UNL     1      -4.399  -6.072   2.294  0.00  0.00    +0.120 C 
BRANCH  19  20
ATOM     20  N   UNL     1      -3.923  -5.595   3.595  0.00  0.00    -0.292 N 
ATOM     21  C   UNL     1      -3.897  -6.432   4.651  0.00  0.00    +0.298 C 
ATOM     22  O   UNL     1      -4.269  -7.582   4.524  0.00  0.00    -0.253 OA
ATOM     23  N   UNL     1      -3.460  -5.993   5.848  0.00  0.00    -0.313 N 
ATOM     24  H   UNL     1      -3.627  -4.677   3.696  0.00  0.00    +0.151 HD
ATOM     25  H   UNL     1      -3.163  -5.075   5.949  0.00  0.00    +0.146 HD
ATOM     26  H   UNL     1      -3.441  -6.596   6.608  0.00  0.00    +0.146 HD
ENDBRANCH  19  20
BRANCH  19  27
ATOM     27  C   UNL     1      -5.901  -5.959   2.236  0.00  0.00    +0.010 A 
ATOM     28  C   UNL     1      -6.802  -6.824   1.710  0.00  0.00    +0.013 A 
ATOM     29  C   UNL     1      -8.147  -6.510   1.771  0.00  0.00    +0.008 A 
ATOM     30  C   UNL     1      -8.524  -5.347   2.356  0.00  0.00    +0.045 A 
ATOM     31  S   UNL     1      -6.955  -4.655   2.850  0.00  0.00    -0.100 S 
ENDBRANCH  19  27
ENDBRANCH  18  19
ENDBRANCH   2  18
TORSDOF 9
