REMARK  Name = ZINC67612282
REMARK  10 active torsions:
REMARK  status: ('A' for Active; 'I' for Inactive)
REMARK    1  A    between atoms: C_1  and  C_2
REMARK    2  A    between atoms: C_5  and  C_8
REMARK    3  A    between atoms: C_8  and  C_10
REMARK    4  A    between atoms: C_8  and  N_13
REMARK    5  A    between atoms: N_16  and  C_17
REMARK    6  A    between atoms: C_17  and  C_18
REMARK    7  A    between atoms: C_18  and  C_20
REMARK    8  A    between atoms: C_18  and  O_28
REMARK    9  A    between atoms: C_20  and  N_21
REMARK   10  A    between atoms: C_24  and  C_27
REMARK                            x       y       z     vdW  Elec       q    Type
REMARK                         _______ _______ _______ _____ _____    ______ ____
ROOT
ATOM      1  N   UNL     1       0.473  -5.072   1.349  0.00  0.00    -0.292 N 
ATOM      2  C   UNL     1       1.149  -6.225   1.175  0.00  0.00    +0.300 C 
ATOM      3  O   UNL     1       0.933  -6.914   0.196  0.00  0.00    -0.253 OA
ATOM      4  N   UNL     1       2.063  -6.614   2.085  0.00  0.00    -0.297 N 
ATOM      5  H   UNL     1       0.645  -4.522   2.129  0.00  0.00    +0.151 HD
ATOM      6  H   UNL     1       2.235  -6.065   2.865  0.00  0.00    +0.150 HD
ENDROOT
BRANCH   1   7
ATOM      7  C   UNL     1      -0.521  -4.649   0.359  0.00  0.00    +0.108 C 
BRANCH   7  12
ATOM      8  C   UNL     1      -1.120   1.095   0.562  0.00  0.00    +0.044 C 
ATOM      9  C   UNL     1      -0.964  -0.403   0.509  0.00  0.00    -0.050 A 
ATOM     10  C   UNL     1      -0.962  -1.055  -0.710  0.00  0.00    +0.004 A 
ATOM     11  C   UNL     1      -0.819  -2.429  -0.758  0.00  0.00    +0.006 A 
ATOM     12  C   UNL     1      -0.677  -3.151   0.412  0.00  0.00    -0.027 A 
ATOM     13  C   UNL     1      -0.678  -2.499   1.631  0.00  0.00    +0.006 A 
ATOM     14  C   UNL     1      -0.817  -1.125   1.679  0.00  0.00    +0.004 A 
ENDBRANCH   7  12
BRANCH   7  15
ATOM     15  C   UNL     1      -1.865  -5.312   0.670  0.00  0.00    +0.014 C 
ATOM     16  C   UNL     1      -1.986  -6.078   1.990  0.00  0.00    +0.006 C 
ATOM     17  C   UNL     1      -1.915  -6.842   0.666  0.00  0.00    +0.006 C 
ENDBRANCH   7  15
ENDBRANCH   1   7
BRANCH   4  18
ATOM     18  C   UNL     1       2.798  -7.868   1.895  0.00  0.00    +0.135 C 
BRANCH  18  19
ATOM     19  C   UNL     1       3.766  -8.073   3.062  0.00  0.00    +0.115 C 
BRANCH  19  20
ATOM     20  O   UNL     1       3.025  -8.248   4.271  0.00  0.00    -0.392 OA
ATOM     21  H   UNL     1       2.428  -9.008   4.260  0.00  0.00    +0.210 HD
ENDBRANCH  19  20
BRANCH  19  22
ATOM     22  C   UNL     1       4.621  -9.315   2.803  0.00  0.00    -0.046 C 
BRANCH  22  23
ATOM     23  N   UNL     1       5.560  -9.504   3.917  0.00  0.00    +0.381 N 
ATOM     24  C   UNL     1       6.271 -10.777   3.745  0.00  0.00    -0.078 C 
ATOM     25  C   UNL     1       7.191 -11.018   4.944  0.00  0.00    -0.016 C 
ATOM     26  C   UNL     1       8.204  -9.874   5.040  0.00  0.00    -0.018 C 
ATOM     27  C   UNL     1       7.451  -8.545   5.145  0.00  0.00    -0.016 C 
ATOM     28  C   UNL     1       6.521  -8.395   3.939  0.00  0.00    -0.078 C 
ATOM     29  C   UNL     1       9.076 -10.067   6.283  0.00  0.00    +0.007 C 
ATOM     30  H   UNL     1       5.049  -9.522   4.787  0.00  0.00    -0.082 HD
ENDBRANCH  22  23
ENDBRANCH  19  22
ENDBRANCH  18  19
ENDBRANCH   4  18
TORSDOF 8
