REMARK  Name = ZINC12100267
REMARK  8 active torsions:
REMARK  status: ('A' for Active; 'I' for Inactive)
REMARK    1  A    between atoms: C_4  and  O_7
REMARK    2  A    between atoms: O_7  and  C_8
REMARK    3  A    between atoms: C_8  and  C_9
REMARK    4  A    between atoms: N_11  and  C_12
REMARK    5  A    between atoms: C_21  and  O_23
REMARK    6  A    between atoms: C_28  and  C_29
REMARK    7  A    between atoms: C_28  and  N_64
REMARK    8  A    between atoms: C_32  and  O_35
REMARK                            x       y       z     vdW  Elec       q    Type
REMARK                         _______ _______ _______ _____ _____    ______ ____
ROOT
ATOM      1  C   UNL     1      -1.891  -4.446  -0.004  0.00  0.00    +0.133 C 
ATOM      2  C   UNL     1      -1.809  -4.956  -1.427  0.00  0.00    -0.021 A 
ATOM      3  C   UNL     1      -0.769  -4.905  -2.340  0.00  0.00    +0.006 A 
ATOM      4  C   UNL     1      -0.924  -5.444  -3.602  0.00  0.00    +0.000 A 
ATOM      5  C   UNL     1      -2.122  -6.036  -3.956  0.00  0.00    +0.000 A 
ATOM      6  C   UNL     1      -3.161  -6.087  -3.048  0.00  0.00    +0.004 A 
ATOM      7  C   UNL     1      -3.009  -5.548  -1.782  0.00  0.00    -0.034 A 
ATOM      8  C   UNL     1      -3.970  -5.475  -0.621  0.00  0.00    +0.021 C 
ATOM      9  C   UNL     1      -3.106  -5.169   0.616  0.00  0.00    +0.149 C 
ATOM     10  C   UNL     1      -4.984  -4.354  -0.838  0.00  0.00    -0.005 C 
ATOM     11  C   UNL     1      -5.960  -4.320   0.342  0.00  0.00    -0.077 C 
ATOM     12  C   UNL     1      -5.675  -6.697   0.728  0.00  0.00    -0.077 C 
ATOM     13  C   UNL     1      -4.689  -6.809  -0.438  0.00  0.00    -0.005 C 
ATOM     14  N   UNL     1      -6.649  -5.625   0.430  0.00  0.00    +0.382 N 
ATOM     15  H   UNL     1      -7.099  -5.826  -0.471  0.00  0.00    -0.081 HD
ENDROOT
BRANCH   1  18
ATOM     16  C   UNL     1      -1.044  -2.161   0.000  0.00  0.00    +0.251 C 
ATOM     17  O   UNL     1       0.082  -2.610  -0.013  0.00  0.00    -0.272 OA
ATOM     18  N   UNL     1      -2.102  -2.997   0.006  0.00  0.00    -0.303 N 
ATOM     19  H   UNL     1      -3.003  -2.638   0.017  0.00  0.00    +0.149 HD
BRANCH  16  20
ATOM     20  C   UNL     1      -1.262  -0.670   0.011  0.00  0.00    +0.324 C 
BRANCH  20  21
ATOM     21  O   UNL     1       0.002  -0.004   0.002  0.00  0.00    -0.483 OA
BRANCH  21  25
ATOM     22  C   UNL     1      -0.054   4.121   0.024  0.00  0.00    +0.000 A 
ATOM     23  C   UNL     1       1.153   3.447   0.009  0.00  0.00    +0.004 A 
ATOM     24  C   UNL     1       1.175   2.066   0.002  0.00  0.00    +0.045 A 
ATOM     25  C   UNL     1      -0.016   1.355   0.009  0.00  0.00    +0.121 A 
ATOM     26  C   UNL     1      -1.226   2.033   0.019  0.00  0.00    +0.045 A 
ATOM     27  C   UNL     1      -1.242   3.414   0.031  0.00  0.00    +0.004 A 
ENDBRANCH  21  25
ENDBRANCH  20  21
ENDBRANCH  16  20
ENDBRANCH   1  18
BRANCH   9  28
ATOM     28  O   UNL     1      -2.702  -6.374   1.270  0.00  0.00    -0.389 OA
ATOM     29  H   UNL     1      -2.087  -6.237   2.003  0.00  0.00    +0.210 HD
ENDBRANCH   9  28
BRANCH  14  30
ATOM     30  C   UNL     1      -7.685  -5.579   1.482  0.00  0.00    -0.043 C 
BRANCH  30  31
ATOM     31  C   UNL     1      -8.777  -4.635   1.046  0.00  0.00    -0.064 A 
ATOM     32  C   UNL     1      -8.713  -3.299   1.395  0.00  0.00    +0.005 A 
ATOM     33  C   UNL     1      -9.710  -2.431   0.991  0.00  0.00    +0.045 A 
ATOM     34  C   UNL     1     -10.780  -2.904   0.246  0.00  0.00    +0.117 A 
ATOM     35  C   UNL     1     -10.844  -4.246  -0.097  0.00  0.00    +0.045 A 
ATOM     36  C   UNL     1      -9.842  -5.109   0.303  0.00  0.00    +0.005 A 
BRANCH  34  37
ATOM     37  O   UNL     1     -11.765  -2.053  -0.146  0.00  0.00    -0.507 OA
ATOM     38  H   UNL     1     -12.493  -1.977   0.485  0.00  0.00    +0.292 HD
ENDBRANCH  34  37
ENDBRANCH  30  31
ENDBRANCH  14  30
TORSDOF 8
