REMARK  Name = ZINC39729978
REMARK  6 active torsions:
REMARK  status: ('A' for Active; 'I' for Inactive)
REMARK    1  A    between atoms: C_1  and  C_2
REMARK    2  A    between atoms: C_2  and  S_3
REMARK    3  A    between atoms: S_3  and  C_4
REMARK    4  A    between atoms: C_10  and  C_24
REMARK    5  A    between atoms: C_15  and  C_19
REMARK    6  A    between atoms: C_15  and  C_20
REMARK                            x       y       z     vdW  Elec       q    Type
REMARK                         _______ _______ _______ _____ _____    ______ ____
ROOT
ATOM      1  C   UNL     1      -1.508  -2.383   0.004  0.00  0.00    +0.182 C 
ATOM      2  N   UNL     1      -0.282  -2.893  -0.005  0.00  0.00    -0.154 NA
ATOM      3  C   UNL     1      -0.071  -4.198   0.078  0.00  0.00    +0.250 C 
ATOM      4  O   UNL     1       1.066  -4.626   0.018  0.00  0.00    -0.273 OA
ATOM      5  C   UNL     1      -1.209  -5.154   0.246  0.00  0.00    +0.156 C 
ATOM      6  C   UNL     1      -1.115  -6.329  -0.723  0.00  0.00    +0.073 C 
ATOM      7  C   UNL     1      -2.393  -7.136  -0.614  0.00  0.00    +0.025 C 
ATOM      8  C   UNL     1      -3.597  -6.483  -0.337  0.00  0.00    +0.051 C 
ATOM      9  C   UNL     1      -4.886  -7.267  -0.260  0.00  0.00    +0.062 C 
ATOM     10  C   UNL     1      -4.783  -8.504  -1.154  0.00  0.00    -0.023 C 
ATOM     11  C   UNL     1      -3.571  -9.330  -0.709  0.00  0.00    +0.086 C 
ATOM     12  C   UNL     1      -2.336  -8.476  -0.792  0.00  0.00    +0.162 C 
ATOM     13  O   UNL     1      -1.149  -9.056  -1.048  0.00  0.00    -0.292 OA
ATOM     14  C   UNL     1      -4.602  -8.072  -2.611  0.00  0.00    +0.011 C 
ATOM     15  C   UNL     1      -6.054  -9.344  -1.018  0.00  0.00    +0.011 C 
ATOM     16  N   UNL     1      -3.632  -5.183  -0.110  0.00  0.00    -0.236 NA
ATOM     17  C   UNL     1      -2.531  -4.463   0.056  0.00  0.00    +0.145 C 
ATOM     18  N   UNL     1      -2.599  -3.149   0.010  0.00  0.00    -0.208 NA
ENDROOT
BRANCH   6  19
ATOM     19  C   UNL     1      -0.955  -5.816  -2.130  0.00  0.00    -0.039 A 
ATOM     20  C   UNL     1      -1.926  -5.002  -2.684  0.00  0.00    +0.006 A 
ATOM     21  C   UNL     1      -1.780  -4.531  -3.975  0.00  0.00    +0.020 A 
ATOM     22  C   UNL     1      -0.661  -4.873  -4.713  0.00  0.00    +0.041 A 
ATOM     23  C   UNL     1       0.310  -5.688  -4.159  0.00  0.00    +0.020 A 
ATOM     24  C   UNL     1       0.165  -6.154  -2.866  0.00  0.00    +0.006 A 
ATOM     25 CL   UNL     1      -0.477  -4.282  -6.335  0.00  0.00    -0.084 Cl
ENDBRANCH   6  19
BRANCH   1  26
ATOM     26  S   UNL     1      -1.700  -0.632   0.015  0.00  0.00    -0.089 S 
BRANCH  26  28
ATOM     27  C   UNL     1      -0.019   1.526   0.010  0.00  0.00    +0.016 C 
ATOM     28  C   UNL     1       0.002  -0.004   0.002  0.00  0.00    +0.074 C 
ENDBRANCH  26  28
ENDBRANCH   1  26
TORSDOF 3
