REMARK  Name = ZINC66396556
REMARK  12 active torsions:
REMARK  status: ('A' for Active; 'I' for Inactive)
REMARK    1  A    between atoms: C_1  and  C_2
REMARK    2  A    between atoms: C_7  and  C_8
REMARK    3  A    between atoms: C_8  and  C_10
REMARK    4  A    between atoms: C_8  and  N_28
REMARK    5  A    between atoms: C_10  and  C_11
REMARK    6  A    between atoms: N_13  and  C_14
REMARK    7  A    between atoms: C_14  and  C_16
REMARK    8  A    between atoms: C_14  and  C_18
REMARK    9  A    between atoms: C_21  and  C_24
REMARK   10  A    between atoms: C_24  and  C_25
REMARK   11  A    between atoms: C_24  and  C_26
REMARK   12  A    between atoms: C_24  and  C_27
REMARK                            x       y       z     vdW  Elec       q    Type
REMARK                         _______ _______ _______ _____ _____    ______ ____
ROOT
ATOM      1  C   UNL     1      -1.441   1.293   4.069  0.00  0.00    +0.216 C 
ATOM      2  O   UNL     1      -0.408   1.535   4.657  0.00  0.00    -0.276 OA
ATOM      3  N   UNL     1      -2.610   1.772   4.537  0.00  0.00    -0.296 N 
ATOM      4  H   UNL     1      -3.437   1.578   4.067  0.00  0.00    +0.150 HD
ENDROOT
BRANCH   1   5
ATOM      5  C   UNL     1      -1.416   0.458   2.815  0.00  0.00    +0.123 C 
BRANCH   5   6
ATOM      6  C   UNL     1       0.024   0.045   2.505  0.00  0.00    +0.114 C 
BRANCH   6  13
ATOM      7  C   UNL     1       2.552  -0.399   1.178  0.00  0.00    +0.044 C 
ATOM      8  C   UNL     1       1.274  -0.898   0.553  0.00  0.00    -0.045 A 
ATOM      9  C   UNL     1       1.312  -1.573  -0.653  0.00  0.00    +0.004 A 
ATOM     10  C   UNL     1       0.141  -2.030  -1.227  0.00  0.00    +0.000 A 
ATOM     11  C   UNL     1      -1.069  -1.812  -0.594  0.00  0.00    +0.000 A 
ATOM     12  C   UNL     1      -1.107  -1.138   0.612  0.00  0.00    +0.006 A 
ATOM     13  C   UNL     1       0.065  -0.685   1.188  0.00  0.00    -0.024 A 
ENDBRANCH   6  13
BRANCH   6  14
ATOM     14  N   UNL     1       0.520  -0.834   3.567  0.00  0.00    -0.292 N 
ATOM     15  C   UNL     1      -0.067  -2.029   3.781  0.00  0.00    +0.298 C 
ATOM     16  O   UNL     1      -0.946  -2.416   3.036  0.00  0.00    -0.253 OA
ATOM     17  N   UNL     1       0.321  -2.793   4.821  0.00  0.00    -0.313 N 
ATOM     18  H   UNL     1       1.270  -0.557   4.116  0.00  0.00    +0.151 HD
ATOM     19  H   UNL     1       1.022  -2.484   5.415  0.00  0.00    +0.146 HD
ATOM     20  H   UNL     1      -0.102  -3.653   4.975  0.00  0.00    +0.146 HD
ENDBRANCH   6  14
ENDBRANCH   5   6
ENDBRANCH   1   5
BRANCH   3  21
ATOM     21  C   UNL     1      -2.634   2.584   5.756  0.00  0.00    +0.207 C 
BRANCH  21  22
ATOM     22  C   UNL     1      -3.992   2.481   6.402  0.00  0.00    -0.013 A 
ATOM     23  C   UNL     1      -5.131   2.473   5.619  0.00  0.00    +0.007 A 
ATOM     24  C   UNL     1      -6.377   2.379   6.211  0.00  0.00    +0.004 A 
ATOM     25  C   UNL     1      -6.483   2.292   7.586  0.00  0.00    -0.042 A 
ATOM     26  C   UNL     1      -5.344   2.299   8.370  0.00  0.00    +0.004 A 
ATOM     27  C   UNL     1      -4.098   2.389   7.777  0.00  0.00    +0.007 A 
BRANCH  25  28
ATOM     28  C   UNL     1      -7.841   2.191   8.232  0.00  0.00    -0.013 C 
ATOM     29  C   UNL     1      -8.554   0.935   7.726  0.00  0.00    +0.015 C 
ATOM     30  C   UNL     1      -7.679   2.108   9.751  0.00  0.00    +0.015 C 
ATOM     31  C   UNL     1      -8.670   3.426   7.874  0.00  0.00    +0.015 C 
ENDBRANCH  25  28
ENDBRANCH  21  22
BRANCH  21  32
ATOM     32  C   UNL     1      -2.358   3.989   5.415  0.00  0.00    +0.090 C 
ATOM     33  N   UNL     1      -2.145   5.073   5.152  0.00  0.00    -0.194 NA
ENDBRANCH  21  32
ENDBRANCH   3  21
TORSDOF 8
