REMARK  Name = ZINC05583392
REMARK  5 active torsions:
REMARK  status: ('A' for Active; 'I' for Inactive)
REMARK    1  A    between atoms: C_4  and  N_23
REMARK    2  A    between atoms: C_5  and  C_7
REMARK    3  A    between atoms: N_8  and  N_9
REMARK    4  A    between atoms: C_10  and  C_12
REMARK    5  A    between atoms: N_14  and  C_15
REMARK                            x       y       z     vdW  Elec       q    Type
REMARK                         _______ _______ _______ _____ _____    ______ ____
ROOT
ATOM      1  N   UNL     1       3.353   1.477   0.162  0.00  0.00    -0.199 N 
ATOM      2  C   UNL     1       2.245   0.711   0.190  0.00  0.00    +0.318 C 
ATOM      3  O   UNL     1       2.343  -0.497   0.273  0.00  0.00    -0.263 OA
ATOM      4  H   UNL     1       3.275   2.442   0.095  0.00  0.00    +0.178 HD
ENDROOT
BRANCH   2   5
ATOM      5  C   UNL     1       0.897   1.346   0.119  0.00  0.00    +0.305 C 
ATOM      6  O   UNL     1       0.799   2.553   0.036  0.00  0.00    -0.265 OA
ATOM      7  N   UNL     1      -0.211   0.580   0.147  0.00  0.00    -0.278 N 
ATOM      8  H   UNL     1      -0.133  -0.387   0.152  0.00  0.00    +0.155 HD
BRANCH   7   9
ATOM      9  C   UNL     1      -1.474   1.179   0.165  0.00  0.00    +0.035 A 
ATOM     10  C   UNL     1      -2.512   0.592   0.879  0.00  0.00    +0.025 A 
ATOM     11  C   UNL     1      -3.757   1.189   0.900  0.00  0.00    +0.023 A 
ATOM     12  C   UNL     1      -3.976   2.363   0.201  0.00  0.00    +0.059 A 
ATOM     13  C   UNL     1      -2.945   2.947  -0.516  0.00  0.00    +0.061 A 
ATOM     14  C   UNL     1      -1.695   2.357  -0.535  0.00  0.00    +0.044 A 
ATOM     15 CL   UNL     1      -3.222   4.421  -1.391  0.00  0.00    -0.082 Cl
ATOM     16 CL   UNL     1      -5.544   3.107   0.225  0.00  0.00    -0.082 Cl
ENDBRANCH   7   9
ENDBRANCH   2   5
BRANCH   1  18
ATOM     17  C   UNL     1       5.687   1.619   0.201  0.00  0.00    +0.140 C 
ATOM     18  N   UNL     1       4.619   0.880   0.228  0.00  0.00    -0.187 NA
BRANCH  17  23
ATOM     19  C   UNL     1       8.391  -0.982   0.309  0.00  0.00    +0.001 A 
ATOM     20  C   UNL     1       9.522  -0.189   0.402  0.00  0.00    +0.002 A 
ATOM     21  C   UNL     1       9.408   1.190   0.429  0.00  0.00    +0.033 A 
ATOM     22  C   UNL     1       8.165   1.784   0.364  0.00  0.00    +0.135 A 
ATOM     23  C   UNL     1       7.019   0.991   0.271  0.00  0.00    +0.025 A 
ATOM     24  C   UNL     1       7.141  -0.401   0.249  0.00  0.00    +0.012 A 
BRANCH  22  25
ATOM     25  N   UNL     1       8.046   3.259   0.394  0.00  0.00    +0.057 N 
ATOM     26  O   UNL     1       9.034   3.946   0.581  0.00  0.00    -0.126 OA
ATOM     27  O   UNL     1       6.960   3.786   0.230  0.00  0.00    -0.126 OA
ENDBRANCH  22  25
ENDBRANCH  17  23
ENDBRANCH   1  18
TORSDOF 5
