REMARK  Name = ZINC59247901
REMARK  4 active torsions:
REMARK  status: ('A' for Active; 'I' for Inactive)
REMARK    1  A    between atoms: C_4  and  N_7
REMARK    2  A    between atoms: C_11  and  C_12
REMARK    3  A    between atoms: C_15  and  S_17
REMARK    4  A    between atoms: S_17  and  C_18
REMARK                            x       y       z     vdW  Elec       q    Type
REMARK                         _______ _______ _______ _____ _____    ______ ____
ROOT
ATOM      1  N   UNL     1       3.659  -0.616  -0.163  0.00  0.00    -0.188 N 
ATOM      2  C   UNL     1       3.671  -1.949   0.054  0.00  0.00    +0.264 C 
ATOM      3  O   UNL     1       2.650  -2.546   0.343  0.00  0.00    -0.269 OA
ATOM      4  C   UNL     1       4.952  -2.656  -0.070  0.00  0.00    +0.105 C 
ATOM      5  C   UNL     1       5.042  -4.040   0.140  0.00  0.00    +0.064 C 
ATOM      6  C   UNL     1       6.096  -1.887  -0.411  0.00  0.00    +0.277 C 
ATOM      7  O   UNL     1       7.303  -2.479  -0.541  0.00  0.00    -0.268 OA
ATOM      8  N   UNL     1       5.964  -0.584  -0.601  0.00  0.00    -0.123 NA
ATOM      9  C   UNL     1       4.791   0.031  -0.488  0.00  0.00    +0.340 C 
ATOM     10  O   UNL     1       4.741   1.233  -0.681  0.00  0.00    -0.250 OA
ENDROOT
BRANCH   1  14
ATOM     11  C   UNL     1       0.085   1.504   0.159  0.00  0.00    +0.000 A 
ATOM     12  C   UNL     1       0.666   0.957   1.288  0.00  0.00    +0.002 A 
ATOM     13  C   UNL     1       1.851   0.254   1.184  0.00  0.00    +0.024 A 
ATOM     14  C   UNL     1       2.457   0.097  -0.055  0.00  0.00    +0.046 A 
ATOM     15  C   UNL     1       1.870   0.646  -1.187  0.00  0.00    +0.024 A 
ATOM     16  C   UNL     1       0.686   1.349  -1.077  0.00  0.00    +0.002 A 
ENDBRANCH   1  14
BRANCH   5  17
ATOM     17  C   UNL     1       6.289  -4.652   0.215  0.00  0.00    +0.131 A 
ATOM     18  C   UNL     1       6.636  -5.878  -0.356  0.00  0.00    +0.065 A 
ATOM     19  C   UNL     1       7.967  -6.105  -0.038  0.00  0.00    +0.071 A 
ATOM     20  C   UNL     1       8.398  -5.024   0.713  0.00  0.00    +0.181 A 
ATOM     21  O   UNL     1       7.379  -4.161   0.849  0.00  0.00    -0.448 OA
ATOM     22 BR   UNL     1       8.999  -7.609  -0.535  0.00  0.00    -0.046 Br
BRANCH  20  23
ATOM     23  S   UNL     1      10.018  -4.813   1.373  0.00  0.00    -0.051 S 
BRANCH  23  24
ATOM     24  C   UNL     1       9.888  -5.422   3.022  0.00  0.00    +0.016 A 
ATOM     25  C   UNL     1       8.711  -6.023   3.452  0.00  0.00    +0.016 A 
ATOM     26  C   UNL     1       8.613  -6.499   4.744  0.00  0.00    +0.021 A 
ATOM     27  C   UNL     1       9.685  -6.379   5.611  0.00  0.00    +0.041 A 
ATOM     28  C   UNL     1      10.859  -5.781   5.186  0.00  0.00    +0.021 A 
ATOM     29  C   UNL     1      10.965  -5.308   3.893  0.00  0.00    +0.016 A 
ATOM     30 CL   UNL     1       9.558  -6.980   7.234  0.00  0.00    -0.084 Cl
ENDBRANCH  23  24
ENDBRANCH  20  23
ENDBRANCH   5  17
TORSDOF 4
