REMARK  Name = ZINC20170782
REMARK  11 active torsions:
REMARK  status: ('A' for Active; 'I' for Inactive)
REMARK    1  A    between atoms: C_1  and  C_2
REMARK    2  A    between atoms: C_2  and  O_3
REMARK    3  A    between atoms: O_3  and  C_4
REMARK    4  A    between atoms: C_7  and  C_29
REMARK    5  A    between atoms: C_9  and  C_27
REMARK    6  A    between atoms: C_10  and  S_14
REMARK    7  A    between atoms: S_14  and  C_15
REMARK    8  A    between atoms: C_15  and  C_16
REMARK    9  A    between atoms: N_18  and  C_19
REMARK   10  A    between atoms: C_20  and  C_26
REMARK   11  A    between atoms: C_24  and  C_25
REMARK                            x       y       z     vdW  Elec       q    Type
REMARK                         _______ _______ _______ _____ _____    ______ ____
ROOT
ATOM      1  C   UNL     1       3.337  -8.710   3.489  0.00  0.00    +0.341 C 
ATOM      2  O   UNL     1       4.487  -8.374   3.647  0.00  0.00    -0.245 OA
ATOM      3  C   UNL     1       2.857  -9.135   2.125  0.00  0.00    +0.111 C 
ATOM      4  C   UNL     1       4.014  -9.053   1.129  0.00  0.00    +0.107 C 
ATOM      5  C   UNL     1       4.322  -7.609   0.831  0.00  0.00    +0.069 C 
ATOM      6  C   UNL     1       3.321  -6.686   0.815  0.00  0.00    +0.083 C 
ATOM      7  N   UNL     1       2.017  -7.063   1.059  0.00  0.00    -0.275 N 
ATOM      8  C   UNL     1       1.742  -8.225   1.680  0.00  0.00    +0.252 C 
ATOM      9  O   UNL     1       0.589  -8.541   1.882  0.00  0.00    -0.270 OA
ATOM     10  H   UNL     1       1.188  -6.412   0.746  0.00  0.00    +0.156 HD
ENDROOT
BRANCH   4  11
ATOM     11  C   UNL     1       3.628  -9.754  -0.149  0.00  0.00    +0.001 A 
ATOM     12  C   UNL     1       2.534  -9.318  -0.872  0.00  0.00    +0.007 A 
ATOM     13  C   UNL     1       2.179  -9.960  -2.044  0.00  0.00    +0.000 A 
ATOM     14  C   UNL     1       2.919 -11.037  -2.494  0.00  0.00    +0.003 A 
ATOM     15  C   UNL     1       4.014 -11.474  -1.773  0.00  0.00    +0.038 A 
ATOM     16  C   UNL     1       4.372 -10.829  -0.601  0.00  0.00    +0.127 A 
ATOM     17  F   UNL     1       5.446 -11.252   0.102  0.00  0.00    -0.205 F 
ENDBRANCH   4  11
BRANCH   5  18
ATOM     18  C   UNL     1       5.671  -7.204   0.569  0.00  0.00    +0.098 C 
ATOM     19  N   UNL     1       6.741  -6.884   0.362  0.00  0.00    -0.191 NA
ENDBRANCH   5  18
BRANCH   1  20
ATOM     20  O   UNL     1       2.488  -8.704   4.528  0.00  0.00    -0.462 OA
BRANCH  20  22
ATOM     21  C   UNL     1       1.913  -8.341   6.867  0.00  0.00    +0.048 C 
ATOM     22  C   UNL     1       3.020  -8.283   5.812  0.00  0.00    +0.229 C 
ENDBRANCH  20  22
ENDBRANCH   1  20
BRANCH   6  23
ATOM     23  S   UNL     1       3.693  -4.998   0.472  0.00  0.00    -0.100 S 
BRANCH  23  24
ATOM     24  C   UNL     1       2.034  -4.283   0.576  0.00  0.00    +0.171 C 
BRANCH  24  25
ATOM     25  C   UNL     1       2.107  -2.802   0.310  0.00  0.00    +0.227 C 
ATOM     26  O   UNL     1       3.177  -2.281   0.073  0.00  0.00    -0.275 OA
ATOM     27  N   UNL     1       0.985  -2.056   0.335  0.00  0.00    -0.284 N 
ATOM     28  H   UNL     1       0.007  -2.538   0.478  0.00  0.00    +0.155 HD
BRANCH  27  29
ATOM     29  C   UNL     1       1.064  -0.667   0.179  0.00  0.00    +0.039 A 
ATOM     30  C   UNL     1       1.636  -0.127  -0.965  0.00  0.00    -0.029 A 
ATOM     31  C   UNL     1       1.712   1.244  -1.115  0.00  0.00    +0.005 A 
ATOM     32  C   UNL     1       1.220   2.078  -0.128  0.00  0.00    +0.001 A 
ATOM     33  C   UNL     1       0.650   1.543   1.012  0.00  0.00    +0.005 A 
ATOM     34  C   UNL     1       0.570   0.173   1.169  0.00  0.00    -0.029 A 
ATOM     35  C   UNL     1      -0.052  -0.409   2.412  0.00  0.00    +0.045 C 
ATOM     36  C   UNL     1       2.174  -1.035  -2.041  0.00  0.00    +0.045 C 
ENDBRANCH  27  29
ENDBRANCH  24  25
ENDBRANCH  23  24
ENDBRANCH   6  23
TORSDOF 8
