REMARK  Name = ZINC58000609
REMARK  3 active torsions:
REMARK  status: ('A' for Active; 'I' for Inactive)
REMARK    1  A    between atoms: C_5  and  C_6
REMARK    2  A    between atoms: C_6  and  N_7
REMARK    3  A    between atoms: C_9  and  C_17
REMARK                            x       y       z     vdW  Elec       q    Type
REMARK                         _______ _______ _______ _____ _____    ______ ____
ROOT
ATOM      1  N   UNL     1      -1.717  -1.032  -1.368  0.00  0.00    -0.324 N 
ATOM      2  C   UNL     1      -2.882  -1.738  -1.613  0.00  0.00    +0.137 A 
ATOM      3  C   UNL     1      -3.289  -1.976  -2.937  0.00  0.00    +0.092 A 
ATOM      4  C   UNL     1      -4.471  -2.692  -3.155  0.00  0.00    +0.027 A 
ATOM      5  C   UNL     1      -5.190  -3.134  -2.057  0.00  0.00    -0.025 A 
ATOM      6  C   UNL     1      -4.729  -2.862  -0.781  0.00  0.00    +0.047 A 
ATOM      7  N   UNL     1      -3.604  -2.187  -0.601  0.00  0.00    -0.236 NA
ATOM      8  C   UNL     1      -5.684  -3.448   0.239  0.00  0.00    +0.056 C 
ATOM      9  C   UNL     1      -6.990  -3.718  -0.537  0.00  0.00    +0.011 C 
ATOM     10  C   UNL     1      -6.483  -3.917  -1.981  0.00  0.00    +0.037 C 
ATOM     11  H   UNL     1      -1.186  -0.701  -2.109  0.00  0.00    +0.148 HD
ENDROOT
BRANCH   3  12
ATOM     12  C   UNL     1      -2.511  -1.498  -4.039  0.00  0.00    +0.103 C 
ATOM     13  N   UNL     1      -1.893  -1.118  -4.914  0.00  0.00    -0.191 NA
ENDBRANCH   3  12
BRANCH   1  14
ATOM     14  C   UNL     1      -1.286  -0.786   0.011  0.00  0.00    +0.138 C 
BRANCH  14  19
ATOM     15  C   UNL     1      -0.017   1.378   0.010  0.00  0.00    +0.013 A 
ATOM     16  C   UNL     1       1.160   2.051   0.002  0.00  0.00    +0.045 A 
ATOM     17  S   UNL     1       2.348   0.719  -0.017  0.00  0.00    -0.105 S 
ATOM     18  C   UNL     1       1.196  -0.645  -0.013  0.00  0.00    +0.050 A 
ATOM     19  C   UNL     1       0.002  -0.004   0.002  0.00  0.00    -0.023 A 
ENDBRANCH  14  19
ENDBRANCH   1  14
TORSDOF 3
