REMARK  Name = ZINC42666878
REMARK  13 active torsions:
REMARK  status: ('A' for Active; 'I' for Inactive)
REMARK    1  A    between atoms: C_1  and  C_2
REMARK    2  A    between atoms: C_2  and  C_4
REMARK    3  A    between atoms: C_2  and  N_14
REMARK    4  A    between atoms: N_9  and  C_10
REMARK    5  A    between atoms: C_10  and  C_11
REMARK    6  A    between atoms: C_11  and  C_12
REMARK    7  A    between atoms: C_11  and  C_13
REMARK    8  A    between atoms: N_14  and  C_15
REMARK    9  A    between atoms: C_19  and  N_21
REMARK   10  A    between atoms: C_22  and  C_24
REMARK   11  A    between atoms: C_24  and  C_25
REMARK   12  A    between atoms: C_24  and  C_26
REMARK   13  A    between atoms: C_24  and  C_27
REMARK                            x       y       z     vdW  Elec       q    Type
REMARK                         _______ _______ _______ _____ _____    ______ ____
ROOT
ATOM      1  N   UNL     1       0.764  -0.167   1.284  0.00  0.00    -0.333 N 
ATOM      2  H   UNL     1       0.284  -0.289   2.117  0.00  0.00    +0.147 HD
ENDROOT
BRANCH   1   3
ATOM      3  C   UNL     1       2.131  -0.448   1.217  0.00  0.00    +0.029 A 
ATOM      4  C   UNL     1       2.822  -0.268   0.025  0.00  0.00    +0.023 A 
ATOM      5  C   UNL     1       4.173  -0.545  -0.042  0.00  0.00    +0.004 A 
ATOM      6  C   UNL     1       4.843  -1.004   1.077  0.00  0.00    +0.023 A 
ATOM      7  C   UNL     1       4.159  -1.186   2.272  0.00  0.00    +0.035 A 
ATOM      8  C   UNL     1       2.802  -0.902   2.344  0.00  0.00    +0.046 A 
BRANCH   7   9
ATOM      9  N   UNL     1       4.838  -1.650   3.404  0.00  0.00    -0.285 N 
ATOM     10  C   UNL     1       6.126  -1.308   3.604  0.00  0.00    +0.223 C 
ATOM     11  O   UNL     1       6.668  -0.522   2.856  0.00  0.00    -0.275 OA
ATOM     12  H   UNL     1       4.381  -2.218   4.044  0.00  0.00    +0.155 HD
BRANCH  10  13
ATOM     13  C   UNL     1       6.893  -1.902   4.758  0.00  0.00    +0.039 C 
ATOM     14  C   UNL     1       8.320  -1.352   4.758  0.00  0.00    +0.020 C 
ATOM     15  C   UNL     1       6.203  -1.533   6.073  0.00  0.00    +0.020 C 
ATOM     16  C   UNL     1       6.933  -3.425   4.613  0.00  0.00    +0.020 C 
ENDBRANCH  10  13
ENDBRANCH   7   9
ENDBRANCH   1   3
BRANCH   1  18
ATOM     17  C   UNL     1       0.214   1.830  -0.016  0.00  0.00    +0.038 C 
ATOM     18  C   UNL     1       0.057   0.312   0.094  0.00  0.00    +0.154 C 
BRANCH  18  19
ATOM     19  C   UNL     1      -1.405  -0.034   0.205  0.00  0.00    +0.240 C 
ATOM     20  O   UNL     1      -1.816  -0.624   1.182  0.00  0.00    -0.273 OA
ATOM     21  N   UNL     1      -2.257   0.311  -0.781  0.00  0.00    -0.239 N 
ATOM     22  C   UNL     1      -3.565   0.001  -0.681  0.00  0.00    +0.306 C 
ATOM     23  O   UNL     1      -3.976  -0.590   0.298  0.00  0.00    -0.252 OA
ATOM     24  N   UNL     1      -4.416   0.346  -1.667  0.00  0.00    -0.299 N 
ATOM     25  H   UNL     1      -1.929   0.783  -1.562  0.00  0.00    +0.159 HD
ATOM     26  H   UNL     1      -4.088   0.818  -2.448  0.00  0.00    +0.150 HD
BRANCH  24  27
ATOM     27  C   UNL     1      -5.838   0.009  -1.558  0.00  0.00    +0.108 C 
BRANCH  27  28
ATOM     28  C   UNL     1      -6.577   0.510  -2.801  0.00  0.00    -0.000 C 
ATOM     29  C   UNL     1      -8.035   0.050  -2.747  0.00  0.00    +0.009 C 
ATOM     30  C   UNL     1      -6.526   2.039  -2.843  0.00  0.00    +0.009 C 
ENDBRANCH  27  28
ENDBRANCH  24  27
ENDBRANCH  18  19
ENDBRANCH   1  18
TORSDOF 7
