REMARK  Name = ZINC30498727
REMARK  11 active torsions:
REMARK  status: ('A' for Active; 'I' for Inactive)
REMARK    1  A    between atoms: C_1  and  C_2
REMARK    2  A    between atoms: C_2  and  C_3
REMARK    3  A    between atoms: N_5  and  C_6
REMARK    4  A    between atoms: C_9  and  C_12
REMARK    5  A    between atoms: C_12  and  C_14
REMARK    6  A    between atoms: C_12  and  N_15
REMARK    7  A    between atoms: N_15  and  C_16
REMARK    8  A    between atoms: C_16  and  C_18
REMARK    9  A    between atoms: C_16  and  C_19
REMARK   10  A    between atoms: N_21  and  C_22
REMARK   11  A    between atoms: C_26  and  N_28
REMARK                            x       y       z     vdW  Elec       q    Type
REMARK                         _______ _______ _______ _____ _____    ______ ____
ROOT
ATOM      1  N   UNL     1      -5.839  -2.461   1.017  0.00  0.00    +0.391 N 
ATOM      2  H   UNL     1      -5.490  -3.343   0.460  0.00  0.00    -0.084 HD
ATOM      3  H   UNL     1      -5.063  -2.148   1.732  0.00  0.00    -0.084 HD
ENDROOT
BRANCH   1   4
ATOM      4  C   UNL     1      -6.110  -1.365   0.078  0.00  0.00    -0.043 C 
ATOM      5  C   UNL     1      -6.665  -1.938  -1.228  0.00  0.00    -0.009 C 
BRANCH   4   9
ATOM      6  C   UNL     1      -2.486   0.754  -0.724  0.00  0.00    +0.033 A 
ATOM      7  C   UNL     1      -2.475  -0.631  -0.629  0.00  0.00    +0.023 A 
ATOM      8  C   UNL     1      -3.647  -1.312  -0.364  0.00  0.00    +0.004 A 
ATOM      9  C   UNL     1      -4.832  -0.618  -0.205  0.00  0.00    -0.062 A 
ATOM     10  C   UNL     1      -4.847   0.762  -0.304  0.00  0.00    +0.004 A 
ATOM     11  C   UNL     1      -3.678   1.449  -0.563  0.00  0.00    +0.023 A 
BRANCH   6  14
ATOM     12  C   UNL     1      -1.086   2.655  -0.425  0.00  0.00    +0.217 C 
ATOM     13  O   UNL     1      -1.956   3.177   0.240  0.00  0.00    -0.275 OA
ATOM     14  N   UNL     1      -1.300   1.448  -0.987  0.00  0.00    -0.286 N 
ATOM     15  H   UNL     1      -0.541   1.009  -1.651  0.00  0.00    +0.155 HD
BRANCH  12  17
ATOM     16  C   UNL     1       0.219   4.691   0.122  0.00  0.00    +0.013 C 
ATOM     17  C   UNL     1       0.235   3.353  -0.619  0.00  0.00    +0.093 C 
ENDBRANCH  12  17
ENDBRANCH   6  14
ENDBRANCH   4   9
ENDBRANCH   1   4
BRANCH   1  18
ATOM     18  C   UNL     1      -7.049  -2.825   1.766  0.00  0.00    +0.014 C 
ATOM     19  C   UNL     1      -7.193  -1.907   2.981  0.00  0.00    -0.004 C 
BRANCH  18  20
ATOM     20  C   UNL     1      -6.944  -4.256   2.227  0.00  0.00    +0.203 C 
ATOM     21  O   UNL     1      -5.957  -4.908   1.958  0.00  0.00    -0.277 OA
ATOM     22  N   UNL     1      -7.946  -4.811   2.937  0.00  0.00    -0.287 N 
ATOM     23  H   UNL     1      -8.875  -4.248   3.109  0.00  0.00    +0.155 HD
BRANCH  22  24
ATOM     24  C   UNL     1      -7.804  -6.102   3.456  0.00  0.00    +0.035 A 
ATOM     25  C   UNL     1      -6.558  -6.550   3.876  0.00  0.00    +0.023 A 
ATOM     26  C   UNL     1      -6.421  -7.825   4.387  0.00  0.00    +0.004 A 
ATOM     27  C   UNL     1      -7.522  -8.656   4.483  0.00  0.00    +0.033 A 
ATOM     28  C   UNL     1      -8.764  -8.213   4.066  0.00  0.00    +0.128 A 
ATOM     29  C   UNL     1      -8.909  -6.936   3.559  0.00  0.00    +0.056 A 
BRANCH  28  30
ATOM     30  N   UNL     1      -9.941  -9.105   4.171  0.00  0.00    +0.056 N 
ATOM     31  O   UNL     1      -9.815 -10.228   4.624  0.00  0.00    -0.126 OA
ATOM     32  O   UNL     1     -11.035  -8.715   3.804  0.00  0.00    -0.126 OA
ENDBRANCH  28  30
ENDBRANCH  22  24
ENDBRANCH  18  20
ENDBRANCH   1  18
TORSDOF 8
