REMARK  Name = ZINC05956701
REMARK  6 active torsions:
REMARK  status: ('A' for Active; 'I' for Inactive)
REMARK    1  A    between atoms: C_1  and  C_2
REMARK    2  A    between atoms: C_4  and  C_23
REMARK    3  A    between atoms: C_13  and  N_15
REMARK    4  A    between atoms: N_15  and  N_16
REMARK    5  A    between atoms: C_26  and  O_29
REMARK    6  A    between atoms: O_29  and  C_30
REMARK                            x       y       z     vdW  Elec       q    Type
REMARK                         _______ _______ _______ _____ _____    ______ ____
ROOT
ATOM      1  C   UNL     1       3.133  -1.938  -1.622  0.00  0.00    +0.013 C 
ATOM      2  C   UNL     1       1.827  -2.683  -1.339  0.00  0.00    +0.055 C 
ATOM      3  C   UNL     1       1.379  -2.411   0.100  0.00  0.00    +0.060 C 
ATOM      4  C   UNL     1       2.293  -3.130   1.060  0.00  0.00    +0.006 A 
ATOM      5  C   UNL     1       2.305  -2.735   2.389  0.00  0.00    +0.057 A 
ATOM      6  C   UNL     1       3.127  -3.372   3.301  0.00  0.00    +0.167 A 
ATOM      7  C   UNL     1       3.948  -4.417   2.881  0.00  0.00    +0.170 A 
ATOM      8  C   UNL     1       3.936  -4.809   1.555  0.00  0.00    +0.095 A 
ATOM      9  C   UNL     1       3.109  -4.165   0.640  0.00  0.00    +0.130 A 
ATOM     10  O   UNL     1       3.131  -4.580  -0.655  0.00  0.00    -0.472 OA
ATOM     11  C   UNL     1       2.046  -4.192  -1.498  0.00  0.00    +0.262 C 
ATOM     12  O   UNL     1       4.654  -4.876   3.956  0.00  0.00    -0.452 OA
ATOM     13  C   UNL     1       3.959  -4.377   5.114  0.00  0.00    +0.466 C 
ATOM     14  O   UNL     1       3.320  -3.177   4.639  0.00  0.00    -0.453 OA
ENDROOT
BRANCH   3  15
ATOM     15  C   UNL     1       1.433  -0.929   0.370  0.00  0.00    -0.039 A 
ATOM     16  C   UNL     1       0.268  -0.185   0.368  0.00  0.00    +0.008 A 
ATOM     17  C   UNL     1       0.315   1.174   0.617  0.00  0.00    +0.046 A 
ATOM     18  C   UNL     1       1.532   1.790   0.867  0.00  0.00    +0.120 A 
ATOM     19  C   UNL     1       2.699   1.041   0.869  0.00  0.00    +0.046 A 
ATOM     20  C   UNL     1       2.647  -0.317   0.620  0.00  0.00    +0.008 A 
BRANCH  18  21
ATOM     21  O   UNL     1       1.580   3.126   1.112  0.00  0.00    -0.495 OA
ATOM     22  C   UNL     1       2.868   3.694   1.362  0.00  0.00    +0.277 C 
ENDBRANCH  18  21
ENDBRANCH   3  15
BRANCH  11  23
ATOM     23  N   UNL     1       2.371  -4.501  -2.897  0.00  0.00    -0.201 NA
ATOM     24  H   UNL     1       1.972  -3.816  -3.521  0.00  0.00    +0.148 HD
BRANCH  23  25
ATOM     25  N   UNL     1       1.961  -5.762  -3.228  0.00  0.00    -0.232 N 
ATOM     26  C   UNL     1       2.171  -6.233  -4.473  0.00  0.00    +0.311 C 
ATOM     27  O   UNL     1       1.806  -7.355  -4.767  0.00  0.00    -0.252 OA
ATOM     28  N   UNL     1       2.784  -5.461  -5.392  0.00  0.00    -0.312 N 
ATOM     29  H   UNL     1       1.520  -6.318  -2.566  0.00  0.00    +0.171 HD
ATOM     30  H   UNL     1       3.074  -4.566  -5.157  0.00  0.00    +0.147 HD
ATOM     31  H   UNL     1       2.934  -5.800  -6.288  0.00  0.00    +0.147 HD
ENDBRANCH  23  25
ENDBRANCH  11  23
TORSDOF 4
