REMARK  Name = ZINC14783897
REMARK  14 active torsions:
REMARK  status: ('A' for Active; 'I' for Inactive)
REMARK    1  A    between atoms: C_1  and  C_2
REMARK    2  A    between atoms: C_2  and  C_3
REMARK    3  A    between atoms: C_2  and  C_4
REMARK    4  A    between atoms: C_4  and  O_5
REMARK    5  A    between atoms: O_5  and  C_6
REMARK    6  A    between atoms: C_11  and  C_12
REMARK    7  A    between atoms: N_14  and  C_15
REMARK    8  A    between atoms: C_15  and  N_17
REMARK    9  A    between atoms: N_17  and  C_18
REMARK   10  A    between atoms: C_23  and  C_24
REMARK   11  A    between atoms: N_26  and  C_27
REMARK   12  A    between atoms: C_27  and  C_28
REMARK   13  A    between atoms: C_28  and  C_29
REMARK   14  A    between atoms: C_29  and  O_30
REMARK                            x       y       z     vdW  Elec       q    Type
REMARK                         _______ _______ _______ _____ _____    ______ ____
ROOT
ATOM      1  C   UNL     1       3.496   6.026   0.218  0.00  0.00    +0.141 C 
ATOM      2  S   UNL     1       4.964   5.198   0.521  0.00  0.00    -0.018 S 
ENDROOT
BRANCH   1   5
ATOM      3  C   UNL     1       2.320   4.022   0.440  0.00  0.00    +0.253 C 
ATOM      4  O   UNL     1       3.361   3.434   0.654  0.00  0.00    -0.270 OA
ATOM      5  N   UNL     1       2.330   5.350   0.210  0.00  0.00    -0.263 N 
ATOM      6  H   UNL     1       1.499   5.820   0.039  0.00  0.00    +0.157 HD
BRANCH   3  12
ATOM      7  C   UNL     1       1.028   1.902   0.669  0.00  0.00    +0.133 A 
ATOM      8  C   UNL     1      -0.177   1.216   0.657  0.00  0.00    +0.047 A 
ATOM      9  C   UNL     1      -1.355   1.890   0.407  0.00  0.00    +0.019 A 
ATOM     10  C   UNL     1      -1.345   3.257   0.176  0.00  0.00    +0.019 A 
ATOM     11  C   UNL     1      -0.156   3.955   0.184  0.00  0.00    +0.032 A 
ATOM     12  C   UNL     1       1.044   3.283   0.431  0.00  0.00    +0.080 A 
ATOM     13 BR   UNL     1      -2.969   4.168  -0.158  0.00  0.00    -0.050 Br
BRANCH   7  14
ATOM     14  O   UNL     1       2.187   1.238   0.909  0.00  0.00    -0.491 OA
BRANCH  14  15
ATOM     15  C   UNL     1       2.093  -0.168   1.143  0.00  0.00    +0.232 C 
BRANCH  15  17
ATOM     16  C   UNL     1       3.379  -2.218   1.766  0.00  0.00    +0.010 C 
ATOM     17  C   UNL     1       3.490  -0.738   1.393  0.00  0.00    +0.020 C 
ATOM     18  C   UNL     1       4.334  -0.594   0.125  0.00  0.00    +0.010 C 
ENDBRANCH  15  17
ENDBRANCH  14  15
ENDBRANCH   7  14
ENDBRANCH   3  12
ENDBRANCH   1   5
BRANCH   1  19
ATOM     19  N   UNL     1       3.507   7.354  -0.011  0.00  0.00    -0.296 N 
ATOM     20  H   UNL     1       2.686   7.812  -0.250  0.00  0.00    +0.154 HD
BRANCH  19  21
ATOM     21  C   UNL     1       4.697   8.069   0.095  0.00  0.00    +0.045 A 
ATOM     22  C   UNL     1       5.853   7.594  -0.509  0.00  0.00    +0.024 A 
ATOM     23  C   UNL     1       7.030   8.307  -0.406  0.00  0.00    +0.002 A 
ATOM     24  C   UNL     1       7.071   9.494   0.307  0.00  0.00    +0.001 A 
ATOM     25  C   UNL     1       5.935   9.979   0.918  0.00  0.00    +0.015 A 
ATOM     26  C   UNL     1       4.735   9.271   0.818  0.00  0.00    +0.058 A 
BRANCH  26  27
ATOM     27  C   UNL     1       3.515   9.784   1.470  0.00  0.00    +0.246 C 
ATOM     28  O   UNL     1       2.498   9.117   1.467  0.00  0.00    -0.270 OA
ATOM     29  N   UNL     1       3.527  10.991   2.069  0.00  0.00    -0.311 N 
ATOM     30  H   UNL     1       4.339  11.523   2.071  0.00  0.00    +0.149 HD
BRANCH  29  31
ATOM     31  C   UNL     1       2.316  11.500   2.716  0.00  0.00    +0.107 C 
BRANCH  31  32
ATOM     32  C   UNL     1       2.599  12.880   3.313  0.00  0.00    +0.046 C 
BRANCH  32  33
ATOM     33  C   UNL     1       1.333  13.412   3.990  0.00  0.00    +0.157 C 
BRANCH  33  34
ATOM     34  O   UNL     1       1.597  14.701   4.548  0.00  0.00    -0.395 OA
ATOM     35  H   UNL     1       0.837  15.100   4.993  0.00  0.00    +0.209 HD
ENDBRANCH  33  34
ENDBRANCH  32  33
ENDBRANCH  31  32
ENDBRANCH  29  31
ENDBRANCH  26  27
ENDBRANCH  19  21
ENDBRANCH   1  19
TORSDOF 12
