REMARK  Name = ZINC07057865
REMARK  7 active torsions:
REMARK  status: ('A' for Active; 'I' for Inactive)
REMARK    1  A    between atoms: C_1  and  C_2
REMARK    2  A    between atoms: C_4  and  C_23
REMARK    3  A    between atoms: C_6  and  N_8
REMARK    4  A    between atoms: C_12  and  S_13
REMARK    5  A    between atoms: S_13  and  C_14
REMARK    6  A    between atoms: C_14  and  C_16
REMARK    7  A    between atoms: C_14  and  C_17
REMARK                            x       y       z     vdW  Elec       q    Type
REMARK                         _______ _______ _______ _____ _____    ______ ____
ROOT
ATOM      1  N   UNL     1      -2.429   1.039   0.019  0.00  0.00    -0.295 N 
ATOM      2  C   UNL     1      -2.776   0.012  -0.834  0.00  0.00    +0.113 A 
ATOM      3  C   UNL     1      -4.011  -0.386  -0.486  0.00  0.00    +0.131 A 
ATOM      4  N   UNL     1      -4.423   0.365   0.549  0.00  0.00    -0.230 NA
ATOM      5  C   UNL     1      -3.481   1.222   0.868  0.00  0.00    +0.174 A 
ENDROOT
BRANCH   1  11
ATOM      6  C   UNL     1      -0.064   5.351   0.033  0.00  0.00    +0.044 C 
ATOM      7  C   UNL     1      -0.049   3.844   0.024  0.00  0.00    -0.048 A 
ATOM      8  C   UNL     1       1.156   3.166   0.009  0.00  0.00    +0.006 A 
ATOM      9  C   UNL     1       1.174   1.783   0.000  0.00  0.00    -0.048 A 
ATOM     10  C   UNL     1      -0.013   1.076   0.008  0.00  0.00    +0.029 A 
ATOM     11  C   UNL     1      -1.224   1.754   0.017  0.00  0.00    +0.049 A 
ATOM     12  C   UNL     1      -1.239   3.142   0.030  0.00  0.00    +0.029 A 
ATOM     13  C   UNL     1       2.489   1.048  -0.016  0.00  0.00    +0.044 C 
ENDBRANCH   1  11
BRANCH   5  14
ATOM     14  S   UNL     1      -3.563   2.409   2.167  0.00  0.00    -0.075 S 
BRANCH  14  15
ATOM     15  C   UNL     1      -5.213   2.049   2.818  0.00  0.00    +0.137 C 
ATOM     16  C   UNL     1      -5.231   0.639   3.411  0.00  0.00    +0.029 C 
BRANCH  15  17
ATOM     17  C   UNL     1      -5.559   3.049   3.891  0.00  0.00    +0.233 C 
ATOM     18  O   UNL     1      -4.680   3.676   4.442  0.00  0.00    -0.274 OA
ATOM     19  N   UNL     1      -6.846   3.248   4.237  0.00  0.00    -0.239 N 
ATOM     20  C   UNL     1      -7.156   4.142   5.197  0.00  0.00    +0.303 C 
ATOM     21  O   UNL     1      -6.274   4.771   5.749  0.00  0.00    -0.253 OA
ATOM     22  N   UNL     1      -8.443   4.341   5.543  0.00  0.00    -0.313 N 
ATOM     23  H   UNL     1      -7.644   2.679   3.737  0.00  0.00    +0.159 HD
ATOM     24  H   UNL     1      -8.696   5.071   6.326  0.00  0.00    +0.146 HD
ATOM     25  H   UNL     1      -9.241   3.772   5.043  0.00  0.00    +0.146 HD
ENDBRANCH  15  17
ENDBRANCH  14  15
ENDBRANCH   5  14
TORSDOF 4
