REMARK  Name = ZINC08921368
REMARK  6 active torsions:
REMARK  status: ('A' for Active; 'I' for Inactive)
REMARK    1  A    between atoms: C_1  and  C_2
REMARK    2  A    between atoms: C_2  and  O_3
REMARK    3  A    between atoms: O_3  and  C_4
REMARK    4  A    between atoms: C_14  and  O_28
REMARK    5  A    between atoms: C_16  and  C_19
REMARK    6  A    between atoms: C_24  and  O_25
REMARK                            x       y       z     vdW  Elec       q    Type
REMARK                         _______ _______ _______ _____ _____    ______ ____
ROOT
ATOM      1  C   UNL     1      -3.756   1.845  -7.797  0.00  0.00    +0.403 C 
ATOM      2  O   UNL     1      -3.563   2.803  -8.520  0.00  0.00    -0.226 OA
ATOM      3  N   UNL     1      -2.900   1.578  -6.790  0.00  0.00    -0.262 N 
ATOM      4  C   UNL     1      -1.725   2.426  -6.541  0.00  0.00    +0.116 C 
ATOM      5  C   UNL     1      -1.861   3.103  -5.177  0.00  0.00    +0.056 C 
ATOM      6  C   UNL     1      -2.255   2.062  -4.136  0.00  0.00    -0.020 A 
ATOM      7  C   UNL     1      -2.811   0.884  -4.501  0.00  0.00    +0.013 A 
ATOM      8  S   UNL     1      -3.102   0.022  -2.979  0.00  0.00    -0.076 S 
ATOM      9  C   UNL     1      -2.497   1.194  -1.890  0.00  0.00    +0.080 A 
ATOM     10  C   UNL     1      -2.074   2.251  -2.706  0.00  0.00    +0.068 A 
ATOM     11  C   UNL     1      -1.497   3.442  -2.031  0.00  0.00    +0.220 C 
ATOM     12  N   UNL     1      -1.199   3.335  -0.764  0.00  0.00    -0.223 NA
ATOM     13  C   UNL     1      -1.332   2.114   0.020  0.00  0.00    +0.227 C 
ATOM     14  N   UNL     1      -2.382   1.231  -0.522  0.00  0.00    -0.313 N 
ATOM     15  C   UNL     1      -3.107   0.422  -5.895  0.00  0.00    +0.153 C 
ATOM     16  H   UNL     1      -2.958   0.706   0.055  0.00  0.00    +0.149 HD
ENDROOT
BRANCH  13  17
ATOM     17  C   UNL     1      -0.017   1.378   0.010  0.00  0.00    +0.038 A 
ATOM     18  C   UNL     1       0.002  -0.004   0.002  0.00  0.00    +0.026 A 
ATOM     19  C   UNL     1       1.208  -0.681  -0.013  0.00  0.00    +0.020 A 
ATOM     20  C   UNL     1       2.399   0.024  -0.021  0.00  0.00    +0.039 A 
ATOM     21  C   UNL     1       2.385   1.406  -0.013  0.00  0.00    +0.084 A 
ATOM     22  C   UNL     1       1.175   2.087   0.002  0.00  0.00    +0.142 A 
ATOM     23 CL   UNL     1       3.879   2.290  -0.023  0.00  0.00    -0.080 Cl
ATOM     24 BR   UNL     1       1.230  -2.571  -0.023  0.00  0.00    -0.050 Br
BRANCH  22  25
ATOM     25  O   UNL     1       1.159   3.446   0.009  0.00  0.00    -0.505 OA
ATOM     26  H   UNL     1       1.162   3.835   0.894  0.00  0.00    +0.292 HD
ENDBRANCH  22  25
ENDBRANCH  13  17
BRANCH  11  27
ATOM     27  O   UNL     1      -1.287   4.596  -2.705  0.00  0.00    -0.492 OA
ATOM     28  H   UNL     1      -0.908   5.303  -2.165  0.00  0.00    +0.294 HD
ENDBRANCH  11  27
BRANCH   1  29
ATOM     29  O   UNL     1      -4.824   1.052  -8.001  0.00  0.00    -0.451 OA
BRANCH  29  31
ATOM     30  C   UNL     1      -6.851   0.392  -9.179  0.00  0.00    +0.048 C 
ATOM     31  C   UNL     1      -5.702   1.400  -9.104  0.00  0.00    +0.230 C 
ENDBRANCH  29  31
ENDBRANCH   1  29
TORSDOF 5
