REMARK  Name = ZINC03230286
REMARK  8 active torsions:
REMARK  status: ('A' for Active; 'I' for Inactive)
REMARK    1  A    between atoms: C_2  and  C_3
REMARK    2  A    between atoms: C_2  and  N_14
REMARK    3  A    between atoms: C_6  and  N_9
REMARK    4  A    between atoms: N_14  and  N_15
REMARK    5  A    between atoms: C_16  and  C_18
REMARK    6  A    between atoms: C_21  and  N_24
REMARK    7  A    between atoms: N_24  and  S_25
REMARK    8  A    between atoms: S_25  and  C_28
REMARK                            x       y       z     vdW  Elec       q    Type
REMARK                         _______ _______ _______ _____ _____    ______ ____
ROOT
ATOM      1  N   UNL     1       2.423   0.032  -0.021  0.00  0.00    -0.232 N 
ATOM      2  C   UNL     1       3.599  -0.626  -0.036  0.00  0.00    +0.260 C 
ATOM      3  O   UNL     1       3.616  -1.842  -0.042  0.00  0.00    -0.269 OA
ATOM      4  H   UNL     1       2.410   1.002  -0.016  0.00  0.00    +0.173 HD
ENDROOT
BRANCH   2   5
ATOM      5  C   UNL     1       4.867   0.129  -0.044  0.00  0.00    +0.038 A 
ATOM      6  C   UNL     1       4.850   1.526  -0.030  0.00  0.00    +0.015 A 
ATOM      7  C   UNL     1       6.034   2.228  -0.038  0.00  0.00    +0.027 A 
ATOM      8  C   UNL     1       7.248   1.547  -0.059  0.00  0.00    +0.074 A 
ATOM      9  C   UNL     1       7.268   0.155  -0.073  0.00  0.00    +0.027 A 
ATOM     10  C   UNL     1       6.088  -0.552  -0.059  0.00  0.00    +0.015 A 
BRANCH   8  11
ATOM     11  N   UNL     1       8.442   2.258  -0.067  0.00  0.00    -0.097 NA
BRANCH  11  12
ATOM     12  S   UNL     1       9.887   1.450  -0.092  0.00  0.00    +0.098 S 
ATOM     13  O   UNL     1       9.988   0.759   1.146  0.00  0.00    -0.148 OA
ATOM     14  O   UNL     1       9.958   0.783  -1.344  0.00  0.00    -0.148 OA
BRANCH  12  15
ATOM     15  C   UNL     1      11.164   2.665  -0.096  0.00  0.00    +0.148 A 
ATOM     16  C   UNL     1      11.799   3.239   0.955  0.00  0.00    +0.037 A 
ATOM     17  C   UNL     1      12.781   4.180   0.712  0.00  0.00    +0.010 A 
ATOM     18  C   UNL     1      13.081   4.501  -0.571  0.00  0.00    +0.047 A 
ATOM     19  S   UNL     1      11.962   3.453  -1.485  0.00  0.00    -0.077 S 
ENDBRANCH  12  15
ENDBRANCH  11  12
ENDBRANCH   8  11
ENDBRANCH   2   5
BRANCH   1  20
ATOM     20  N   UNL     1       1.220  -0.685  -0.013  0.00  0.00    -0.264 N 
ATOM     21  H   UNL     1       1.233  -1.655  -0.019  0.00  0.00    +0.170 HD
BRANCH  20  23
ATOM     22  C   UNL     1      -0.016   1.330   0.009  0.00  0.00    +0.035 C 
ATOM     23  C   UNL     1       0.002  -0.004   0.002  0.00  0.00    +0.044 C 
BRANCH  23  24
ATOM     24  C   UNL     1      -1.270  -0.762   0.010  0.00  0.00    -0.003 A 
ATOM     25  C   UNL     1      -1.253  -2.157   0.008  0.00  0.00    +0.012 A 
ATOM     26  C   UNL     1      -2.439  -2.859   0.016  0.00  0.00    +0.027 A 
ATOM     27  C   UNL     1      -3.650  -2.180   0.026  0.00  0.00    +0.047 A 
ATOM     28  C   UNL     1      -3.671  -0.790   0.028  0.00  0.00    +0.027 A 
ATOM     29  C   UNL     1      -2.488  -0.082   0.025  0.00  0.00    +0.012 A 
BRANCH  27  30
ATOM     30  N   UNL     1      -4.854  -2.897   0.034  0.00  0.00    -0.306 N 
ATOM     31  C   UNL     1      -6.119  -2.367   0.039  0.00  0.00    +0.112 A 
ATOM     32  C   UNL     1      -6.976  -3.405   0.045  0.00  0.00    +0.130 A 
ATOM     33  N   UNL     1      -6.261  -4.539   0.045  0.00  0.00    -0.244 NA
ATOM     34  C   UNL     1      -4.989  -4.248   0.033  0.00  0.00    +0.204 A 
ENDBRANCH  27  30
ENDBRANCH  23  24
ENDBRANCH  20  23
ENDBRANCH   1  20
TORSDOF 8
