REMARK  Name = ZINC55628580
REMARK  6 active torsions:
REMARK  status: ('A' for Active; 'I' for Inactive)
REMARK    1  A    between atoms: C_4  and  S_9
REMARK    2  A    between atoms: C_5  and  C_7
REMARK    3  A    between atoms: S_9  and  N_12
REMARK    4  A    between atoms: N_12  and  C_13
REMARK    5  A    between atoms: C_18  and  C_19
REMARK    6  A    between atoms: C_25  and  O_28
REMARK                            x       y       z     vdW  Elec       q    Type
REMARK                         _______ _______ _______ _____ _____    ______ ____
ROOT
ATOM      1  C   UNL     1       5.220  -2.438   1.641  0.00  0.00    +0.086 A 
ATOM      2  C   UNL     1       6.253  -2.522   0.716  0.00  0.00    +0.027 A 
ATOM      3  C   UNL     1       7.372  -3.277   0.996  0.00  0.00    +0.002 A 
ATOM      4  C   UNL     1       7.477  -3.957   2.200  0.00  0.00    +0.001 A 
ATOM      5  C   UNL     1       6.463  -3.886   3.130  0.00  0.00    +0.015 A 
ATOM      6  C   UNL     1       5.325  -3.120   2.863  0.00  0.00    +0.061 A 
ENDROOT
BRANCH   6   7
ATOM      7  C   UNL     1       4.239  -3.035   3.857  0.00  0.00    +0.249 C 
ATOM      8  O   UNL     1       3.098  -3.305   3.535  0.00  0.00    -0.270 OA
ATOM      9  N   UNL     1       4.511  -2.657   5.121  0.00  0.00    -0.295 N 
ATOM     10  C   UNL     1       3.467  -2.694   6.155  0.00  0.00    +0.108 C 
ATOM     11  C   UNL     1       3.381  -1.316   6.819  0.00  0.00    +0.021 C 
ATOM     12  C   UNL     1       4.765  -0.917   7.337  0.00  0.00    +0.034 C 
ATOM     13  C   UNL     1       5.744  -0.828   6.164  0.00  0.00    +0.132 C 
ATOM     14  C   UNL     1       5.859  -2.206   5.494  0.00  0.00    +0.139 C 
BRANCH  13  15
ATOM     15  O   UNL     1       7.028  -0.424   6.645  0.00  0.00    -0.390 OA
ATOM     16  H   UNL     1       7.700  -0.347   5.954  0.00  0.00    +0.210 HD
ENDBRANCH  13  15
ENDBRANCH   6   7
BRANCH   1  17
ATOM     17  N   UNL     1       4.092  -1.677   1.362  0.00  0.00    -0.097 NA
BRANCH  17  18
ATOM     18  S   UNL     1       3.972  -0.873  -0.081  0.00  0.00    +0.093 S 
ATOM     19  O   UNL     1       3.891  -1.867  -1.094  0.00  0.00    -0.148 OA
ATOM     20  O   UNL     1       4.982   0.127  -0.074  0.00  0.00    -0.148 OA
BRANCH  18  24
ATOM     21  C   UNL     1      -0.007   1.305  -0.079  0.00  0.00    +0.001 A 
ATOM     22  C   UNL     1       1.179   2.017  -0.096  0.00  0.00    +0.002 A 
ATOM     23  C   UNL     1       2.392   1.351  -0.097  0.00  0.00    +0.030 A 
ATOM     24  C   UNL     1       2.426  -0.028  -0.080  0.00  0.00    +0.128 A 
ATOM     25  C   UNL     1       1.233  -0.752  -0.063  0.00  0.00    +0.078 A 
ATOM     26  C   UNL     1       0.012  -0.074  -0.063  0.00  0.00    +0.021 A 
BRANCH  25  27
ATOM     27  C   UNL     1       1.260  -2.184  -0.046  0.00  0.00    +0.101 C 
ATOM     28  N   UNL     1       1.282  -3.320  -0.033  0.00  0.00    -0.191 NA
ENDBRANCH  25  27
ENDBRANCH  18  24
ENDBRANCH  17  18
ENDBRANCH   1  17
TORSDOF 6
