REMARK  Name = ZINC00440077
REMARK  4 active torsions:
REMARK  status: ('A' for Active; 'I' for Inactive)
REMARK    1  A    between atoms: C_1  and  C_2
REMARK    2  A    between atoms: C_3  and  C_7
REMARK    3  A    between atoms: N_9  and  N_10
REMARK    4  A    between atoms: C_11  and  C_12
REMARK                            x       y       z     vdW  Elec       q    Type
REMARK                         _______ _______ _______ _____ _____    ______ ____
ROOT
ATOM      1  C   UNL     1       3.561   8.114   0.009  0.00  0.00    +0.267 C 
ATOM      2  O   UNL     1       2.497   8.704   0.023  0.00  0.00    -0.268 OA
ATOM      3  N   UNL     1       3.584   6.767   0.002  0.00  0.00    -0.203 N 
ATOM      4  H   UNL     1       4.432   6.296  -0.008  0.00  0.00    +0.178 HD
ENDROOT
BRANCH   1   7
ATOM      5  C   UNL     1       3.852  11.238   0.023  0.00  0.00    +0.087 C 
ATOM      6  C   UNL     1       4.971  10.229   0.006  0.00  0.00    +0.114 A 
ATOM      7  C   UNL     1       4.824   8.873   0.001  0.00  0.00    +0.079 A 
ATOM      8  C   UNL     1       6.189   8.327  -0.009  0.00  0.00    +0.054 A 
ATOM      9  C   UNL     1       7.011   9.387  -0.018  0.00  0.00    +0.196 A 
ATOM     10  O   UNL     1       6.278  10.512  -0.005  0.00  0.00    -0.467 OA
ENDBRANCH   1   7
BRANCH   3  11
ATOM     11  N   UNL     1       2.383   6.045   0.010  0.00  0.00    -0.187 NA
ATOM     12  C   UNL     1       2.405   4.748   0.004  0.00  0.00    +0.138 C 
BRANCH  12  13
ATOM     13  C   UNL     1       1.141   3.988   0.012  0.00  0.00    -0.004 A 
ATOM     14  C   UNL     1      -0.082   4.663   0.027  0.00  0.00    +0.012 A 
ATOM     15  C   UNL     1      -1.261   3.948   0.034  0.00  0.00    +0.040 A 
ATOM     16  C   UNL     1      -1.234   2.562   0.022  0.00  0.00    +0.137 A 
ATOM     17  C   UNL     1      -0.024   1.887   0.012  0.00  0.00    +0.054 A 
ATOM     18  C   UNL     1       1.163   2.592   0.005  0.00  0.00    +0.027 A 
ATOM     19 BR   UNL     1       0.002  -0.004   0.002  0.00  0.00    -0.047 Br
ATOM     20  F   UNL     1      -2.393   1.867   0.024  0.00  0.00    -0.204 F 
ENDBRANCH  12  13
ENDBRANCH   3  11
TORSDOF 3
