REMARK  Name = ZINC42755946
REMARK  6 active torsions:
REMARK  status: ('A' for Active; 'I' for Inactive)
REMARK    1  A    between atoms: C_6  and  O_11
REMARK    2  A    between atoms: O_11  and  C_12
REMARK    3  A    between atoms: C_12  and  C_13
REMARK    4  A    between atoms: C_13  and  C_15
REMARK    5  A    between atoms: C_13  and  O_27
REMARK    6  A    between atoms: C_15  and  N_16
REMARK                            x       y       z     vdW  Elec       q    Type
REMARK                         _______ _______ _______ _____ _____    ______ ____
ROOT
ATOM      1  C   UNL     1       6.260  -4.616  -0.082  0.00  0.00    +0.173 C 
ENDROOT
BRANCH   1   2
ATOM      2  O   UNL     1       6.898  -4.252  -1.307  0.00  0.00    -0.387 OA
ATOM      3  H   UNL     1       6.453  -4.587  -2.098  0.00  0.00    +0.210 HD
ENDBRANCH   1   2
BRANCH   1   4
ATOM      4  C   UNL     1       4.834  -4.062  -0.065  0.00  0.00    +0.262 C 
BRANCH   4   5
ATOM      5  O   UNL     1       4.878  -2.633  -0.059  0.00  0.00    -0.489 OA
BRANCH   5  11
ATOM      6  C   UNL     1      -0.016   1.357   0.009  0.00  0.00    +0.001 A 
ATOM      7  C   UNL     1       1.169   2.091   0.002  0.00  0.00    +0.001 A 
ATOM      8  C   UNL     1       2.378   1.468  -0.013  0.00  0.00    +0.008 A 
ATOM      9  C   UNL     1       2.437   0.063  -0.021  0.00  0.00    -0.014 A 
ATOM     10  C   UNL     1       3.668  -0.614  -0.037  0.00  0.00    +0.054 A 
ATOM     11  C   UNL     1       3.687  -1.980  -0.044  0.00  0.00    +0.121 A 
ATOM     12  C   UNL     1       2.497  -2.714  -0.036  0.00  0.00    +0.046 A 
ATOM     13  C   UNL     1       1.289  -2.088  -0.022  0.00  0.00    +0.012 A 
ATOM     14  C   UNL     1       1.232  -0.683  -0.013  0.00  0.00    -0.018 A 
ATOM     15  C   UNL     1       0.002  -0.004   0.002  0.00  0.00    +0.008 A 
ENDBRANCH   5  11
ENDBRANCH   4   5
ENDBRANCH   1   4
BRANCH   1  16
ATOM     16  C   UNL     1       6.216  -6.141   0.037  0.00  0.00    +0.182 C 
BRANCH  16  17
ATOM     17  N   UNL     1       7.581  -6.662   0.141  0.00  0.00    -0.226 N 
ATOM     18  C   UNL     1       8.136  -6.808   1.362  0.00  0.00    +0.275 A 
ATOM     19  O   UNL     1       7.514  -6.512   2.366  0.00  0.00    -0.266 OA
ATOM     20  C   UNL     1       9.505  -7.332   1.456  0.00  0.00    +0.050 A 
ATOM     21  C   UNL     1      10.144  -7.511   2.682  0.00  0.00    +0.014 A 
ATOM     22  C   UNL     1      11.430  -8.007   2.708  0.00  0.00    +0.001 A 
ATOM     23  C   UNL     1      12.090  -8.328   1.529  0.00  0.00    +0.001 A 
ATOM     24  C   UNL     1      11.482  -8.161   0.316  0.00  0.00    +0.010 A 
ATOM     25  C   UNL     1      10.180  -7.660   0.259  0.00  0.00    +0.007 A 
ATOM     26  C   UNL     1       9.484  -7.463  -1.013  0.00  0.00    +0.141 A 
ATOM     27  N   UNL     1       8.270  -7.000  -1.024  0.00  0.00    -0.176 NA
ENDBRANCH  16  17
ENDBRANCH   1  16
TORSDOF 6
