REMARK  Name = ZINC07805172
REMARK  13 active torsions:
REMARK  status: ('A' for Active; 'I' for Inactive)
REMARK    1  A    between atoms: C_1  and  C_2
REMARK    2  A    between atoms: C_5  and  C_29
REMARK    3  A    between atoms: C_6  and  O_8
REMARK    4  A    between atoms: O_8  and  C_9
REMARK    5  A    between atoms: C_9  and  C_10
REMARK    6  A    between atoms: C_10  and  O_12
REMARK    7  A    between atoms: O_12  and  C_13
REMARK    8  A    between atoms: C_13  and  C_15
REMARK    9  A    between atoms: C_13  and  C_16
REMARK   10  A    between atoms: C_22  and  C_28
REMARK   11  A    between atoms: C_23  and  C_27
REMARK   12  A    between atoms: C_29  and  C_30
REMARK   13  A    between atoms: C_29  and  C_31
REMARK                            x       y       z     vdW  Elec       q    Type
REMARK                         _______ _______ _______ _____ _____    ______ ____
ROOT
ATOM      1  O   UNL     1       3.033   3.947  -1.328  0.00  0.00    -0.451 OA
ENDROOT
BRANCH   1   2
ATOM      2  C   UNL     1       4.372   3.971  -1.407  0.00  0.00    +0.346 C 
ATOM      3  O   UNL     1       5.036   4.043  -0.400  0.00  0.00    -0.247 OA
BRANCH   2   4
ATOM      4  C   UNL     1       5.049   3.907  -2.752  0.00  0.00    +0.349 C 
BRANCH   4   5
ATOM      5  O   UNL     1       6.467   3.948  -2.575  0.00  0.00    -0.481 OA
BRANCH   5  11
ATOM      6  C   UNL     1       6.754   3.671  -7.440  0.00  0.00    +0.044 C 
ATOM      7  C   UNL     1       7.407   3.764  -6.085  0.00  0.00    -0.047 A 
ATOM      8  C   UNL     1       8.786   3.800  -5.984  0.00  0.00    +0.004 A 
ATOM      9  C   UNL     1       9.388   3.884  -4.742  0.00  0.00    +0.008 A 
ATOM     10  C   UNL     1       8.614   3.934  -3.599  0.00  0.00    -0.003 A 
ATOM     11  C   UNL     1       7.231   3.899  -3.698  0.00  0.00    +0.125 A 
ATOM     12  C   UNL     1       6.628   3.808  -4.945  0.00  0.00    +0.049 A 
BRANCH  10  13
ATOM     13  C   UNL     1       9.271   4.027  -2.246  0.00  0.00    +0.016 C 
ATOM     14  C   UNL     1      10.169   2.807  -2.031  0.00  0.00    +0.012 C 
ATOM     15  C   UNL     1      10.116   5.301  -2.176  0.00  0.00    +0.012 C 
ENDBRANCH  10  13
ENDBRANCH   5  11
ENDBRANCH   4   5
ENDBRANCH   2   4
ENDBRANCH   1   2
BRANCH   1  16
ATOM     16  C   UNL     1       2.450   4.011  -0.000  0.00  0.00    +0.239 C 
ATOM     17  C   UNL     1       2.214   5.474   0.383  0.00  0.00    +0.060 C 
BRANCH  16  18
ATOM     18  C   UNL     1       1.137   3.272   0.008  0.00  0.00    +0.152 A 
ATOM     19  N   UNL     1       1.136   1.914   0.002  0.00  0.00    -0.307 N 
ATOM     20  H   UNL     1       2.007   1.424  -0.009  0.00  0.00    +0.170 HD
ATOM     21  C   UNL     1      -0.015   1.215   0.009  0.00  0.00    +0.260 A 
ATOM     22  O   UNL     1       0.002  -0.004   0.002  0.00  0.00    -0.267 OA
ATOM     23  C   UNL     1      -1.259   1.926   0.018  0.00  0.00    +0.075 A 
ATOM     24  C   UNL     1      -2.614   1.409   0.022  0.00  0.00    -0.026 A 
ATOM     25  C   UNL     1      -3.644   2.270   0.031  0.00  0.00    -0.008 A 
ATOM     26  S   UNL     1      -2.848   3.865   0.048  0.00  0.00    -0.073 S 
ATOM     27  C   UNL     1      -1.157   3.329   0.030  0.00  0.00    +0.116 A 
ATOM     28  N   UNL     1       0.019   3.949   0.022  0.00  0.00    -0.223 NA
ATOM     29  C   UNL     1      -5.119   1.962   0.035  0.00  0.00    +0.052 C 
ATOM     30  C   UNL     1      -2.863  -0.078   0.016  0.00  0.00    +0.045 C 
ENDBRANCH  16  18
ENDBRANCH   1  16
TORSDOF 7
