REMARK  Name = ZINC39677109
REMARK  6 active torsions:
REMARK  status: ('A' for Active; 'I' for Inactive)
REMARK    1  A    between atoms: C_1  and  C_2
REMARK    2  A    between atoms: C_5  and  C_8
REMARK    3  A    between atoms: C_12  and  C_21
REMARK    4  A    between atoms: N_23  and  C_24
REMARK    5  A    between atoms: C_24  and  C_25
REMARK    6  A    between atoms: C_26  and  C_30
REMARK                            x       y       z     vdW  Elec       q    Type
REMARK                         _______ _______ _______ _____ _____    ______ ____
ROOT
ATOM      1  C   UNL     1       0.054  -4.266  -0.028  0.00  0.00    +0.247 C 
ATOM      2  O   UNL     1       0.104  -3.051  -0.026  0.00  0.00    -0.270 OA
ATOM      3  N   UNL     1      -0.031  -4.938   1.137  0.00  0.00    -0.296 N 
ATOM      4  C   UNL     1      -0.155  -4.377   2.503  0.00  0.00    +0.121 C 
ATOM      5  C   UNL     1      -1.149  -5.316   3.222  0.00  0.00    +0.100 C 
ATOM      6  C   UNL     1      -1.056  -6.647   2.456  0.00  0.00    -0.004 C 
ATOM      7  C   UNL     1      -0.029  -6.407   1.341  0.00  0.00    +0.115 C 
ATOM      8  C   UNL     1      -2.410  -7.004   1.851  0.00  0.00    -0.010 C 
ATOM      9  C   UNL     1      -2.306  -8.358   1.143  0.00  0.00    -0.082 C 
ATOM     10  N   UNL     1      -1.892  -9.385   2.107  0.00  0.00    +0.379 N 
ATOM     11  C   UNL     1      -0.549  -9.083   2.616  0.00  0.00    -0.082 C 
ATOM     12  C   UNL     1      -0.578  -7.759   3.385  0.00  0.00    -0.010 C 
ATOM     13  H   UNL     1      -2.545  -9.405   2.876  0.00  0.00    -0.086 HD
ATOM     14  H   UNL     1      -1.883 -10.287   1.653  0.00  0.00    -0.086 HD
ENDROOT
BRANCH   1  19
ATOM     15  C   UNL     1       0.179  -7.145  -5.009  0.00  0.00    +0.044 C 
ATOM     16  C   UNL     1       0.146  -6.391  -3.705  0.00  0.00    -0.050 A 
ATOM     17  C   UNL     1       0.744  -6.933  -2.581  0.00  0.00    +0.004 A 
ATOM     18  C   UNL     1       0.717  -6.248  -1.384  0.00  0.00    +0.013 A 
ATOM     19  C   UNL     1       0.086  -5.005  -1.308  0.00  0.00    +0.037 A 
ATOM     20  C   UNL     1      -0.515  -4.464  -2.446  0.00  0.00    +0.013 A 
ATOM     21  C   UNL     1      -0.476  -5.157  -3.638  0.00  0.00    +0.004 A 
ENDBRANCH   1  19
BRANCH   5  22
ATOM     22  C   UNL     1      -2.548  -4.760   3.143  0.00  0.00    +0.218 C 
ATOM     23  O   UNL     1      -2.905  -4.155   2.155  0.00  0.00    -0.275 OA
ATOM     24  N   UNL     1      -3.401  -4.935   4.172  0.00  0.00    -0.310 N 
ATOM     25  H   UNL     1      -3.115  -5.419   4.963  0.00  0.00    +0.149 HD
BRANCH  24  26
ATOM     26  C   UNL     1      -4.760  -4.394   4.096  0.00  0.00    +0.147 C 
BRANCH  26  27
ATOM     27  C   UNL     1      -5.504  -4.724   5.364  0.00  0.00    +0.010 A 
ATOM     28  C   UNL     1      -5.596  -4.008   6.511  0.00  0.00    -0.039 A 
ATOM     29  C   UNL     1      -6.344  -4.512   7.559  0.00  0.00    +0.011 A 
ATOM     30  C   UNL     1      -6.963  -5.708   7.408  0.00  0.00    +0.046 A 
ATOM     31  S   UNL     1      -6.500  -6.157   5.743  0.00  0.00    -0.100 S 
ATOM     32  C   UNL     1      -4.893  -2.681   6.642  0.00  0.00    +0.044 C 
ENDBRANCH  26  27
ENDBRANCH  24  26
ENDBRANCH   5  22
TORSDOF 4
