REMARK  Name = ZINC37129320
REMARK  5 active torsions:
REMARK  status: ('A' for Active; 'I' for Inactive)
REMARK    1  A    between atoms: C_1  and  N_2
REMARK    2  A    between atoms: N_2  and  C_3
REMARK    3  A    between atoms: N_2  and  C_4
REMARK    4  A    between atoms: C_9  and  N_10
REMARK    5  A    between atoms: N_10  and  C_11
REMARK                            x       y       z     vdW  Elec       q    Type
REMARK                         _______ _______ _______ _____ _____    ______ ____
ROOT
ATOM      1  C   UNL     1      -1.201  -0.721   0.010  0.00  0.00    +0.050 A 
ATOM      2  C   UNL     1      -1.807  -1.075  -1.186  0.00  0.00    +0.026 A 
ATOM      3  C   UNL     1      -2.995  -1.782  -1.177  0.00  0.00    +0.022 A 
ATOM      4  C   UNL     1      -3.583  -2.139   0.024  0.00  0.00    +0.043 A 
ATOM      5  C   UNL     1      -2.985  -1.789   1.221  0.00  0.00    +0.044 A 
ATOM      6  C   UNL     1      -1.790  -1.085   1.220  0.00  0.00    +0.050 A 
ATOM      7 CL   UNL     1      -5.076  -3.025   0.027  0.00  0.00    -0.083 Cl
ENDROOT
BRANCH   1   9
ATOM      8  C   UNL     1      -0.018   1.461   0.010  0.00  0.00    +0.129 C 
ATOM      9  N   UNL     1       0.002  -0.004   0.002  0.00  0.00    -0.335 N 
ATOM     10  C   UNL     1       1.281  -0.719  -0.014  0.00  0.00    +0.129 C 
ENDBRANCH   1   9
BRANCH   6  11
ATOM     11  N   UNL     1      -1.180  -0.736   2.431  0.00  0.00    -0.339 N 
ATOM     12  H   UNL     1      -0.347  -0.240   2.429  0.00  0.00    +0.146 HD
BRANCH  11  13
ATOM     13  C   UNL     1      -1.801  -1.119   3.701  0.00  0.00    +0.075 C 
ATOM     14  C   UNL     1      -2.839  -0.067   4.103  0.00  0.00    +0.050 C 
ATOM     15  C   UNL     1      -3.425  -0.435   5.468  0.00  0.00    +0.161 C 
ATOM     16  O   UNL     1      -2.371  -0.527   6.429  0.00  0.00    -0.380 OA
ATOM     17  C   UNL     1      -1.395  -1.527   6.130  0.00  0.00    +0.161 C 
ATOM     18  C   UNL     1      -0.728  -1.203   4.791  0.00  0.00    +0.050 C 
ENDBRANCH  11  13
ENDBRANCH   6  11
TORSDOF 3
