REMARK  Name = ZINC13327887
REMARK  7 active torsions:
REMARK  status: ('A' for Active; 'I' for Inactive)
REMARK    1  A    between atoms: C_1  and  C_2
REMARK    2  A    between atoms: C_5  and  C_9
REMARK    3  A    between atoms: C_6  and  C_8
REMARK    4  A    between atoms: C_9  and  C_11
REMARK    5  A    between atoms: C_9  and  N_12
REMARK    6  A    between atoms: C_13  and  C_15
REMARK    7  A    between atoms: C_17  and  N_22
REMARK                            x       y       z     vdW  Elec       q    Type
REMARK                         _______ _______ _______ _____ _____    ______ ____
ROOT
ATOM      1  N   UNL     1      -5.003  -0.143   0.176  0.00  0.00    -0.305 N 
ATOM      2  C   UNL     1      -4.739   0.473   1.346  0.00  0.00    +0.246 C 
ATOM      3  O   UNL     1      -5.516   0.372   2.275  0.00  0.00    -0.270 OA
ATOM      4  H   UNL     1      -4.383  -0.063  -0.565  0.00  0.00    +0.150 HD
ENDROOT
BRANCH   2   5
ATOM      5  C   UNL     1      -3.504   1.270   1.498  0.00  0.00    +0.057 A 
ATOM      6  C   UNL     1      -2.609   1.388   0.433  0.00  0.00    +0.047 A 
ATOM      7  C   UNL     1      -1.459   2.134   0.582  0.00  0.00    +0.127 A 
ATOM      8  C   UNL     1      -1.187   2.761   1.786  0.00  0.00    +0.034 A 
ATOM      9  C   UNL     1      -2.071   2.654   2.844  0.00  0.00    +0.023 A 
ATOM     10  C   UNL     1      -3.227   1.910   2.709  0.00  0.00    +0.053 A 
ATOM     11 CL   UNL     1      -4.333   1.771   4.040  0.00  0.00    -0.083 Cl
BRANCH   7  12
ATOM     12  N   UNL     1      -0.510   2.259  -0.547  0.00  0.00    +0.056 N 
ATOM     13  O   UNL     1      -0.745   1.704  -1.605  0.00  0.00    -0.126 OA
ATOM     14  O   UNL     1       0.504   2.922  -0.419  0.00  0.00    -0.126 OA
ENDBRANCH   7  12
ENDBRANCH   2   5
BRANCH   1  15
ATOM     15  C   UNL     1      -6.228  -0.933   0.025  0.00  0.00    +0.101 C 
ATOM     16  C   UNL     1      -6.639  -0.959  -1.448  0.00  0.00    +0.033 C 
BRANCH  15  21
ATOM     17  C   UNL     1      -5.273  -6.332   1.853  0.00  0.00    +0.044 C 
ATOM     18  C   UNL     1      -5.522  -4.924   1.377  0.00  0.00    -0.050 A 
ATOM     19  C   UNL     1      -4.460  -4.125   0.994  0.00  0.00    +0.004 A 
ATOM     20  C   UNL     1      -4.688  -2.834   0.557  0.00  0.00    +0.006 A 
ATOM     21  C   UNL     1      -5.979  -2.341   0.502  0.00  0.00    -0.025 A 
ATOM     22  C   UNL     1      -7.040  -3.137   0.889  0.00  0.00    -0.045 A 
ATOM     23  C   UNL     1      -6.812  -4.430   1.323  0.00  0.00    +0.007 A 
ATOM     24  C   UNL     1      -8.446  -2.598   0.836  0.00  0.00    +0.044 C 
ENDBRANCH  15  21
ENDBRANCH   1  15
TORSDOF 4
