REMARK  Name = ZINC17099248
REMARK  7 active torsions:
REMARK  status: ('A' for Active; 'I' for Inactive)
REMARK    1  A    between atoms: C_1  and  C_2
REMARK    2  A    between atoms: C_7  and  N_8
REMARK    3  A    between atoms: N_8  and  C_9
REMARK    4  A    between atoms: C_9  and  N_11
REMARK    5  A    between atoms: C_12  and  C_14
REMARK    6  A    between atoms: C_16  and  N_26
REMARK    7  A    between atoms: C_19  and  N_20
REMARK                            x       y       z     vdW  Elec       q    Type
REMARK                         _______ _______ _______ _____ _____    ______ ____
ROOT
ATOM      1  N   UNL     1      -0.155  -0.025   4.744  0.00  0.00    -0.264 N 
ATOM      2  C   UNL     1      -0.236  -0.705   5.905  0.00  0.00    +0.251 C 
ATOM      3  O   UNL     1      -0.221  -1.920   5.901  0.00  0.00    -0.270 OA
ATOM      4  H   UNL     1      -0.168   0.945   4.748  0.00  0.00    +0.157 HD
ENDROOT
BRANCH   2   5
ATOM      5  C   UNL     1      -0.345   0.026   7.180  0.00  0.00    +0.060 A 
ATOM      6  C   UNL     1      -0.369   1.423   7.190  0.00  0.00    +0.047 A 
ATOM      7  C   UNL     1      -0.471   2.100   8.385  0.00  0.00    +0.127 A 
ATOM      8  C   UNL     1      -0.549   1.403   9.581  0.00  0.00    +0.034 A 
ATOM      9  C   UNL     1      -0.526   0.024   9.588  0.00  0.00    +0.026 A 
ATOM     10  C   UNL     1      -0.430  -0.677   8.392  0.00  0.00    +0.042 A 
BRANCH  10  11
ATOM     11  N   UNL     1      -0.413  -2.066   8.397  0.00  0.00    -0.325 N 
ATOM     12  C   UNL     1       0.854  -2.807   8.503  0.00  0.00    +0.133 C 
ATOM     13  C   UNL     1       0.714  -3.847   9.620  0.00  0.00    +0.178 C 
ATOM     14  O   UNL     1      -0.462  -4.628   9.392  0.00  0.00    -0.377 OA
ATOM     15  C   UNL     1      -1.678  -3.877   9.423  0.00  0.00    +0.178 C 
ATOM     16  C   UNL     1      -1.661  -2.839   8.301  0.00  0.00    +0.133 C 
ENDBRANCH  10  11
BRANCH   7  17
ATOM     17  N   UNL     1      -0.497   3.580   8.393  0.00  0.00    +0.056 N 
ATOM     18  O   UNL     1      -0.429   4.192   7.352  0.00  0.00    -0.126 OA
ATOM     19  O   UNL     1      -0.586   4.178   9.440  0.00  0.00    -0.126 OA
ENDBRANCH   7  17
ENDBRANCH   2   5
BRANCH   1  20
ATOM     20  C   UNL     1      -0.056  -0.694   3.578  0.00  0.00    +0.141 C 
ATOM     21  S   UNL     1      -0.034  -2.406   3.571  0.00  0.00    -0.018 S 
BRANCH  20  22
ATOM     22  N   UNL     1       0.026  -0.014   2.417  0.00  0.00    -0.296 N 
ATOM     23  H   UNL     1       0.076   0.954   2.424  0.00  0.00    +0.154 HD
BRANCH  22  30
ATOM     24  C   UNL     1      -1.704   0.883   0.344  0.00  0.00    +0.045 C 
ATOM     25  C   UNL     1      -0.790  -0.302   0.162  0.00  0.00    -0.029 A 
ATOM     26  C   UNL     1      -0.772  -0.983  -1.040  0.00  0.00    +0.006 A 
ATOM     27  C   UNL     1       0.065  -2.070  -1.207  0.00  0.00    +0.020 A 
ATOM     28  C   UNL     1       0.887  -2.480  -0.172  0.00  0.00    +0.043 A 
ATOM     29  C   UNL     1       0.873  -1.802   1.032  0.00  0.00    +0.043 A 
ATOM     30  C   UNL     1       0.037  -0.706   1.201  0.00  0.00    +0.037 A 
ATOM     31 CL   UNL     1       1.936  -3.846  -0.387  0.00  0.00    -0.083 Cl
ENDBRANCH  22  30
ENDBRANCH  20  22
ENDBRANCH   1  20
TORSDOF 6
