REMARK  Name = ZINC08724750
REMARK  6 active torsions:
REMARK  status: ('A' for Active; 'I' for Inactive)
REMARK    1  A    between atoms: C_1  and  C_2
REMARK    2  A    between atoms: C_7  and  N_8
REMARK    3  A    between atoms: C_9  and  S_13
REMARK    4  A    between atoms: S_13  and  C_14
REMARK    5  A    between atoms: C_14  and  C_15
REMARK    6  A    between atoms: C_15  and  C_17
REMARK                            x       y       z     vdW  Elec       q    Type
REMARK                         _______ _______ _______ _____ _____    ______ ____
ROOT
ATOM      1  N   UNL     1       0.842  -2.051  -0.233  0.00  0.00    -0.187 N 
ATOM      2  C   UNL     1       1.810  -3.005  -0.317  0.00  0.00    +0.214 A 
ATOM      3  N   UNL     1       1.198  -4.166  -0.410  0.00  0.00    -0.101 NA
ATOM      4  N   UNL     1      -0.076  -4.006  -0.391  0.00  0.00    -0.022 NA
ATOM      5  N   UNL     1      -0.373  -2.757  -0.281  0.00  0.00    -0.038 NA
ENDROOT
BRANCH   1  12
ATOM      6  C   UNL     1      -0.649  -0.664   1.755  0.00  0.00    +0.046 C 
ATOM      7  C   UNL     1       0.310   0.050   0.838  0.00  0.00    -0.025 A 
ATOM      8  C   UNL     1       0.486   1.415   0.948  0.00  0.00    +0.005 A 
ATOM      9  C   UNL     1       1.367   2.071   0.107  0.00  0.00    +0.000 A 
ATOM     10  C   UNL     1       2.073   1.361  -0.847  0.00  0.00    +0.002 A 
ATOM     11  C   UNL     1       1.901  -0.004  -0.962  0.00  0.00    +0.028 A 
ATOM     12  C   UNL     1       1.018  -0.665  -0.119  0.00  0.00    +0.073 A 
ENDBRANCH   1  12
BRANCH   2  13
ATOM     13  S   UNL     1       3.551  -2.736  -0.302  0.00  0.00    -0.076 S 
BRANCH  13  14
ATOM     14  C   UNL     1       4.135  -4.444  -0.446  0.00  0.00    +0.158 C 
BRANCH  14  15
ATOM     15  C   UNL     1       5.642  -4.461  -0.454  0.00  0.00    +0.189 C 
ATOM     16  O   UNL     1       6.261  -3.420  -0.370  0.00  0.00    -0.290 OA
BRANCH  15  17
ATOM     17  C   UNL     1       6.334  -5.689  -0.558  0.00  0.00    +0.083 A 
ATOM     18  C   UNL     1       5.763  -6.946  -0.654  0.00  0.00    +0.030 A 
ATOM     19  C   UNL     1       6.811  -7.864  -0.740  0.00  0.00    +0.020 A 
ATOM     20  C   UNL     1       7.976  -7.171  -0.688  0.00  0.00    +0.083 A 
ATOM     21  N   UNL     1       7.702  -5.855  -0.578  0.00  0.00    -0.358 N 
ATOM     22  H   UNL     1       8.359  -5.144  -0.522  0.00  0.00    +0.165 HD
ENDBRANCH  15  17
ENDBRANCH  14  15
ENDBRANCH  13  14
ENDBRANCH   2  13
TORSDOF 5
