REMARK  Name = ZINC35181700
REMARK  11 active torsions:
REMARK  status: ('A' for Active; 'I' for Inactive)
REMARK    1  A    between atoms: C_1  and  C_2
REMARK    2  A    between atoms: C_2  and  C_29
REMARK    3  A    between atoms: C_3  and  C_18
REMARK    4  A    between atoms: C_6  and  C_8
REMARK    5  A    between atoms: N_10  and  C_11
REMARK    6  A    between atoms: C_11  and  C_13
REMARK    7  A    between atoms: C_11  and  O_17
REMARK    8  A    between atoms: C_18  and  C_19
REMARK    9  A    between atoms: N_21  and  C_22
REMARK   10  A    between atoms: C_22  and  C_24
REMARK   11  A    between atoms: C_22  and  O_28
REMARK                            x       y       z     vdW  Elec       q    Type
REMARK                         _______ _______ _______ _____ _____    ______ ____
ROOT
ATOM      1  C   UNL     1      -0.381   1.481  -0.255  0.00  0.00    +0.012 C 
ATOM      2  C   UNL     1       0.048   0.032  -0.012  0.00  0.00    -0.021 C 
ATOM      3  C   UNL     1      -1.119  -0.904   0.343  0.00  0.00    +0.005 C 
ATOM      4  C   UNL     1      -0.870  -0.528   1.813  0.00  0.00    +0.017 C 
ATOM      5  C   UNL     1       0.582  -0.223   1.407  0.00  0.00    +0.081 C 
ATOM      6  C   UNL     1       0.957  -0.511  -1.116  0.00  0.00    +0.012 C 
ENDROOT
BRANCH   5   7
ATOM      7  C   UNL     1       1.498  -1.415   1.502  0.00  0.00    +0.219 C 
ATOM      8  O   UNL     1       1.037  -2.521   1.693  0.00  0.00    -0.275 OA
ATOM      9  N   UNL     1       2.830  -1.253   1.375  0.00  0.00    -0.287 N 
ATOM     10  H   UNL     1       3.199  -0.369   1.222  0.00  0.00    +0.151 HD
BRANCH   9  11
ATOM     11  C   UNL     1       3.721  -2.412   1.467  0.00  0.00    +0.253 C 
BRANCH  11  12
ATOM     12  C   UNL     1       4.901  -2.227   0.510  0.00  0.00    +0.232 C 
ATOM     13 CL   UNL     1       5.997  -3.653   0.624  0.00  0.00    -0.079 Cl
ATOM     14 CL   UNL     1       4.286  -2.074  -1.178  0.00  0.00    -0.079 Cl
ATOM     15 CL   UNL     1       5.808  -0.734   0.957  0.00  0.00    -0.079 Cl
ENDBRANCH  11  12
BRANCH  11  16
ATOM     16  O   UNL     1       4.208  -2.534   2.805  0.00  0.00    -0.370 OA
ATOM     17  H   UNL     1       4.707  -1.765   3.113  0.00  0.00    +0.212 HD
ENDBRANCH  11  16
ENDBRANCH   9  11
ENDBRANCH   5   7
BRANCH   3  18
ATOM     18  C   UNL     1      -2.472  -0.428  -0.192  0.00  0.00    +0.100 C 
BRANCH  18  19
ATOM     19  C   UNL     1      -3.522  -1.468   0.102  0.00  0.00    +0.215 C 
ATOM     20  O   UNL     1      -3.219  -2.489   0.682  0.00  0.00    -0.276 OA
ATOM     21  N   UNL     1      -4.798  -1.264  -0.281  0.00  0.00    -0.287 N 
ATOM     22  H   UNL     1      -5.040  -0.447  -0.745  0.00  0.00    +0.151 HD
BRANCH  21  23
ATOM     23  C   UNL     1      -5.819  -2.275   0.005  0.00  0.00    +0.253 C 
BRANCH  23  24
ATOM     24  C   UNL     1      -7.150  -1.584   0.309  0.00  0.00    +0.232 C 
ATOM     25 CL   UNL     1      -8.407  -2.828   0.660  0.00  0.00    -0.079 Cl
ATOM     26 CL   UNL     1      -6.954  -0.507   1.742  0.00  0.00    -0.079 Cl
ATOM     27 CL   UNL     1      -7.657  -0.602  -1.115  0.00  0.00    -0.079 Cl
ENDBRANCH  23  24
BRANCH  23  28
ATOM     28  O   UNL     1      -5.975  -3.128  -1.131  0.00  0.00    -0.370 OA
ATOM     29  H   UNL     1      -6.248  -2.666  -1.936  0.00  0.00    +0.212 HD
ENDBRANCH  23  28
ENDBRANCH  21  23
ENDBRANCH  18  19
ENDBRANCH   3  18
TORSDOF 9
