REMARK  Name = ZINC42338474
REMARK  4 active torsions:
REMARK  status: ('A' for Active; 'I' for Inactive)
REMARK    1  A    between atoms: C_1  and  C_2
REMARK    2  A    between atoms: C_5  and  C_8
REMARK    3  A    between atoms: C_8  and  C_10
REMARK    4  A    between atoms: C_8  and  N_11
REMARK                            x       y       z     vdW  Elec       q    Type
REMARK                         _______ _______ _______ _____ _____    ______ ____
ROOT
ATOM      1  N   UNL     1      -0.816  -4.781   1.039  0.00  0.00    -0.317 N 
ATOM      2  C   UNL     1      -1.380  -6.053   0.931  0.00  0.00    +0.205 A 
ATOM      3  C   UNL     1      -2.266  -6.570   1.986  0.00  0.00    +0.294 A 
ATOM      4  O   UNL     1      -2.518  -5.894   2.966  0.00  0.00    -0.264 OA
ATOM      5  N   UNL     1      -2.795  -7.803   1.852  0.00  0.00    -0.271 N 
ATOM      6  H   UNL     1      -3.381  -8.157   2.540  0.00  0.00    +0.174 HD
ATOM      7  C   UNL     1      -2.512  -8.544   0.765  0.00  0.00    +0.343 A 
ATOM      8  O   UNL     1      -2.996  -9.655   0.655  0.00  0.00    -0.245 OA
ATOM      9  N   UNL     1      -1.704  -8.077  -0.203  0.00  0.00    -0.226 N 
ATOM     10  H   UNL     1      -1.516  -8.631  -0.977  0.00  0.00    +0.194 HD
ATOM     11  N   UNL     1      -1.133  -6.802  -0.112  0.00  0.00    -0.149 NA
ATOM     12  H   UNL     1      -1.004  -4.231   1.816  0.00  0.00    +0.148 HD
ENDROOT
BRANCH   1  13
ATOM     13  C   UNL     1       0.059  -4.275  -0.021  0.00  0.00    +0.099 C 
ATOM     14  C   UNL     1       1.488  -4.768   0.218  0.00  0.00    +0.033 C 
BRANCH  13  19
ATOM     15  C   UNL     1      -0.018   1.503   0.010  0.00  0.00    +0.044 C 
ATOM     16  C   UNL     1       0.002  -0.004   0.002  0.00  0.00    -0.050 A 
ATOM     17  C   UNL     1       0.006  -0.689  -1.199  0.00  0.00    +0.004 A 
ATOM     18  C   UNL     1       0.025  -2.071  -1.206  0.00  0.00    +0.006 A 
ATOM     19  C   UNL     1       0.040  -2.768  -0.013  0.00  0.00    -0.028 A 
ATOM     20  C   UNL     1       0.037  -2.084   1.188  0.00  0.00    +0.006 A 
ATOM     21  C   UNL     1       0.023  -0.702   1.195  0.00  0.00    +0.004 A 
ENDBRANCH  13  19
ENDBRANCH   1  13
TORSDOF 2
