REMARK  Name = ZINC00377770
REMARK  5 active torsions:
REMARK  status: ('A' for Active; 'I' for Inactive)
REMARK    1  A    between atoms: C_4  and  C_7
REMARK    2  A    between atoms: C_12  and  N_21
REMARK    3  A    between atoms: C_16  and  N_20
REMARK    4  A    between atoms: C_17  and  C_18
REMARK    5  A    between atoms: N_21  and  C_22
REMARK                            x       y       z     vdW  Elec       q    Type
REMARK                         _______ _______ _______ _____ _____    ______ ____
ROOT
ATOM      1  C   UNL     1      -0.981   1.824  -1.356  0.00  0.00    +0.098 C 
ATOM      2  C   UNL     1      -1.559   3.214  -1.389  0.00  0.00    +0.008 A 
ATOM      3  C   UNL     1      -2.841   3.406  -1.873  0.00  0.00    +0.010 A 
ATOM      4  C   UNL     1      -3.388   4.673  -1.913  0.00  0.00    +0.024 A 
ATOM      5  C   UNL     1      -2.650   5.762  -1.465  0.00  0.00    +0.035 A 
ATOM      6  C   UNL     1      -1.365   5.572  -0.980  0.00  0.00    +0.069 A 
ATOM      7  C   UNL     1      -0.817   4.297  -0.941  0.00  0.00    +0.136 A 
ATOM      8  O   UNL     1       0.440   4.127  -0.460  0.00  0.00    -0.441 OA
ATOM      9  C   UNL     1       1.128   3.014  -0.765  0.00  0.00    +0.199 C 
ATOM     10  C   UNL     1       0.512   1.886  -1.194  0.00  0.00    +0.098 C 
ENDROOT
BRANCH   1  14
ATOM     11  C   UNL     1      -2.670  -0.332   1.922  0.00  0.00    +0.000 A 
ATOM     12  C   UNL     1      -2.850  -0.787   0.629  0.00  0.00    +0.000 A 
ATOM     13  C   UNL     1      -2.303  -0.089  -0.431  0.00  0.00    +0.004 A 
ATOM     14  C   UNL     1      -1.577   1.064  -0.199  0.00  0.00    -0.035 A 
ATOM     15  C   UNL     1      -1.393   1.516   1.094  0.00  0.00    +0.004 A 
ATOM     16  C   UNL     1      -1.943   0.821   2.154  0.00  0.00    +0.000 A 
ENDBRANCH   1  14
BRANCH   9  17
ATOM     17  N   UNL     1       2.494   3.017  -0.633  0.00  0.00    -0.328 N 
ATOM     18  H   UNL     1       3.004   2.220  -0.846  0.00  0.00    +0.145 HD
ATOM     19  H   UNL     1       2.950   3.818  -0.331  0.00  0.00    +0.145 HD
ENDBRANCH   9  17
BRANCH  10  20
ATOM     20  C   UNL     1       1.300   0.730  -1.499  0.00  0.00    +0.101 C 
ATOM     21  N   UNL     1       1.924  -0.188  -1.741  0.00  0.00    -0.191 NA
ENDBRANCH  10  20
BRANCH   5  22
ATOM     22  N   UNL     1      -3.201   7.045  -1.504  0.00  0.00    -0.314 N 
ATOM     23  H   UNL     1      -3.858   7.270  -2.181  0.00  0.00    +0.152 HD
BRANCH  22  24
ATOM     24  C   UNL     1      -2.807   8.004  -0.567  0.00  0.00    +0.031 A 
ATOM     25  C   UNL     1      -2.436   7.614   0.714  0.00  0.00    +0.023 A 
ATOM     26  C   UNL     1      -2.042   8.564   1.635  0.00  0.00    +0.002 A 
ATOM     27  C   UNL     1      -2.026   9.902   1.288  0.00  0.00    +0.000 A 
ATOM     28  C   UNL     1      -2.399  10.294   0.015  0.00  0.00    +0.002 A 
ATOM     29  C   UNL     1      -2.790   9.349  -0.913  0.00  0.00    +0.023 A 
ENDBRANCH  22  24
ENDBRANCH   5  22
TORSDOF 5
