REMARK  Name = ZINC20275554
REMARK  8 active torsions:
REMARK  status: ('A' for Active; 'I' for Inactive)
REMARK    1  A    between atoms: C_1  and  C_2
REMARK    2  A    between atoms: C_17  and  C_29
REMARK    3  A    between atoms: C_22  and  C_23
REMARK    4  A    between atoms: C_22  and  O_28
REMARK    5  A    between atoms: C_23  and  N_24
REMARK    6  A    between atoms: N_24  and  C_25
REMARK    7  A    between atoms: C_25  and  C_26
REMARK    8  A    between atoms: C_26  and  O_27
REMARK                            x       y       z     vdW  Elec       q    Type
REMARK                         _______ _______ _______ _____ _____    ______ ____
ROOT
ATOM      1  C   UNL     1       0.638  -0.483   1.328  0.00  0.00    +0.012 C 
ATOM      2  C   UNL     1       0.002  -0.004   0.002  0.00  0.00    -0.026 C 
ATOM      3  C   UNL     1      -0.019   1.518   0.010  0.00  0.00    +0.007 C 
ATOM      4  C   UNL     1       1.393   2.103   0.000  0.00  0.00    +0.001 C 
ATOM      5  C   UNL     1       2.159   1.590  -1.220  0.00  0.00    +0.000 C 
ATOM      6  C   UNL     1       2.261   0.066  -1.136  0.00  0.00    +0.004 C 
ATOM      7  C   UNL     1       0.866  -0.549  -1.129  0.00  0.00    -0.005 C 
ATOM      8  C   UNL     1       0.187  -0.302  -2.478  0.00  0.00    +0.004 C 
ATOM      9  C   UNL     1      -1.097  -1.133  -2.500  0.00  0.00    +0.004 C 
ATOM     10  C   UNL     1      -2.054  -0.617  -1.429  0.00  0.00    -0.004 C 
ATOM     11  C   UNL     1      -1.413  -0.572  -0.051  0.00  0.00    -0.001 C 
ATOM     12  C   UNL     1      -2.309   0.083   0.993  0.00  0.00    +0.005 C 
ATOM     13  C   UNL     1      -2.953   1.396   0.536  0.00  0.00    +0.010 C 
ATOM     14  C   UNL     1      -3.660   1.183  -0.779  0.00  0.00    -0.002 C 
ATOM     15  C   UNL     1      -2.606   0.732  -1.817  0.00  0.00    +0.001 C 
ATOM     16  C   UNL     1      -3.409   0.789  -3.124  0.00  0.00    +0.007 C 
ATOM     17  C   UNL     1      -4.215   2.107  -2.969  0.00  0.00    +0.034 C 
ATOM     18  C   UNL     1      -4.295   2.401  -1.450  0.00  0.00    +0.057 C 
ATOM     19  C   UNL     1      -4.757   0.127  -0.604  0.00  0.00    +0.014 C 
ENDROOT
BRANCH  18  20
ATOM     20  O   UNL     1      -5.661   2.524  -1.043  0.00  0.00    -0.390 OA
ATOM     21  H   UNL     1      -6.277   3.349  -1.429  0.00  0.00    +0.210 HD
ENDBRANCH  18  20
BRANCH  18  22
ATOM     22  C   UNL     1      -3.536   3.685  -1.120  0.00  0.00    -0.047 C 
BRANCH  22  23
ATOM     23  N   UNL     1      -4.185   4.822  -1.787  0.00  0.00    +0.382 N 
ATOM     24  H   UNL     1      -4.178   4.661  -2.875  0.00  0.00    -0.086 HD
ATOM     25  H   UNL     1      -5.224   4.910  -1.436  0.00  0.00    -0.086 HD
BRANCH  23  26
ATOM     26  C   UNL     1      -3.481   6.077  -1.492  0.00  0.00    -0.054 C 
BRANCH  26  27
ATOM     27  C   UNL     1      -4.184   7.236  -2.202  0.00  0.00    +0.137 C 
BRANCH  27  28
ATOM     28  O   UNL     1      -5.495   7.402  -1.659  0.00  0.00    -0.397 OA
ATOM     29  H   UNL     1      -6.155   8.191  -2.047  0.00  0.00    +0.209 HD
ENDBRANCH  27  28
ENDBRANCH  26  27
ENDBRANCH  23  26
ENDBRANCH  22  23
ENDBRANCH  18  22
TORSDOF 6
