REMARK  Name = ZINC14162048
REMARK  6 active torsions:
REMARK  status: ('A' for Active; 'I' for Inactive)
REMARK    1  A    between atoms: C_1  and  C_2
REMARK    2  A    between atoms: C_2  and  C_22
REMARK    3  A    between atoms: N_5  and  C_9
REMARK    4  A    between atoms: C_9  and  C_10
REMARK    5  A    between atoms: N_12  and  C_13
REMARK    6  A    between atoms: C_16  and  C_19
REMARK                            x       y       z     vdW  Elec       q    Type
REMARK                         _______ _______ _______ _____ _____    ______ ____
ROOT
ATOM      1  C   UNL     1       2.442   5.407   1.624  0.00  0.00    +0.047 C 
ATOM      2  C   UNL     1       1.985   5.048   0.209  0.00  0.00    +0.135 C 
ATOM      3  C   UNL     1       2.012   6.268  -0.690  0.00  0.00    +0.251 C 
ATOM      4  O   UNL     1       1.373   7.290  -0.557  0.00  0.00    -0.272 OA
ATOM      5  N   UNL     1       2.893   5.980  -1.668  0.00  0.00    -0.215 N 
ATOM      6  C   UNL     1       3.421   4.760  -1.514  0.00  0.00    +0.310 C 
ATOM      7  O   UNL     1       4.240   4.278  -2.271  0.00  0.00    -0.252 OA
ATOM      8  N   UNL     1       2.944   4.128  -0.427  0.00  0.00    -0.281 N 
ATOM      9  H   UNL     1       3.184   3.239  -0.121  0.00  0.00    +0.152 HD
ENDROOT
BRANCH   2  10
ATOM     10  C   UNL     1       0.606   4.440   0.237  0.00  0.00    -0.014 A 
ATOM     11  C   UNL     1      -0.509   5.253   0.157  0.00  0.00    +0.008 A 
ATOM     12  C   UNL     1      -1.774   4.698   0.182  0.00  0.00    +0.022 A 
ATOM     13  C   UNL     1      -1.925   3.326   0.282  0.00  0.00    +0.059 A 
ATOM     14  C   UNL     1      -0.808   2.512   0.368  0.00  0.00    +0.060 A 
ATOM     15  C   UNL     1       0.457   3.070   0.343  0.00  0.00    +0.027 A 
ATOM     16 CL   UNL     1      -0.996   0.791   0.500  0.00  0.00    -0.082 Cl
ATOM     17 CL   UNL     1      -3.514   2.627   0.306  0.00  0.00    -0.082 Cl
ENDBRANCH   2  10
BRANCH   5  18
ATOM     18  C   UNL     1       3.231   6.890  -2.766  0.00  0.00    +0.214 C 
BRANCH  18  19
ATOM     19  C   UNL     1       2.297   6.648  -3.924  0.00  0.00    +0.235 C 
ATOM     20  O   UNL     1       1.435   5.799  -3.840  0.00  0.00    -0.274 OA
ATOM     21  N   UNL     1       2.421   7.375  -5.052  0.00  0.00    -0.284 N 
ATOM     22  H   UNL     1       3.059   8.105  -5.091  0.00  0.00    +0.155 HD
BRANCH  21  23
ATOM     23  C   UNL     1       1.631   7.079  -6.162  0.00  0.00    +0.033 A 
ATOM     24  C   UNL     1       1.273   5.760  -6.428  0.00  0.00    +0.024 A 
ATOM     25  C   UNL     1       0.490   5.465  -7.520  0.00  0.00    +0.015 A 
ATOM     26  C   UNL     1       0.062   6.489  -8.369  0.00  0.00    +0.037 A 
ATOM     27  C   UNL     1       0.428   7.811  -8.103  0.00  0.00    +0.015 A 
ATOM     28  C   UNL     1       1.207   8.101  -7.005  0.00  0.00    +0.024 A 
BRANCH  26  29
ATOM     29  C   UNL     1      -0.773   6.175  -9.545  0.00  0.00    +0.242 C 
ATOM     30  O   UNL     1      -1.145   7.067 -10.282  0.00  0.00    -0.270 OA
ATOM     31  N   UNL     1      -1.125   4.899  -9.800  0.00  0.00    -0.325 N 
ATOM     32  H   UNL     1      -0.829   4.187  -9.212  0.00  0.00    +0.145 HD
ATOM     33  H   UNL     1      -1.674   4.693 -10.573  0.00  0.00    +0.145 HD
ENDBRANCH  26  29
ENDBRANCH  21  23
ENDBRANCH  18  19
ENDBRANCH   5  18
TORSDOF 5
