REMARK  Name = ZINC54575562
REMARK  8 active torsions:
REMARK  status: ('A' for Active; 'I' for Inactive)
REMARK    1  A    between atoms: C_1  and  C_2
REMARK    2  A    between atoms: C_2  and  C_3
REMARK    3  A    between atoms: C_2  and  C_22
REMARK    4  A    between atoms: C_3  and  N_4
REMARK    5  A    between atoms: N_7  and  N_8
REMARK    6  A    between atoms: C_9  and  C_11
REMARK    7  A    between atoms: C_11  and  C_12
REMARK    8  A    between atoms: C_22  and  N_23
REMARK                            x       y       z     vdW  Elec       q    Type
REMARK                         _______ _______ _______ _____ _____    ______ ____
ROOT
ATOM      1  N   UNL     1      -0.055  -0.114  -2.441  0.00  0.00    -0.298 N 
ATOM      2  C   UNL     1       0.387  -0.445  -3.670  0.00  0.00    +0.316 C 
ATOM      3  O   UNL     1       1.427  -1.062  -3.797  0.00  0.00    -0.251 OA
ATOM      4  N   UNL     1      -0.325  -0.092  -4.759  0.00  0.00    -0.218 N 
ATOM      5  H   UNL     1      -0.885   0.378  -2.339  0.00  0.00    +0.150 HD
ATOM      6  H   UNL     1      -0.007  -0.330  -5.644  0.00  0.00    +0.174 HD
ENDROOT
BRANCH   4   7
ATOM      7  N   UNL     1      -1.523   0.619  -4.613  0.00  0.00    -0.233 N 
ATOM      8  C   UNL     1      -2.234   0.972  -5.702  0.00  0.00    +0.230 C 
ATOM      9  O   UNL     1      -1.837   0.674  -6.809  0.00  0.00    -0.274 OA
ATOM     10  H   UNL     1      -1.841   0.857  -3.728  0.00  0.00    +0.173 HD
BRANCH   8  11
ATOM     11  C   UNL     1      -3.523   1.736  -5.545  0.00  0.00    +0.104 C 
BRANCH  11  12
ATOM     12  C   UNL     1      -4.126   2.009  -6.925  0.00  0.00    -0.020 C 
ATOM     13  C   UNL     1      -3.143   2.833  -7.757  0.00  0.00    +0.011 C 
ATOM     14  C   UNL     1      -3.745   3.106  -9.137  0.00  0.00    -0.010 C 
ATOM     15  C   UNL     1      -5.054   3.882  -8.977  0.00  0.00    +0.007 C 
ATOM     16  C   UNL     1      -6.038   3.058  -8.144  0.00  0.00    -0.010 C 
ATOM     17  C   UNL     1      -5.435   2.785  -6.765  0.00  0.00    +0.011 C 
ATOM     18  C   UNL     1      -6.316   1.729  -8.851  0.00  0.00    +0.007 C 
ATOM     19  C   UNL     1      -5.007   0.953  -9.011  0.00  0.00    -0.010 C 
ATOM     20  C   UNL     1      -4.023   1.778  -9.843  0.00  0.00    +0.007 C 
ATOM     21  C   UNL     1      -4.404   0.680  -7.631  0.00  0.00    +0.011 C 
ENDBRANCH  11  12
ENDBRANCH   8  11
ENDBRANCH   4   7
BRANCH   1  22
ATOM     22  C   UNL     1       0.718  -0.497  -1.257  0.00  0.00    +0.110 C 
BRANCH  22  24
ATOM     23  C   UNL     1      -0.019   1.526   0.010  0.00  0.00    +0.011 C 
ATOM     24  C   UNL     1       0.002  -0.004   0.002  0.00  0.00    +0.024 C 
BRANCH  24  25
ATOM     25  C   UNL     1       0.742  -0.511   1.242  0.00  0.00    +0.148 C 
BRANCH  25  26
ATOM     26  N   UNL     1      -0.008  -0.140   2.444  0.00  0.00    -0.271 N 
ATOM     27  C   UNL     1      -0.428  -0.984   3.410  0.00  0.00    +0.108 A 
ATOM     28  C   UNL     1      -1.081  -0.252   4.342  0.00  0.00    +0.041 A 
ATOM     29  C   UNL     1      -1.060   1.085   3.932  0.00  0.00    +0.134 A 
ATOM     30  N   UNL     1      -0.412   1.154   2.797  0.00  0.00    -0.180 NA
ENDBRANCH  25  26
ENDBRANCH  24  25
ENDBRANCH  22  24
ENDBRANCH   1  22
TORSDOF 7
