REMARK  Name = ZINC07131269
REMARK  10 active torsions:
REMARK  status: ('A' for Active; 'I' for Inactive)
REMARK    1  A    between atoms: C_1  and  C_2
REMARK    2  A    between atoms: C_3  and  C_26
REMARK    3  A    between atoms: C_4  and  C_25
REMARK    4  A    between atoms: C_7  and  C_8
REMARK    5  A    between atoms: C_8  and  O_10
REMARK    6  A    between atoms: O_10  and  C_11
REMARK    7  A    between atoms: C_11  and  C_13
REMARK    8  A    between atoms: C_11  and  C_14
REMARK    9  A    between atoms: N_19  and  C_20
REMARK   10  A    between atoms: C_26  and  C_28
REMARK                            x       y       z     vdW  Elec       q    Type
REMARK                         _______ _______ _______ _____ _____    ______ ____
ROOT
ATOM      1  C   UNL     1       8.638   2.807   0.177  0.00  0.00    +0.259 C 
ATOM      2  C   UNL     1       8.989   3.752  -0.974  0.00  0.00    +0.062 C 
ENDROOT
BRANCH   1   3
ATOM      3  C   UNL     1       7.152   2.843   0.422  0.00  0.00    +0.261 C 
ATOM      4  O   UNL     1       6.721   3.275   1.470  0.00  0.00    -0.271 OA
ATOM      5  N   UNL     1       6.302   2.396  -0.524  0.00  0.00    -0.237 N 
ATOM      6  C   UNL     1       4.972   2.428  -0.304  0.00  0.00    +0.306 C 
ATOM      7  O   UNL     1       4.540   2.861   0.746  0.00  0.00    -0.252 OA
ATOM      8  N   UNL     1       4.122   1.981  -1.250  0.00  0.00    -0.296 N 
ATOM      9  H   UNL     1       6.647   2.051  -1.362  0.00  0.00    +0.159 HD
ATOM     10  H   UNL     1       4.467   1.636  -2.088  0.00  0.00    +0.151 HD
BRANCH   8  11
ATOM     11  C   UNL     1       2.677   2.016  -1.012  0.00  0.00    +0.074 C 
ATOM     12  C   UNL     1       2.067   3.341  -1.533  0.00  0.00    +0.022 C 
ATOM     13  C   UNL     1       0.584   3.001  -1.784  0.00  0.00    +0.002 C 
ATOM     14  C   UNL     1       0.511   1.479  -1.997  0.00  0.00    +0.002 C 
ATOM     15  C   UNL     1       1.954   0.947  -1.867  0.00  0.00    +0.022 C 
ENDBRANCH   8  11
ENDBRANCH   1   3
BRANCH   1  16
ATOM     16  O   UNL     1       9.337   3.227   1.378  0.00  0.00    -0.448 OA
BRANCH  16  17
ATOM     17  C   UNL     1      10.561   2.701   1.590  0.00  0.00    +0.357 C 
ATOM     18  O   UNL     1      11.031   1.913   0.792  0.00  0.00    -0.243 OA
BRANCH  17  25
ATOM     19  C   UNL     1      13.396   1.636   2.333  0.00  0.00    +0.047 C 
ATOM     20  C   UNL     1      12.565   2.620   3.116  0.00  0.00    -0.008 A 
ATOM     21  C   UNL     1      12.924   3.243   4.335  0.00  0.00    +0.041 A 
ATOM     22  C   UNL     1      11.865   4.062   4.697  0.00  0.00    +0.024 A 
ATOM     23  N   UNL     1      10.911   3.959   3.761  0.00  0.00    -0.352 N 
ATOM     24  H   UNL     1      10.062   4.428   3.772  0.00  0.00    +0.166 HD
ATOM     25  C   UNL     1      11.326   3.080   2.783  0.00  0.00    +0.128 A 
ATOM     26  C   UNL     1      11.799   4.921   5.934  0.00  0.00    +0.064 C 
BRANCH  21  27
ATOM     27  C   UNL     1      14.175   3.055   5.075  0.00  0.00    +0.162 C 
ATOM     28  O   UNL     1      14.250   2.197   5.930  0.00  0.00    -0.292 OA
ATOM     29  C   UNL     1      15.367   3.926   4.775  0.00  0.00    +0.091 C 
ENDBRANCH  21  27
ENDBRANCH  17  25
ENDBRANCH  16  17
ENDBRANCH   1  16
TORSDOF 6
