REMARK  Name = ZINC10443999
REMARK  11 active torsions:
REMARK  status: ('A' for Active; 'I' for Inactive)
REMARK    1  A    between atoms: C_1  and  C_2
REMARK    2  A    between atoms: C_2  and  C_3
REMARK    3  A    between atoms: C_3  and  C_4
REMARK    4  A    between atoms: C_4  and  N_5
REMARK    5  A    between atoms: C_6  and  N_30
REMARK    6  A    between atoms: C_7  and  N_14
REMARK    7  A    between atoms: N_14  and  C_15
REMARK    8  A    between atoms: C_15  and  C_16
REMARK    9  A    between atoms: C_16  and  C_17
REMARK   10  A    between atoms: C_18  and  C_20
REMARK   11  A    between atoms: C_21  and  C_22
REMARK                            x       y       z     vdW  Elec       q    Type
REMARK                         _______ _______ _______ _____ _____    ______ ____
ROOT
ATOM      1  N   UNL     1      -0.438   1.718   1.573  0.00  0.00    -0.280 N 
ATOM      2  C   UNL     1       0.736   2.432   1.503  0.00  0.00    +0.127 A 
ATOM      3  C   UNL     1       1.106   3.006   0.303  0.00  0.00    +0.140 A 
ATOM      4  C   UNL     1       0.267   2.842  -0.815  0.00  0.00    +0.277 A 
ATOM      5  O   UNL     1       0.569   3.338  -1.887  0.00  0.00    -0.266 OA
ATOM      6  N   UNL     1      -0.873   2.134  -0.693  0.00  0.00    -0.273 N 
ATOM      7  H   UNL     1      -1.468   2.014  -1.488  0.00  0.00    +0.173 HD
ATOM      8  C   UNL     1      -1.220   1.586   0.486  0.00  0.00    +0.331 A 
ATOM      9  O   UNL     1      -2.256   0.956   0.569  0.00  0.00    -0.246 OA
ENDROOT
BRANCH   3  10
ATOM     10  N   UNL     1       2.304   3.742   0.200  0.00  0.00    -0.261 N 
ATOM     11  C   UNL     1       2.262   5.062  -0.070  0.00  0.00    +0.244 C 
ATOM     12  O   UNL     1       1.190   5.636  -0.137  0.00  0.00    -0.270 OA
BRANCH  11  13
ATOM     13  C   UNL     1       3.505   5.806  -0.282  0.00  0.00    +0.068 C 
ATOM     14  C   UNL     1       3.463   7.126  -0.551  0.00  0.00    +0.013 C 
BRANCH  14  15
ATOM     15  C   UNL     1       4.713   7.874  -0.764  0.00  0.00    -0.022 A 
ATOM     16  C   UNL     1       5.946   7.220  -0.682  0.00  0.00    +0.028 A 
ATOM     17  C   UNL     1       7.113   7.926  -0.888  0.00  0.00    +0.043 A 
ATOM     18  C   UNL     1       7.066   9.282  -1.164  0.00  0.00    +0.040 A 
ATOM     19  C   UNL     1       5.849   9.938  -1.242  0.00  0.00    +0.043 A 
ATOM     20  C   UNL     1       4.673   9.243  -1.044  0.00  0.00    +0.028 A 
ATOM     21 CL   UNL     1       5.802  11.639  -1.589  0.00  0.00    -0.083 Cl
ATOM     22 CL   UNL     1       8.645   7.114  -0.793  0.00  0.00    -0.083 Cl
ENDBRANCH  14  15
ENDBRANCH  11  13
BRANCH  10  23
ATOM     23  C   UNL     1       3.594   3.073   0.385  0.00  0.00    +0.114 C 
BRANCH  23  24
ATOM     24  C   UNL     1       4.143   2.640  -0.976  0.00  0.00    +0.016 C 
ATOM     25  C   UNL     1       5.491   1.941  -0.783  0.00  0.00    +0.005 C 
ENDBRANCH  23  24
ENDBRANCH  10  23
ENDBRANCH   3  10
BRANCH   2  26
ATOM     26  N   UNL     1       1.532   2.571   2.615  0.00  0.00    -0.343 N 
ATOM     27  H   UNL     1       2.329   3.123   2.575  0.00  0.00    +0.144 HD
ATOM     28  H   UNL     1       1.298   2.116   3.439  0.00  0.00    +0.144 HD
ENDBRANCH   2  26
BRANCH   1  29
ATOM     29  C   UNL     1      -0.842   1.104   2.839  0.00  0.00    +0.128 C 
BRANCH  29  30
ATOM     30  C   UNL     1      -1.693   2.094   3.637  0.00  0.00    +0.021 C 
BRANCH  30  32
ATOM     31  C   UNL     1      -2.967   2.442   5.758  0.00  0.00    +0.004 C 
ATOM     32  C   UNL     1      -2.116   1.452   4.960  0.00  0.00    -0.002 C 
ENDBRANCH  30  32
ENDBRANCH  29  30
ENDBRANCH   1  29
TORSDOF 9
