REMARK  Name = ZINC15277930
REMARK  7 active torsions:
REMARK  status: ('A' for Active; 'I' for Inactive)
REMARK    1  A    between atoms: N_9  and  C_12
REMARK    2  A    between atoms: C_12  and  C_13
REMARK    3  A    between atoms: C_13  and  O_15
REMARK    4  A    between atoms: O_15  and  C_16
REMARK    5  A    between atoms: C_16  and  C_17
REMARK    6  A    between atoms: N_19  and  C_20
REMARK    7  A    between atoms: C_21  and  C_29
REMARK                            x       y       z     vdW  Elec       q    Type
REMARK                         _______ _______ _______ _____ _____    ______ ____
ROOT
ATOM      1  C   UNL     1      -2.653   8.627  -3.320  0.00  0.00    +0.328 C 
ENDROOT
BRANCH   1   2
ATOM      2  C   UNL     1      -2.279   7.222  -2.922  0.00  0.00    +0.255 C 
ATOM      3  O   UNL     1      -2.260   6.341  -3.755  0.00  0.00    -0.272 OA
ATOM      4  N   UNL     1      -1.965   6.946  -1.641  0.00  0.00    -0.276 N 
ATOM      5  H   UNL     1      -1.980   7.652  -0.975  0.00  0.00    +0.155 HD
BRANCH   4   6
ATOM      6  C   UNL     1      -1.621   5.653  -1.274  0.00  0.00    +0.090 A 
ATOM      7  C   UNL     1      -1.271   5.177  -0.019  0.00  0.00    +0.084 A 
ATOM      8  C   UNL     1      -0.951   3.765   0.100  0.00  0.00    -0.018 A 
ATOM      9  C   UNL     1      -1.032   3.059  -1.049  0.00  0.00    -0.004 A 
ATOM     10  S   UNL     1      -1.524   4.240  -2.273  0.00  0.00    -0.077 S 
ATOM     11  C   UNL     1      -0.761   1.597  -1.232  0.00  0.00    +0.043 C 
ATOM     12  C   UNL     1      -0.013   1.086   0.008  0.00  0.00    +0.005 C 
ATOM     13  C   UNL     1      -0.735   1.583   1.264  0.00  0.00    +0.005 C 
ATOM     14  C   UNL     1      -0.551   3.094   1.407  0.00  0.00    +0.037 C 
BRANCH   7  15
ATOM     15  C   UNL     1      -1.226   6.046   1.118  0.00  0.00    +0.102 C 
ATOM     16  N   UNL     1      -1.191   6.736   2.020  0.00  0.00    -0.191 NA
ENDBRANCH   7  15
ENDBRANCH   4   6
ENDBRANCH   1   2
BRANCH   1  17
ATOM     17  O   UNL     1      -2.944   8.665  -4.742  0.00  0.00    -0.454 OA
BRANCH  17  18
ATOM     18  C   UNL     1      -3.297   9.852  -5.260  0.00  0.00    +0.328 C 
ATOM     19  O   UNL     1      -3.359  10.827  -4.549  0.00  0.00    -0.249 OA
BRANCH  18  20
ATOM     20  C   UNL     1      -3.614   9.970  -6.729  0.00  0.00    +0.246 C 
BRANCH  20  29
ATOM     21  C   UNL     1      -2.934  15.856  -8.380  0.00  0.00    +0.001 A 
ATOM     22  C   UNL     1      -4.280  16.178  -8.271  0.00  0.00    +0.002 A 
ATOM     23  C   UNL     1      -5.203  15.230  -7.888  0.00  0.00    +0.028 A 
ATOM     24  C   UNL     1      -4.781  13.929  -7.604  0.00  0.00    +0.078 A 
ATOM     25  C   UNL     1      -3.411  13.606  -7.716  0.00  0.00    +0.065 A 
ATOM     26  C   UNL     1      -2.494  14.580  -8.106  0.00  0.00    +0.015 A 
ATOM     27  C   UNL     1      -3.000  12.227  -7.412  0.00  0.00    +0.262 A 
ATOM     28  O   UNL     1      -1.835  11.883  -7.490  0.00  0.00    -0.267 OA
ATOM     29  N   UNL     1      -3.967  11.356  -7.043  0.00  0.00    -0.288 N 
ATOM     30  C   UNL     1      -5.264  11.754  -6.967  0.00  0.00    +0.203 A 
ATOM     31  N   UNL     1      -5.656  12.965  -7.224  0.00  0.00    -0.237 NA
ENDBRANCH  20  29
ENDBRANCH  18  20
ENDBRANCH  17  18
ENDBRANCH   1  17
TORSDOF 7
