REMARK  Name = ZINC43509329
REMARK  9 active torsions:
REMARK  status: ('A' for Active; 'I' for Inactive)
REMARK    1  A    between atoms: C_1  and  C_2
REMARK    2  A    between atoms: C_2  and  C_22
REMARK    3  A    between atoms: C_3  and  C_20
REMARK    4  A    between atoms: C_3  and  O_21
REMARK    5  A    between atoms: C_4  and  C_18
REMARK    6  A    between atoms: C_4  and  C_19
REMARK    7  A    between atoms: C_5  and  C_7
REMARK    8  A    between atoms: C_5  and  N_8
REMARK    9  A    between atoms: C_22  and  O_23
REMARK                            x       y       z     vdW  Elec       q    Type
REMARK                         _______ _______ _______ _____ _____    ______ ____
ROOT
ATOM      1  C   UNL     1      -0.505   1.434   0.317  0.00  0.00    +0.047 C 
ATOM      2  C   UNL     1      -0.351  -0.080   0.162  0.00  0.00    +0.121 C 
ATOM      3  C   UNL     1       0.229  -0.423  -1.228  0.00  0.00    +0.103 C 
ATOM      4  C   UNL     1       1.749  -0.546  -0.980  0.00  0.00    +0.044 C 
ATOM      5  C   UNL     1       1.907  -0.264   0.530  0.00  0.00    +0.156 C 
ATOM      6  O   UNL     1       0.621  -0.586   1.103  0.00  0.00    -0.342 OA
ATOM      7  C   UNL     1       2.240   1.211   0.764  0.00  0.00    +0.067 C 
ATOM      8  C   UNL     1       2.513   0.494  -1.803  0.00  0.00    +0.019 C 
ATOM      9  C   UNL     1       2.234  -1.958  -1.315  0.00  0.00    +0.019 C 
ATOM     10  C   UNL     1      -0.062   0.703  -2.223  0.00  0.00    +0.045 C 
ENDROOT
BRANCH   5  11
ATOM     11  N   UNL     1       2.949  -1.120   1.103  0.00  0.00    -0.270 N 
ATOM     12  C   UNL     1       4.250  -0.959   0.711  0.00  0.00    +0.113 A 
ATOM     13  C   UNL     1       5.210  -1.748   1.239  0.00  0.00    +0.094 A 
ATOM     14  C   UNL     1       4.847  -2.731   2.192  0.00  0.00    +0.267 A 
ATOM     15  O   UNL     1       5.695  -3.454   2.682  0.00  0.00    -0.267 OA
ATOM     16  N   UNL     1       3.554  -2.857   2.552  0.00  0.00    -0.274 N 
ATOM     17  H   UNL     1       3.298  -3.528   3.204  0.00  0.00    +0.173 HD
ATOM     18  C   UNL     1       2.618  -2.053   2.014  0.00  0.00    +0.332 A 
ATOM     19  O   UNL     1       1.457  -2.176   2.352  0.00  0.00    -0.246 OA
ATOM     20  I   UNL     1       7.210  -1.523   0.655  0.00  0.00    -0.037 I 
ENDBRANCH   5  11
BRANCH   3  21
ATOM     21  O   UNL     1      -0.303  -1.661  -1.702  0.00  0.00    -0.385 OA
ATOM     22  H   UNL     1      -1.264  -1.658  -1.817  0.00  0.00    +0.210 HD
ENDBRANCH   3  21
BRANCH   2  23
ATOM     23  C   UNL     1      -1.700  -0.774   0.365  0.00  0.00    +0.193 C 
BRANCH  23  24
ATOM     24  O   UNL     1      -2.254  -0.381   1.622  0.00  0.00    -0.392 OA
ATOM     25  H   UNL     1      -3.111  -0.784   1.817  0.00  0.00    +0.210 HD
ENDBRANCH  23  24
ENDBRANCH   2  23
TORSDOF 4
