REMARK  Name = ZINC62363175
REMARK  4 active torsions:
REMARK  status: ('A' for Active; 'I' for Inactive)
REMARK    1  A    between atoms: C_1  and  N_2
REMARK    2  A    between atoms: N_2  and  C_3
REMARK    3  A    between atoms: C_3  and  C_4
REMARK    4  A    between atoms: C_12  and  N_18
REMARK                            x       y       z     vdW  Elec       q    Type
REMARK                         _______ _______ _______ _____ _____    ______ ____
ROOT
ATOM      1  C   UNL     1       0.033   1.622   0.425  0.00  0.00    +0.131 C 
ATOM      2  N   UNL     1       0.019   0.188   0.126  0.00  0.00    -0.312 N 
ATOM      3  C   UNL     1      -0.116  -0.247  -1.186  0.00  0.00    +0.147 A 
ATOM      4  C   UNL     1       1.013  -0.572  -1.948  0.00  0.00    +0.102 A 
ATOM      5  C   UNL     1       0.821  -1.001  -3.255  0.00  0.00    +0.155 A 
ATOM      6  N   UNL     1      -0.414  -1.087  -3.730  0.00  0.00    -0.222 NA
ATOM      7  C   UNL     1      -1.453  -0.773  -2.984  0.00  0.00    +0.225 A 
ATOM      8  N   UNL     1      -1.319  -0.366  -1.737  0.00  0.00    -0.219 NA
ATOM      9 CL   UNL     1       2.179  -1.419  -4.252  0.00  0.00    -0.060 Cl
ENDROOT
BRANCH   4  10
ATOM     10  N   UNL     1       2.302  -0.467  -1.408  0.00  0.00    -0.353 N 
ATOM     11  H   UNL     1       2.418  -0.236  -0.473  0.00  0.00    +0.143 HD
ATOM     12  H   UNL     1       3.077  -0.625  -1.968  0.00  0.00    +0.143 HD
ENDBRANCH   4  10
BRANCH   2  13
ATOM     13  C   UNL     1       0.149  -0.788   1.211  0.00  0.00    +0.142 C 
BRANCH  13  14
ATOM     14  C   UNL     1      -1.221  -1.225   1.661  0.00  0.00    -0.016 A 
ATOM     15  C   UNL     1      -1.823  -0.610   2.743  0.00  0.00    +0.006 A 
ATOM     16  C   UNL     1      -3.080  -1.010   3.155  0.00  0.00    +0.000 A 
ATOM     17  C   UNL     1      -3.736  -2.026   2.485  0.00  0.00    +0.001 A 
ATOM     18  C   UNL     1      -3.136  -2.641   1.403  0.00  0.00    +0.015 A 
ATOM     19  C   UNL     1      -1.880  -2.237   0.987  0.00  0.00    +0.023 A 
ATOM     20 BR   UNL     1      -1.061  -3.075  -0.497  0.00  0.00    -0.050 Br
ENDBRANCH  13  14
ENDBRANCH   2  13
TORSDOF 3
