REMARK  Name = ZINC62740039
REMARK  9 active torsions:
REMARK  status: ('A' for Active; 'I' for Inactive)
REMARK    1  A    between atoms: C_1  and  C_2
REMARK    2  A    between atoms: C_2  and  O_3
REMARK    3  A    between atoms: O_3  and  C_4
REMARK    4  A    between atoms: C_4  and  C_6
REMARK    5  A    between atoms: C_4  and  C_8
REMARK    6  A    between atoms: C_6  and  N_7
REMARK    7  A    between atoms: C_8  and  N_9
REMARK    8  A    between atoms: C_13  and  C_21
REMARK    9  A    between atoms: C_18  and  C_20
REMARK                            x       y       z     vdW  Elec       q    Type
REMARK                         _______ _______ _______ _____ _____    ______ ____
ROOT
ATOM      1  N   UNL     1      -2.815  -1.962   1.912  0.00  0.00    -0.222 N 
ATOM      2  C   UNL     1      -2.429  -2.786   2.907  0.00  0.00    +0.247 C 
ATOM      3  O   UNL     1      -2.009  -3.919   2.801  0.00  0.00    -0.273 OA
ATOM      4  C   UNL     1      -2.629  -2.001   4.183  0.00  0.00    +0.118 C 
ATOM      5  C   UNL     1      -1.300  -1.815   4.907  0.00  0.00    +0.019 C 
ATOM      6  C   UNL     1      -1.520  -0.992   6.179  0.00  0.00    +0.006 C 
ATOM      7  C   UNL     1      -2.518  -1.715   7.086  0.00  0.00    +0.001 C 
ATOM      8  C   UNL     1      -3.853  -1.873   6.355  0.00  0.00    +0.006 C 
ATOM      9  C   UNL     1      -3.642  -2.699   5.084  0.00  0.00    +0.019 C 
ATOM     10  C   UNL     1      -3.118  -4.087   5.459  0.00  0.00    +0.010 C 
ATOM     11  C   UNL     1      -0.318  -1.083   3.990  0.00  0.00    +0.010 C 
ATOM     12  N   UNL     1      -3.152  -0.707   3.727  0.00  0.00    -0.284 N 
ATOM     13  C   UNL     1      -3.221  -0.776   2.383  0.00  0.00    +0.309 C 
ATOM     14  O   UNL     1      -3.612   0.133   1.679  0.00  0.00    -0.252 OA
ATOM     15  H   UNL     1      -3.396   0.050   4.282  0.00  0.00    +0.151 HD
ENDROOT
BRANCH   1  16
ATOM     16  C   UNL     1      -2.788  -2.317   0.491  0.00  0.00    +0.147 C 
BRANCH  16  17
ATOM     17  C   UNL     1      -1.429  -1.938  -0.103  0.00  0.00    +0.119 C 
BRANCH  17  18
ATOM     18  O   UNL     1      -1.222  -0.532   0.040  0.00  0.00    -0.377 OA
BRANCH  18  20
ATOM     19  C   UNL     1       0.257   1.353   0.352  0.00  0.00    +0.034 C 
ATOM     20  C   UNL     1       0.126  -0.171   0.346  0.00  0.00    +0.157 C 
ENDBRANCH  18  20
ENDBRANCH  17  18
BRANCH  17  21
ATOM     21  C   UNL     1      -1.401  -2.309  -1.587  0.00  0.00    -0.053 C 
BRANCH  21  22
ATOM     22  N   UNL     1      -0.055  -2.070  -2.126  0.00  0.00    +0.380 N 
ATOM     23  H   UNL     1      -0.010  -2.403  -3.078  0.00  0.00    -0.090 HD
ATOM     24  H   UNL     1       0.144  -1.081  -2.106  0.00  0.00    -0.090 HD
ATOM     25  H   UNL     1       0.624  -2.561  -1.565  0.00  0.00    -0.090 HD
ENDBRANCH  21  22
ENDBRANCH  17  21
ENDBRANCH  16  17
ENDBRANCH   1  16
TORSDOF 6
