REMARK  Name = ZINC44517101
REMARK  4 active torsions:
REMARK  status: ('A' for Active; 'I' for Inactive)
REMARK    1  A    between atoms: C_1  and  N_2
REMARK    2  A    between atoms: C_5  and  C_8
REMARK    3  A    between atoms: C_8  and  N_9
REMARK    4  A    between atoms: N_9  and  C_10
REMARK                            x       y       z     vdW  Elec       q    Type
REMARK                         _______ _______ _______ _____ _____    ______ ____
ROOT
ATOM      1  C   UNL     1       1.912  -6.121   1.109  0.00  0.00    +0.173 C 
ATOM      2  C   UNL     1       2.197  -6.644   2.498  0.00  0.00    +0.003 A 
ATOM      3  C   UNL     1       1.575  -6.460   3.713  0.00  0.00    +0.046 A 
ATOM      4  C   UNL     1       2.074  -7.083   4.846  0.00  0.00    +0.125 A 
ATOM      5  C   UNL     1       3.197  -7.887   4.750  0.00  0.00    +0.055 A 
ATOM      6  C   UNL     1       3.821  -8.072   3.533  0.00  0.00    +0.042 A 
ATOM      7  C   UNL     1       3.323  -7.448   2.390  0.00  0.00    +0.053 A 
ATOM      8  N   UNL     1       3.770  -7.478   1.066  0.00  0.00    -0.283 N 
ATOM      9  C   UNL     1       3.001  -6.730   0.252  0.00  0.00    +0.239 C 
ATOM     10  O   UNL     1       3.150  -6.574  -0.942  0.00  0.00    -0.273 OA
ATOM     11 BR   UNL     1       5.353  -9.174   3.416  0.00  0.00    -0.048 Br
ATOM     12  F   UNL     1       1.467  -6.905   6.040  0.00  0.00    -0.205 F 
ATOM     13  H   UNL     1       4.544  -7.980   0.768  0.00  0.00    +0.155 HD
ENDROOT
BRANCH   1  14
ATOM     14  N   UNL     1       1.997  -4.654   1.084  0.00  0.00    -0.302 NA
ATOM     15  H   UNL     1       2.958  -4.349   1.044  0.00  0.00    +0.123 HD
BRANCH  14  16
ATOM     16  C   UNL     1       1.223  -4.101  -0.035  0.00  0.00    +0.085 C 
BRANCH  16  21
ATOM     17  C   UNL     1      -0.018   1.465   0.010  0.00  0.00    -0.096 C 
ATOM     18  N   UNL     1       0.002  -0.004   0.002  0.00  0.00    +0.378 N 
ATOM     19  C   UNL     1       0.681  -0.476  -1.210  0.00  0.00    -0.079 C 
ATOM     20  C   UNL     1       0.634  -2.005  -1.264  0.00  0.00    -0.014 C 
ATOM     21  C   UNL     1       1.336  -2.575  -0.029  0.00  0.00    -0.001 C 
ATOM     22  C   UNL     1       0.666  -2.018   1.230  0.00  0.00    -0.014 C 
ATOM     23  C   UNL     1       0.712  -0.489   1.192  0.00  0.00    -0.079 C 
ATOM     24  H   UNL     1      -0.945  -0.352   0.012  0.00  0.00    -0.082 HD
ENDBRANCH  16  21
ENDBRANCH  14  16
ENDBRANCH   1  14
TORSDOF 3
