REMARK  Name = ZINC24980670
REMARK  8 active torsions:
REMARK  status: ('A' for Active; 'I' for Inactive)
REMARK    1  A    between atoms: N_12  and  C_13
REMARK    2  A    between atoms: C_13  and  C_14
REMARK    3  A    between atoms: C_14  and  C_15
REMARK    4  A    between atoms: C_15  and  C_16
REMARK    5  A    between atoms: C_16  and  O_18
REMARK    6  A    between atoms: O_18  and  C_19
REMARK    7  A    between atoms: C_19  and  C_20
REMARK    8  A    between atoms: C_23  and  C_25
REMARK                            x       y       z     vdW  Elec       q    Type
REMARK                         _______ _______ _______ _____ _____    ______ ____
ROOT
ATOM      1  C   UNL     1      -7.319   4.677   0.092  0.00  0.00    +0.122 C 
ENDROOT
BRANCH   1   2
ATOM      2  C   UNL     1      -8.607   3.895   0.100  0.00  0.00    +0.308 C 
ATOM      3  O   UNL     1      -8.580   2.687   0.093  0.00  0.00    -0.251 OA
BRANCH   2   4
ATOM      4  O   UNL     1      -9.784   4.540   0.113  0.00  0.00    -0.455 OA
BRANCH   4   5
ATOM      5  C   UNL     1     -10.983   3.722   0.120  0.00  0.00    +0.329 C 
BRANCH   5   6
ATOM      6  C   UNL     1     -12.199   4.613   0.135  0.00  0.00    +0.255 A 
ATOM      7  N   UNL     1     -12.825   5.079  -0.909  0.00  0.00    -0.108 NA
ATOM      8  N   UNL     1     -13.819   5.801  -0.528  0.00  0.00    -0.107 NA
ATOM      9  C   UNL     1     -13.855   5.830   0.784  0.00  0.00    +0.248 A 
ATOM     10  O   UNL     1     -12.829   5.077   1.228  0.00  0.00    -0.417 OA
BRANCH   9  11
ATOM     11  C   UNL     1     -14.839   6.552   1.619  0.00  0.00    +0.039 A 
ATOM     12  C   UNL     1     -14.758   6.487   3.010  0.00  0.00    +0.016 A 
ATOM     13  C   UNL     1     -15.675   7.167   3.784  0.00  0.00    +0.039 A 
ATOM     14  C   UNL     1     -16.682   7.905   3.182  0.00  0.00    +0.123 A 
ATOM     15  C   UNL     1     -16.770   7.968   1.801  0.00  0.00    +0.039 A 
ATOM     16  C   UNL     1     -15.855   7.296   1.017  0.00  0.00    +0.016 A 
ATOM     17  F   UNL     1     -17.581   8.565   3.945  0.00  0.00    -0.205 F 
ENDBRANCH   9  11
ENDBRANCH   5   6
ENDBRANCH   4   5
ENDBRANCH   2   4
ENDBRANCH   1   2
BRANCH   1  18
ATOM     18  C   UNL     1      -6.134   3.709   0.076  0.00  0.00    +0.030 C 
BRANCH  18  19
ATOM     19  C   UNL     1      -4.826   4.503   0.069  0.00  0.00    +0.103 C 
BRANCH  19  31
ATOM     20  C   UNL     1      -0.013   1.076   0.008  0.00  0.00    +0.001 A 
ATOM     21  C   UNL     1       1.182   1.774   0.000  0.00  0.00    +0.002 A 
ATOM     22  C   UNL     1       1.163   3.161   0.007  0.00  0.00    +0.030 A 
ATOM     23  C   UNL     1      -0.032   3.819   0.022  0.00  0.00    +0.123 A 
ATOM     24  C   UNL     1      -1.258   3.140   0.030  0.00  0.00    +0.043 A 
ATOM     25  C   UNL     1      -1.220   1.738   0.017  0.00  0.00    +0.013 A 
ATOM     26  C   UNL     1      -2.404   4.064   0.045  0.00  0.00    +0.150 C 
ATOM     27  N   UNL     1      -2.187   5.340   0.049  0.00  0.00    -0.113 NA
ATOM     28  S   UNL     1      -0.523   5.522   0.035  0.00  0.00    +0.101 S 
ATOM     29  O   UNL     1      -0.137   6.074   1.285  0.00  0.00    -0.146 OA
ATOM     30  O   UNL     1      -0.160   6.086  -1.218  0.00  0.00    -0.146 OA
ATOM     31  N   UNL     1      -3.692   3.576   0.054  0.00  0.00    -0.327 N 
ATOM     32  H   UNL     1      -3.869   2.490   0.050  0.00  0.00    +0.148 HD
ENDBRANCH  19  31
ENDBRANCH  18  19
ENDBRANCH   1  18
TORSDOF 8
