REMARK  Name = ZINC61687571
REMARK  7 active torsions:
REMARK  status: ('A' for Active; 'I' for Inactive)
REMARK    1  A    between atoms: C_1  and  C_2
REMARK    2  A    between atoms: C_3  and  C_15
REMARK    3  A    between atoms: C_4  and  N_14
REMARK    4  A    between atoms: C_6  and  C_8
REMARK    5  A    between atoms: N_11  and  C_13
REMARK    6  A    between atoms: C_15  and  C_16
REMARK    7  A    between atoms: C_15  and  C_17
REMARK                            x       y       z     vdW  Elec       q    Type
REMARK                         _______ _______ _______ _____ _____    ______ ____
ROOT
ATOM      1  C   UNL     1      -0.422   1.510  -0.172  0.00  0.00    +0.066 C 
ATOM      2  C   UNL     1      -0.255   0.016  -0.062  0.00  0.00    +0.047 A 
ATOM      3  C   UNL     1      -0.105  -0.755  -1.200  0.00  0.00    +0.016 A 
ATOM      4  C   UNL     1       0.047  -2.135  -1.054  0.00  0.00    +0.124 A 
ATOM      5  N   UNL     1       0.043  -2.660   0.167  0.00  0.00    -0.213 NA
ATOM      6  C   UNL     1      -0.103  -1.885   1.233  0.00  0.00    +0.165 A 
ATOM      7  N   UNL     1      -0.245  -0.571   1.124  0.00  0.00    -0.232 NA
ENDROOT
BRANCH   6   8
ATOM      8  C   UNL     1      -0.104  -2.503   2.580  0.00  0.00    +0.057 A 
ATOM      9  C   UNL     1      -0.254  -1.827   3.808  0.00  0.00    +0.146 A 
ATOM     10  N   UNL     1      -0.200  -2.711   4.767  0.00  0.00    -0.179 NA
ATOM     11  N   UNL     1      -0.016  -3.977   4.197  0.00  0.00    -0.274 N 
ATOM     12  C   UNL     1       0.036  -3.833   2.859  0.00  0.00    +0.119 A 
ATOM     13  C   UNL     1       0.096  -5.240   4.929  0.00  0.00    +0.172 C 
ENDBRANCH   6   8
BRANCH   4  14
ATOM     14  N   UNL     1       0.200  -2.947  -2.167  0.00  0.00    -0.343 N 
ATOM     15  H   UNL     1       0.302  -2.550  -3.046  0.00  0.00    +0.144 HD
ATOM     16  H   UNL     1       0.205  -3.912  -2.067  0.00  0.00    +0.144 HD
ENDBRANCH   4  14
BRANCH   3  17
ATOM     17  C   UNL     1      -0.106  -0.120  -2.566  0.00  0.00    +0.018 C 
ATOM     18  C   UNL     1       1.243  -0.365  -3.244  0.00  0.00    +0.012 C 
ATOM     19  C   UNL     1      -1.222  -0.735  -3.414  0.00  0.00    +0.012 C 
ENDBRANCH   3  17
TORSDOF 3
