REMARK  Name = ZINC56978857
REMARK  3 active torsions:
REMARK  status: ('A' for Active; 'I' for Inactive)
REMARK    1  A    between atoms: C_5  and  C_14
REMARK    2  A    between atoms: C_9  and  N_11
REMARK    3  A    between atoms: N_16  and  C_17
REMARK                            x       y       z     vdW  Elec       q    Type
REMARK                         _______ _______ _______ _____ _____    ______ ____
ROOT
ATOM      1  C   UNL     1      -0.017   1.385   0.010  0.00  0.00    +0.003 A 
ATOM      2  C   UNL     1       1.148   2.096   0.002  0.00  0.00    +0.010 A 
ATOM      3  C   UNL     1       2.376   1.421  -0.013  0.00  0.00    +0.003 A 
ATOM      4  C   UNL     1       3.724   1.855  -0.024  0.00  0.00    +0.041 A 
ATOM      5  C   UNL     1       4.514   0.750  -0.037  0.00  0.00    +0.103 A 
ATOM      6  N   UNL     1       3.716  -0.378  -0.035  0.00  0.00    -0.349 N 
ATOM      7  H   UNL     1       4.033  -1.294  -0.043  0.00  0.00    +0.166 HD
ATOM      8  C   UNL     1       2.398   0.013  -0.021  0.00  0.00    +0.078 A 
ATOM      9  C   UNL     1       1.196  -0.690  -0.013  0.00  0.00    +0.150 A 
ATOM     10  C   UNL     1       0.002  -0.004   0.002  0.00  0.00    +0.035 A 
ENDROOT
BRANCH   5  11
ATOM     11  C   UNL     1       5.984   0.754  -0.051  0.00  0.00    +0.261 C 
ATOM     12  O   UNL     1       6.590   1.809  -0.051  0.00  0.00    -0.269 OA
ATOM     13  N   UNL     1       6.661  -0.411  -0.065  0.00  0.00    -0.299 N 
ATOM     14  H   UNL     1       6.178  -1.253  -0.065  0.00  0.00    +0.150 HD
BRANCH  13  15
ATOM     15  C   UNL     1       8.126  -0.408  -0.079  0.00  0.00    +0.159 C 
ATOM     16  C   UNL     1       8.649  -1.720   0.509  0.00  0.00    +0.032 C 
ATOM     17  C   UNL     1      10.051  -1.540   1.064  0.00  0.00    +0.004 C 
ATOM     18  C   UNL     1      11.098  -1.254   0.003  0.00  0.00    +0.019 C 
ATOM     19  C   UNL     1      10.862   0.113  -0.641  0.00  0.00    +0.104 C 
ATOM     20  N   UNL     1       9.909  -0.047  -1.751  0.00  0.00    -0.314 N 
ATOM     21  C   UNL     1       8.620  -0.284  -1.505  0.00  0.00    +0.233 C 
ATOM     22  O   UNL     1       7.842  -0.406  -2.427  0.00  0.00    -0.274 OA
ATOM     23  H   UNL     1      10.220   0.024  -2.667  0.00  0.00    +0.149 HD
ENDBRANCH  13  15
ENDBRANCH   5  11
BRANCH   9  24
ATOM     24  N   UNL     1       1.202  -2.170  -0.021  0.00  0.00    +0.058 N 
ATOM     25  O   UNL     1       0.157  -2.779  -0.015  0.00  0.00    -0.126 OA
ATOM     26  O   UNL     1       2.251  -2.770  -0.035  0.00  0.00    -0.126 OA
ENDBRANCH   9  24
TORSDOF 3
