REMARK  Name = ZINC01080421
REMARK  5 active torsions:
REMARK  status: ('A' for Active; 'I' for Inactive)
REMARK    1  A    between atoms: C_1  and  N_2
REMARK    2  A    between atoms: C_5  and  C_10
REMARK    3  A    between atoms: N_18  and  C_20
REMARK    4  A    between atoms: C_23  and  O_26
REMARK    5  A    between atoms: O_26  and  C_27
REMARK                            x       y       z     vdW  Elec       q    Type
REMARK                         _______ _______ _______ _____ _____    ______ ____
ROOT
ATOM      1  C   UNL     1       4.560  -4.639   0.867  0.00  0.00    +0.139 C 
ATOM      2  N   UNL     1       3.404  -3.789   0.569  0.00  0.00    -0.260 N 
ATOM      3  C   UNL     1       2.581  -3.436   1.600  0.00  0.00    +0.042 C 
ATOM      4  C   UNL     1       1.500  -2.656   1.394  0.00  0.00    +0.058 C 
ATOM      5  C   UNL     1       1.229  -2.186  -0.021  0.00  0.00    +0.142 C 
ATOM      6  N   UNL     1       2.175  -2.622  -1.061  0.00  0.00    -0.288 N 
ATOM      7  C   UNL     1       3.213  -3.403  -0.699  0.00  0.00    +0.307 C 
ATOM      8  O   UNL     1       3.999  -3.768  -1.550  0.00  0.00    -0.252 OA
ATOM      9  C   UNL     1       0.817  -2.435   2.608  0.00  0.00    +0.251 C 
ATOM     10  O   UNL     1      -0.195  -1.766   2.716  0.00  0.00    -0.270 OA
ATOM     11  N   UNL     1       1.429  -3.059   3.630  0.00  0.00    -0.262 N 
ATOM     12  C   UNL     1       2.604  -3.750   3.079  0.00  0.00    +0.165 C 
ATOM     13  H   UNL     1       2.055  -2.353  -1.985  0.00  0.00    +0.151 HD
ENDROOT
BRANCH   5  14
ATOM     14  C   UNL     1       1.208  -0.679  -0.013  0.00  0.00    -0.023 A 
ATOM     15  C   UNL     1       0.002  -0.004   0.002  0.00  0.00    +0.006 A 
ATOM     16  C   UNL     1      -0.017   1.378   0.010  0.00  0.00    +0.000 A 
ATOM     17  C   UNL     1       1.171   2.086   0.002  0.00  0.00    +0.000 A 
ATOM     18  C   UNL     1       2.377   1.411  -0.015  0.00  0.00    +0.000 A 
ATOM     19  C   UNL     1       2.396   0.029  -0.021  0.00  0.00    +0.006 A 
ENDBRANCH   5  14
BRANCH  11  20
ATOM     20  C   UNL     1       1.022  -3.053   4.970  0.00  0.00    +0.037 A 
ATOM     21  C   UNL     1       1.754  -3.752   5.922  0.00  0.00    +0.027 A 
ATOM     22  C   UNL     1       1.355  -3.740   7.244  0.00  0.00    +0.048 A 
ATOM     23  C   UNL     1       0.218  -3.040   7.620  0.00  0.00    +0.129 A 
ATOM     24  C   UNL     1      -0.516  -2.346   6.669  0.00  0.00    +0.048 A 
ATOM     25  C   UNL     1      -0.116  -2.352   5.348  0.00  0.00    +0.027 A 
BRANCH  23  26
ATOM     26  O   UNL     1      -0.176  -3.033   8.921  0.00  0.00    -0.420 OA
BRANCH  26  27
ATOM     27  C   UNL     1       0.627  -3.768   9.846  0.00  0.00    +0.489 C 
ATOM     28  F   UNL     1       0.657  -5.115   9.470  0.00  0.00    -0.149 F 
ATOM     29  F   UNL     1       1.928  -3.255   9.845  0.00  0.00    -0.149 F 
ATOM     30 CL   UNL     1      -0.076  -3.622  11.500  0.00  0.00    +0.000 Cl
ENDBRANCH  26  27
ENDBRANCH  23  26
ENDBRANCH  11  20
TORSDOF 4
