REMARK  Name = ZINC36005162
REMARK  14 active torsions:
REMARK  status: ('A' for Active; 'I' for Inactive)
REMARK    1  A    between atoms: C_1  and  C_2
REMARK    2  A    between atoms: C_3  and  C_13
REMARK    3  A    between atoms: C_4  and  C_12
REMARK    4  A    between atoms: C_7  and  C_8
REMARK    5  A    between atoms: C_8  and  O_10
REMARK    6  A    between atoms: O_10  and  C_11
REMARK    7  A    between atoms: C_13  and  C_15
REMARK    8  A    between atoms: C_15  and  C_17
REMARK    9  A    between atoms: C_15  and  N_18
REMARK   10  A    between atoms: N_18  and  C_19
REMARK   11  A    between atoms: N_22  and  C_23
REMARK   12  A    between atoms: C_23  and  C_24
REMARK   13  A    between atoms: C_23  and  C_25
REMARK   14  A    between atoms: C_23  and  C_26
REMARK                            x       y       z     vdW  Elec       q    Type
REMARK                         _______ _______ _______ _____ _____    ______ ____
ROOT
ATOM      1  C   UNL     1       0.064  -0.834  -2.633  0.00  0.00    +0.185 C 
ATOM      2  O   UNL     1       0.114   0.291  -3.085  0.00  0.00    -0.290 OA
ENDROOT
BRANCH   1   5
ATOM      3  C   UNL     1       2.474  -0.871  -0.551  0.00  0.00    +0.047 C 
ATOM      4  C   UNL     1       1.009  -1.056  -0.249  0.00  0.00    -0.008 A 
ATOM      5  C   UNL     1      -0.052  -1.038  -1.185  0.00  0.00    +0.043 A 
ATOM      6  C   UNL     1      -1.224  -1.248  -0.474  0.00  0.00    +0.024 A 
ATOM      7  N   UNL     1      -0.911  -1.389   0.822  0.00  0.00    -0.352 N 
ATOM      8  H   UNL     1      -1.546  -1.547   1.539  0.00  0.00    +0.166 HD
ATOM      9  C   UNL     1       0.455  -1.279   0.976  0.00  0.00    +0.128 A 
ATOM     10  C   UNL     1      -2.611  -1.309  -1.058  0.00  0.00    +0.064 C 
BRANCH   9  11
ATOM     11  C   UNL     1       1.187  -1.381   2.243  0.00  0.00    +0.356 C 
ATOM     12  O   UNL     1       2.397  -1.264   2.257  0.00  0.00    -0.243 OA
BRANCH  11  13
ATOM     13  O   UNL     1       0.517  -1.605   3.393  0.00  0.00    -0.463 OA
ATOM     14  C   UNL     1       1.294  -1.693   4.589  0.00  0.00    +0.280 C 
ENDBRANCH  11  13
ENDBRANCH   9  11
ENDBRANCH   1   5
BRANCH   1  15
ATOM     15  C   UNL     1       0.123  -2.022  -3.559  0.00  0.00    +0.145 C 
ATOM     16  C   UNL     1       1.498  -2.683  -3.454  0.00  0.00    +0.036 C 
BRANCH  15  17
ATOM     17  N   UNL     1      -0.102  -1.578  -4.937  0.00  0.00    -0.279 N 
ATOM     18  C   UNL     1       0.806  -0.606  -5.550  0.00  0.00    +0.134 C 
ATOM     19  C   UNL     1      -1.143  -2.064  -5.640  0.00  0.00    +0.303 C 
ATOM     20  O   UNL     1      -1.897  -2.871  -5.131  0.00  0.00    -0.253 OA
ATOM     21  N   UNL     1      -1.350  -1.656  -6.908  0.00  0.00    -0.294 N 
ATOM     22  H   UNL     1      -0.749  -1.012  -7.314  0.00  0.00    +0.151 HD
BRANCH  21  23
ATOM     23  C   UNL     1      -2.483  -2.184  -7.672  0.00  0.00    +0.028 C 
ATOM     24  C   UNL     1      -3.789  -1.837  -6.955  0.00  0.00    +0.031 C 
ATOM     25  C   UNL     1      -2.488  -1.563  -9.070  0.00  0.00    +0.031 C 
ATOM     26  C   UNL     1      -2.354  -3.704  -7.790  0.00  0.00    +0.031 C 
ENDBRANCH  21  23
ENDBRANCH  15  17
ENDBRANCH   1  15
TORSDOF 6
