REMARK  Name = ZINC04879311
REMARK  9 active torsions:
REMARK  status: ('A' for Active; 'I' for Inactive)
REMARK    1  A    between atoms: C_1  and  C_2
REMARK    2  A    between atoms: C_2  and  C_3
REMARK    3  A    between atoms: C_3  and  N_4
REMARK    4  A    between atoms: C_5  and  N_30
REMARK    5  A    between atoms: C_6  and  C_13
REMARK    6  A    between atoms: C_13  and  C_15
REMARK    7  A    between atoms: C_15  and  S_16
REMARK    8  A    between atoms: S_16  and  C_17
REMARK    9  A    between atoms: C_19  and  C_23
REMARK                            x       y       z     vdW  Elec       q    Type
REMARK                         _______ _______ _______ _____ _____    ______ ____
ROOT
ATOM      1  C   UNL     1      -1.407  -4.594  -2.506  0.00  0.00    +0.182 C 
ATOM      2  O   UNL     1      -1.333  -3.924  -3.517  0.00  0.00    -0.291 OA
ENDROOT
BRANCH   1   5
ATOM      3  N   UNL     1      -1.425  -2.005   0.118  0.00  0.00    -0.281 N 
ATOM      4  C   UNL     1      -1.432  -2.566  -1.127  0.00  0.00    +0.116 A 
ATOM      5  C   UNL     1      -1.401  -3.966  -1.242  0.00  0.00    +0.120 A 
ATOM      6  C   UNL     1      -1.361  -4.756  -0.004  0.00  0.00    +0.266 A 
ATOM      7  O   UNL     1      -1.332  -5.972  -0.044  0.00  0.00    -0.267 OA
ATOM      8  N   UNL     1      -1.357  -4.105   1.177  0.00  0.00    -0.274 N 
ATOM      9  H   UNL     1      -1.331  -4.612   2.003  0.00  0.00    +0.173 HD
ATOM     10  C   UNL     1      -1.383  -2.763   1.224  0.00  0.00    +0.331 A 
ATOM     11  O   UNL     1      -1.374  -2.215   2.309  0.00  0.00    -0.246 OA
BRANCH   4  12
ATOM     12  N   UNL     1      -1.470  -1.782  -2.239  0.00  0.00    -0.344 N 
ATOM     13  H   UNL     1      -1.571  -0.821  -2.151  0.00  0.00    +0.144 HD
ATOM     14  H   UNL     1      -1.395  -2.183  -3.118  0.00  0.00    +0.144 HD
ENDBRANCH   4  12
BRANCH   3  15
ATOM     15  C   UNL     1      -1.457  -0.546   0.248  0.00  0.00    +0.128 C 
BRANCH  15  17
ATOM     16  C   UNL     1      -0.060   1.520   0.399  0.00  0.00    +0.005 C 
ATOM     17  C   UNL     1      -0.026  -0.003   0.263  0.00  0.00    +0.018 C 
ENDBRANCH  15  17
ENDBRANCH   3  15
ENDBRANCH   1   5
BRANCH   1  18
ATOM     18  C   UNL     1      -1.506  -6.094  -2.602  0.00  0.00    +0.157 C 
BRANCH  18  19
ATOM     19  S   UNL     1      -1.490  -6.591  -4.347  0.00  0.00    -0.078 S 
BRANCH  19  20
ATOM     20  C   UNL     1      -1.610  -8.348  -4.291  0.00  0.00    +0.185 A 
ATOM     21  N   UNL     1      -1.691  -9.083  -3.203  0.00  0.00    -0.201 NA
ATOM     22  C   UNL     1      -1.769 -10.379  -3.539  0.00  0.00    +0.185 A 
ATOM     23  N   UNL     1      -1.738 -10.481  -4.848  0.00  0.00    -0.151 NA
ATOM     24  H   UNL     1      -1.601  -8.920  -6.293  0.00  0.00    +0.191 HD
ATOM     25  N   UNL     1      -1.641  -9.176  -5.358  0.00  0.00    -0.253 N 
BRANCH  22  26
ATOM     26  C   UNL     1      -1.873 -11.512  -2.587  0.00  0.00    +0.056 A 
ATOM     27  C   UNL     1      -1.902 -11.272  -1.215  0.00  0.00    +0.014 A 
ATOM     28  C   UNL     1      -1.999 -12.330  -0.334  0.00  0.00    +0.001 A 
ATOM     29  C   UNL     1      -2.068 -13.627  -0.809  0.00  0.00    +0.003 A 
ATOM     30  C   UNL     1      -2.039 -13.873  -2.170  0.00  0.00    +0.039 A 
ATOM     31  C   UNL     1      -1.948 -12.821  -3.063  0.00  0.00    +0.134 A 
ATOM     32  F   UNL     1      -1.927 -13.062  -4.392  0.00  0.00    -0.205 F 
ENDBRANCH  22  26
ENDBRANCH  19  20
ENDBRANCH  18  19
ENDBRANCH   1  18
TORSDOF 8
