REMARK  Name = ZINC64190781
REMARK  10 active torsions:
REMARK  status: ('A' for Active; 'I' for Inactive)
REMARK    1  A    between atoms: C_1  and  O_2
REMARK    2  A    between atoms: O_2  and  C_3
REMARK    3  A    between atoms: C_3  and  C_5
REMARK    4  A    between atoms: C_5  and  C_7
REMARK    5  A    between atoms: C_5  and  N_17
REMARK    6  A    between atoms: C_7  and  C_8
REMARK    7  A    between atoms: C_18  and  C_20
REMARK    8  A    between atoms: C_20  and  C_21
REMARK    9  A    between atoms: C_21  and  N_22
REMARK   10  A    between atoms: N_25  and  C_26
REMARK                            x       y       z     vdW  Elec       q    Type
REMARK                         _______ _______ _______ _____ _____    ______ ____
ROOT
ATOM      1  N   UNL     1      -2.643  -2.570   0.013  0.00  0.00    -0.302 N 
ATOM      2  C   UNL     1      -3.306  -2.679   1.182  0.00  0.00    +0.215 C 
ATOM      3  O   UNL     1      -2.744  -2.417   2.224  0.00  0.00    -0.276 OA
ATOM      4  H   UNL     1      -3.092  -2.779  -0.820  0.00  0.00    +0.150 HD
ENDROOT
BRANCH   1   5
ATOM      5  C   UNL     1      -1.244  -2.135   0.003  0.00  0.00    +0.186 C 
BRANCH   5   6
ATOM      6  C   UNL     1      -1.185  -0.630   0.010  0.00  0.00    +0.328 C 
ATOM      7  O   UNL     1      -2.208   0.015   0.023  0.00  0.00    -0.249 OA
BRANCH   6   9
ATOM      8  C   UNL     1      -0.017   1.425   0.010  0.00  0.00    +0.280 C 
ATOM      9  O   UNL     1       0.002  -0.004   0.002  0.00  0.00    -0.467 OA
ENDBRANCH   6   9
ENDBRANCH   5   6
BRANCH   5  10
ATOM     10  C   UNL     1      -0.555  -2.666  -1.256  0.00  0.00    +0.067 C 
BRANCH  10  11
ATOM     11  C   UNL     1      -0.505  -4.172  -1.204  0.00  0.00    -0.039 C 
ATOM     12  C   UNL     1      -1.383  -5.034  -1.765  0.00  0.00    -0.001 A 
ATOM     13  C   UNL     1      -2.601  -4.837  -2.559  0.00  0.00    +0.010 A 
ATOM     14  C   UNL     1      -3.286  -5.921  -2.990  0.00  0.00    +0.001 A 
ATOM     15  C   UNL     1      -2.862  -7.225  -2.698  0.00  0.00    +0.002 A 
ATOM     16  C   UNL     1      -1.753  -7.486  -1.974  0.00  0.00    +0.026 A 
ATOM     17  C   UNL     1      -0.956  -6.421  -1.470  0.00  0.00    +0.043 A 
ATOM     18  N   UNL     1       0.143  -6.416  -0.756  0.00  0.00    -0.380 N 
ATOM     19  C   UNL     1       0.542  -5.023  -0.521  0.00  0.00    +0.144 C 
ATOM     20  H   UNL     1       0.616  -7.201  -0.439  0.00  0.00    +0.160 HD
ENDBRANCH  10  11
ENDBRANCH   5  10
ENDBRANCH   1   5
BRANCH   2  21
ATOM     21  C   UNL     1      -4.745  -3.126   1.193  0.00  0.00    +0.114 C 
BRANCH  21  22
ATOM     22  C   UNL     1      -5.255  -3.165   2.635  0.00  0.00    +0.115 C 
BRANCH  22  23
ATOM     23  N   UNL     1      -6.654  -3.599   2.646  0.00  0.00    -0.299 N 
ATOM     24  C   UNL     1      -7.317  -3.708   3.815  0.00  0.00    +0.300 C 
ATOM     25  O   UNL     1      -6.754  -3.446   4.860  0.00  0.00    -0.253 OA
ATOM     26  N   UNL     1      -8.604  -4.108   3.825  0.00  0.00    -0.297 N 
ATOM     27  H   UNL     1      -7.104  -3.808   1.812  0.00  0.00    +0.150 HD
ATOM     28  H   UNL     1      -9.054  -4.317   2.991  0.00  0.00    +0.151 HD
BRANCH  26  29
ATOM     29  C   UNL     1      -9.324  -4.226   5.095  0.00  0.00    +0.074 C 
ATOM     30  C   UNL     1      -9.046  -5.598   5.713  0.00  0.00    +0.022 C 
ATOM     31  C   UNL     1      -9.799  -5.722   7.040  0.00  0.00    +0.002 C 
ATOM     32  C   UNL     1     -11.301  -5.569   6.790  0.00  0.00    +0.000 C 
ATOM     33  C   UNL     1     -11.578  -4.197   6.173  0.00  0.00    +0.002 C 
ATOM     34  C   UNL     1     -10.826  -4.074   4.846  0.00  0.00    +0.022 C 
ENDBRANCH  26  29
ENDBRANCH  22  23
ENDBRANCH  21  22
ENDBRANCH   2  21
TORSDOF 9
