REMARK  Name = ZINC39383753
REMARK  2 active torsions:
REMARK  status: ('A' for Active; 'I' for Inactive)
REMARK    1  A    between atoms: C_1  and  C_2
REMARK    2  A    between atoms: C_3  and  C_13
REMARK                            x       y       z     vdW  Elec       q    Type
REMARK                         _______ _______ _______ _____ _____    ______ ____
ROOT
ATOM      1  C   UNL     1      -0.039   0.190  -2.410  0.00  0.00    +0.083 A 
ATOM      2  C   UNL     1       0.287   1.538  -2.354  0.00  0.00    +0.098 A 
ATOM      3  C   UNL     1       0.489   2.232  -3.555  0.00  0.00    +0.253 A 
ATOM      4  O   UNL     1       0.777   3.417  -3.546  0.00  0.00    -0.268 OA
ATOM      5  N   UNL     1       0.360   1.565  -4.722  0.00  0.00    -0.295 N 
ATOM      6  H   UNL     1       0.497   2.030  -5.562  0.00  0.00    +0.172 HD
ATOM      7  C   UNL     1       0.039   0.243  -4.722  0.00  0.00    +0.199 A 
ATOM      8  N   UNL     1      -0.147  -0.418  -3.600  0.00  0.00    -0.216 NA
ATOM      9  N   UNL     1      -0.088  -0.415  -5.917  0.00  0.00    -0.296 N 
ATOM     10  C   UNL     1      -0.378  -1.858  -5.969  0.00  0.00    +0.113 C 
ATOM     11  C   UNL     1      -1.746  -2.039  -6.623  0.00  0.00    +0.054 C 
ATOM     12  C   UNL     1      -1.852  -1.217  -7.881  0.00  0.00    -0.041 A 
ATOM     13  C   UNL     1      -2.824  -1.577  -8.806  0.00  0.00    +0.004 A 
ATOM     14  C   UNL     1      -2.981  -0.861  -9.974  0.00  0.00    +0.000 A 
ATOM     15  C   UNL     1      -2.166   0.227 -10.229  0.00  0.00    +0.000 A 
ATOM     16  C   UNL     1      -1.197   0.585  -9.313  0.00  0.00    +0.005 A 
ATOM     17  C   UNL     1      -1.035  -0.139  -8.140  0.00  0.00    -0.027 A 
ATOM     18  C   UNL     1       0.054   0.290  -7.195  0.00  0.00    +0.143 C 
ENDROOT
BRANCH   1  21
ATOM     19  C   UNL     1       1.520  -2.222  -1.862  0.00  0.00    +0.066 C 
ATOM     20  C   UNL     1       0.481  -1.730  -0.888  0.00  0.00    +0.052 A 
ATOM     21  C   UNL     1      -0.259  -0.575  -1.162  0.00  0.00    +0.040 A 
ATOM     22  C   UNL     1      -1.212  -0.160  -0.226  0.00  0.00    +0.126 A 
ATOM     23  N   UNL     1      -1.379  -0.869   0.876  0.00  0.00    -0.222 NA
ATOM     24  C   UNL     1      -0.658  -1.959   1.100  0.00  0.00    +0.218 A 
ATOM     25  N   UNL     1       0.251  -2.387   0.234  0.00  0.00    -0.219 NA
ATOM     26  N   UNL     1      -0.864  -2.672   2.265  0.00  0.00    -0.300 N 
ATOM     27  C   UNL     1      -0.145  -3.891   2.661  0.00  0.00    +0.108 C 
ATOM     28  C   UNL     1      -0.725  -4.345   4.017  0.00  0.00    +0.020 C 
ATOM     29  C   UNL     1      -2.125  -3.677   4.037  0.00  0.00    +0.020 C 
ATOM     30  C   UNL     1      -1.836  -2.332   3.320  0.00  0.00    +0.108 C 
ENDBRANCH   1  21
TORSDOF 1
