REMARK  Name = ZINC16025254
REMARK  11 active torsions:
REMARK  status: ('A' for Active; 'I' for Inactive)
REMARK    1  A    between atoms: C_1  and  C_2
REMARK    2  A    between atoms: C_2  and  C_3
REMARK    3  A    between atoms: C_2  and  C_4
REMARK    4  A    between atoms: C_4  and  C_5
REMARK    5  A    between atoms: N_13  and  C_16
REMARK    6  A    between atoms: C_16  and  C_17
REMARK    7  A    between atoms: C_17  and  C_18
REMARK    8  A    between atoms: C_21  and  O_26
REMARK    9  A    between atoms: C_22  and  O_24
REMARK   10  A    between atoms: O_24  and  C_25
REMARK   11  A    between atoms: O_26  and  C_27
REMARK                            x       y       z     vdW  Elec       q    Type
REMARK                         _______ _______ _______ _____ _____    ______ ____
ROOT
ATOM      1  C   UNL     1      -2.050  -0.348  -1.381  0.00  0.00    -0.057 C 
ATOM      2  C   UNL     1      -3.471  -0.951  -1.424  0.00  0.00    +0.073 C 
ATOM      3  C   UNL     1      -4.318   0.085  -2.215  0.00  0.00    +0.088 C 
ATOM      4  C   UNL     1      -4.684  -0.657  -3.480  0.00  0.00    +0.225 C 
ATOM      5  O   UNL     1      -5.344  -0.206  -4.391  0.00  0.00    -0.275 OA
ATOM      6  N   UNL     1      -4.166  -1.890  -3.437  0.00  0.00    -0.241 N 
ATOM      7  C   UNL     1      -3.465  -2.172  -2.315  0.00  0.00    +0.224 C 
ATOM      8  O   UNL     1      -2.918  -3.223  -2.058  0.00  0.00    -0.275 OA
ATOM      9  C   UNL     1      -3.342   1.226  -2.528  0.00  0.00    +0.050 C 
ATOM     10  N   UNL     1      -2.249   1.115  -1.551  0.00  0.00    +0.394 N 
ATOM     11  C   UNL     1      -2.810   1.131  -3.930  0.00  0.00    -0.028 A 
ATOM     12  C   UNL     1      -2.102   0.167  -4.612  0.00  0.00    +0.004 A 
ATOM     13  C   UNL     1      -1.745   0.374  -5.933  0.00  0.00    +0.000 A 
ATOM     14  C   UNL     1      -2.100   1.552  -6.565  0.00  0.00    +0.002 A 
ATOM     15  C   UNL     1      -2.809   2.520  -5.886  0.00  0.00    +0.023 A 
ATOM     16  C   UNL     1      -3.174   2.319  -4.556  0.00  0.00    +0.036 A 
ATOM     17  N   UNL     1      -3.881   3.135  -3.671  0.00  0.00    -0.286 N 
ATOM     18  C   UNL     1      -4.024   2.565  -2.459  0.00  0.00    +0.211 C 
ATOM     19  O   UNL     1      -4.593   3.040  -1.498  0.00  0.00    -0.277 OA
ATOM     20  H   UNL     1      -2.526   1.538  -0.678  0.00  0.00    -0.083 HD
ATOM     21  H   UNL     1      -4.229   4.011  -3.902  0.00  0.00    +0.155 HD
ATOM     22  H   UNL     1      -1.408   1.547  -1.903  0.00  0.00    -0.083 HD
ENDROOT
BRANCH   1  23
ATOM     23  C   UNL     1      -1.388  -0.642  -0.033  0.00  0.00    -0.012 C 
BRANCH  23  25
ATOM     24  C   UNL     1       0.632  -0.219   1.375  0.00  0.00    +0.007 C 
ATOM     25  C   UNL     1       0.024  -0.052  -0.019  0.00  0.00    -0.019 C 
ATOM     26  C   UNL     1       0.892  -0.784  -1.045  0.00  0.00    +0.007 C 
ENDBRANCH  23  25
ENDBRANCH   1  23
BRANCH   6  27
ATOM     27  C   UNL     1      -4.347  -2.863  -4.518  0.00  0.00    +0.121 C 
BRANCH  27  28
ATOM     28  C   UNL     1      -3.209  -2.719  -5.530  0.00  0.00    +0.054 C 
BRANCH  28  29
ATOM     29  C   UNL     1      -3.395  -3.720  -6.641  0.00  0.00    -0.042 A 
ATOM     30  C   UNL     1      -2.838  -4.981  -6.534  0.00  0.00    +0.007 A 
ATOM     31  C   UNL     1      -3.007  -5.902  -7.551  0.00  0.00    +0.049 A 
ATOM     32  C   UNL     1      -3.735  -5.563  -8.680  0.00  0.00    +0.161 A 
ATOM     33  C   UNL     1      -4.296  -4.294  -8.787  0.00  0.00    +0.162 A 
ATOM     34  C   UNL     1      -4.127  -3.377  -7.763  0.00  0.00    +0.053 A 
BRANCH  33  35
ATOM     35  O   UNL     1      -5.011  -3.957  -9.894  0.00  0.00    -0.491 OA
ATOM     36  C   UNL     1      -5.558  -2.637  -9.935  0.00  0.00    +0.277 C 
ENDBRANCH  33  35
BRANCH  32  37
ATOM     37  O   UNL     1      -3.901  -6.469  -9.681  0.00  0.00    -0.491 OA
ATOM     38  C   UNL     1      -3.297  -7.751  -9.503  0.00  0.00    +0.277 C 
ENDBRANCH  32  37
ENDBRANCH  28  29
ENDBRANCH  27  28
ENDBRANCH   6  27
TORSDOF 7
