REMARK  Name = ZINC06711607
REMARK  10 active torsions:
REMARK  status: ('A' for Active; 'I' for Inactive)
REMARK    1  A    between atoms: C_1  and  C_2
REMARK    2  A    between atoms: C_2  and  C_3
REMARK    3  A    between atoms: C_2  and  C_4
REMARK    4  A    between atoms: C_2  and  C_5
REMARK    5  A    between atoms: C_8  and  C_11
REMARK    6  A    between atoms: C_11  and  N_12
REMARK    7  A    between atoms: C_16  and  N_30
REMARK    8  A    between atoms: C_20  and  C_21
REMARK    9  A    between atoms: N_23  and  C_24
REMARK   10  A    between atoms: C_24  and  C_25
REMARK                            x       y       z     vdW  Elec       q    Type
REMARK                         _______ _______ _______ _____ _____    ______ ____
ROOT
ATOM      1  N   UNL     1       2.094   0.491  -0.106  0.00  0.00    -0.332 N 
ATOM      2  C   UNL     1       1.260  -0.604  -0.055  0.00  0.00    +0.050 A 
ATOM      3  C   UNL     1       1.491  -1.976  -0.077  0.00  0.00    +0.028 A 
ATOM      4  C   UNL     1       0.435  -2.854  -0.010  0.00  0.00    +0.025 A 
ATOM      5  C   UNL     1      -0.876  -2.383   0.080  0.00  0.00    +0.025 A 
ATOM      6  C   UNL     1      -1.128  -1.027   0.104  0.00  0.00    +0.032 A 
ATOM      7  C   UNL     1      -0.060  -0.121   0.036  0.00  0.00    +0.002 A 
ATOM      8  C   UNL     1       0.015   1.292   0.038  0.00  0.00    +0.041 A 
ATOM      9  C   UNL     1       1.326   1.638  -0.049  0.00  0.00    +0.106 A 
ENDROOT
BRANCH   9  10
ATOM     10  C   UNL     1       1.846   3.013  -0.077  0.00  0.00    +0.261 C 
ATOM     11  O   UNL     1       1.084   3.953   0.050  0.00  0.00    -0.269 OA
ATOM     12  N   UNL     1       3.165   3.232  -0.244  0.00  0.00    -0.303 N 
ATOM     13  H   UNL     1       3.784   2.485  -0.252  0.00  0.00    +0.150 HD
BRANCH  12  14
ATOM     14  C   UNL     1       3.665   4.598  -0.415  0.00  0.00    +0.179 C 
BRANCH  14  15
ATOM     15  C   UNL     1       5.162   4.568  -0.581  0.00  0.00    +0.122 A 
ATOM     16  C   UNL     1       5.822   4.463  -1.749  0.00  0.00    +0.046 A 
ATOM     17  C   UNL     1       7.202   4.474  -1.442  0.00  0.00    +0.041 A 
ATOM     18  C   UNL     1       7.303   4.586  -0.105  0.00  0.00    +0.195 A 
ATOM     19  O   UNL     1       6.065   4.648   0.410  0.00  0.00    -0.466 OA
ENDBRANCH  14  15
ENDBRANCH  12  14
ENDBRANCH   9  10
BRANCH   5  20
ATOM     20  N   UNL     1      -1.939  -3.291   0.146  0.00  0.00    -0.358 N 
ATOM     21  H   UNL     1      -1.764  -4.245   0.130  0.00  0.00    +0.142 HD
ATOM     22  H   UNL     1      -2.851  -2.966   0.209  0.00  0.00    +0.142 HD
ENDBRANCH   5  20
BRANCH   1  23
ATOM     23  C   UNL     1       3.555   0.446  -0.206  0.00  0.00    +0.157 C 
BRANCH  23  27
ATOM     24  C   UNL     1       5.257   0.692   3.704  0.00  0.00    -0.042 A 
ATOM     25  C   UNL     1       5.045  -0.542   3.119  0.00  0.00    +0.004 A 
ATOM     26  C   UNL     1       4.494  -0.622   1.854  0.00  0.00    +0.005 A 
ATOM     27  C   UNL     1       4.155   0.533   1.174  0.00  0.00    -0.028 A 
ATOM     28  C   UNL     1       4.373   1.768   1.756  0.00  0.00    +0.005 A 
ATOM     29  C   UNL     1       4.920   1.847   3.023  0.00  0.00    +0.004 A 
BRANCH  24  31
ATOM     30  C   UNL     1       7.242   0.129   5.080  0.00  0.00    +0.015 C 
ATOM     31  C   UNL     1       5.857   0.779   5.084  0.00  0.00    -0.013 C 
ATOM     32  C   UNL     1       5.985   2.248   5.493  0.00  0.00    +0.015 C 
ATOM     33  C   UNL     1       4.954   0.049   6.080  0.00  0.00    +0.015 C 
ENDBRANCH  24  31
ENDBRANCH  23  27
ENDBRANCH   1  23
TORSDOF 7
