REMARK  Name = ZINC39586617
REMARK  6 active torsions:
REMARK  status: ('A' for Active; 'I' for Inactive)
REMARK    1  A    between atoms: C_1  and  C_2
REMARK    2  A    between atoms: C_10  and  C_12
REMARK    3  A    between atoms: C_12  and  O_13
REMARK    4  A    between atoms: O_13  and  C_14
REMARK    5  A    between atoms: C_14  and  C_16
REMARK    6  A    between atoms: C_19  and  C_21
REMARK                            x       y       z     vdW  Elec       q    Type
REMARK                         _______ _______ _______ _____ _____    ______ ____
ROOT
ATOM      1  C   UNL     1      -0.018   1.503   0.010  0.00  0.00    +0.047 C 
ATOM      2  C   UNL     1       0.002  -0.004   0.002  0.00  0.00    -0.009 A 
ATOM      3  C   UNL     1       0.006  -0.708  -1.196  0.00  0.00    +0.063 A 
ATOM      4  C   UNL     1       0.025  -2.089  -1.168  0.00  0.00    +0.133 A 
ATOM      5  N   UNL     1       0.040  -2.743  -0.022  0.00  0.00    -0.237 NA
ATOM      6  C   UNL     1       0.037  -2.109   1.139  0.00  0.00    +0.144 A 
ATOM      7  C   UNL     1       0.023  -0.719   1.188  0.00  0.00    +0.085 A 
ATOM      8 CL   UNL     1       0.026   0.109   2.714  0.00  0.00    -0.080 Cl
ATOM      9  N   UNL     1       0.053  -2.841   2.327  0.00  0.00    -0.266 N 
ATOM     10  C   UNL     1       0.071  -4.189   2.287  0.00  0.00    +0.256 C 
ATOM     11  O   UNL     1       0.074  -4.764   1.220  0.00  0.00    -0.272 OA
ATOM     12 CL   UNL     1      -0.013   0.139  -2.711  0.00  0.00    -0.082 Cl
ATOM     13  H   UNL     1       0.050  -2.381   3.180  0.00  0.00    +0.156 HD
ENDROOT
BRANCH  10  14
ATOM     14  C   UNL     1       0.088  -4.980   3.570  0.00  0.00    +0.328 C 
BRANCH  14  15
ATOM     15  O   UNL     1       0.106  -6.376   3.268  0.00  0.00    -0.455 OA
BRANCH  15  16
ATOM     16  C   UNL     1       0.123  -7.224   4.308  0.00  0.00    +0.311 C 
ATOM     17  O   UNL     1       0.123  -6.795   5.437  0.00  0.00    -0.251 OA
BRANCH  16  18
ATOM     18  C   UNL     1       0.143  -8.712   4.067  0.00  0.00    +0.101 C 
ATOM     19  C   UNL     1       1.420  -9.470   4.433  0.00  0.00    +0.019 C 
ATOM     20  C   UNL     1       0.164  -9.626   5.293  0.00  0.00    +0.000 C 
ATOM     21  C   UNL     1       0.163  -8.960   6.671  0.00  0.00    +0.008 C 
ENDBRANCH  16  18
ENDBRANCH  15  16
ENDBRANCH  14  15
ENDBRANCH  10  14
TORSDOF 4
