REMARK  Name = ZINC45789212
REMARK  9 active torsions:
REMARK  status: ('A' for Active; 'I' for Inactive)
REMARK    1  A    between atoms: C_1  and  C_2
REMARK    2  A    between atoms: C_4  and  C_8
REMARK    3  A    between atoms: C_5  and  C_7
REMARK    4  A    between atoms: N_10  and  N_11
REMARK    5  A    between atoms: N_14  and  C_15
REMARK    6  A    between atoms: C_15  and  C_16
REMARK    7  A    between atoms: C_21  and  C_22
REMARK    8  A    between atoms: C_22  and  N_23
REMARK    9  A    between atoms: C_27  and  C_30
REMARK                            x       y       z     vdW  Elec       q    Type
REMARK                         _______ _______ _______ _____ _____    ______ ____
ROOT
ATOM      1  N   UNL     1      -3.464  -4.540  -0.007  0.00  0.00    -0.218 N 
ATOM      2  C   UNL     1      -4.811  -4.480  -0.001  0.00  0.00    +0.316 C 
ATOM      3  O   UNL     1      -5.465  -5.505  -0.003  0.00  0.00    -0.251 OA
ATOM      4  N   UNL     1      -5.432  -3.284   0.008  0.00  0.00    -0.294 N 
ATOM      5  H   UNL     1      -3.017  -5.400  -0.013  0.00  0.00    +0.174 HD
ATOM      6  H   UNL     1      -4.910  -2.466   0.010  0.00  0.00    +0.151 HD
ENDROOT
BRANCH   1   9
ATOM      7  C   UNL     1      -1.364  -3.418  -0.010  0.00  0.00    +0.263 C 
ATOM      8  O   UNL     1      -0.804  -4.497  -0.018  0.00  0.00    -0.269 OA
ATOM      9  N   UNL     1      -2.711  -3.358  -0.004  0.00  0.00    -0.229 N 
ATOM     10  H   UNL     1      -3.158  -2.498   0.002  0.00  0.00    +0.173 HD
BRANCH   7  14
ATOM     11  C   UNL     1      -0.018   1.503   0.010  0.00  0.00    +0.086 C 
ATOM     12  C   UNL     1       0.002  -0.004   0.002  0.00  0.00    +0.103 A 
ATOM     13  C   UNL     1      -1.081  -0.797   0.003  0.00  0.00    +0.057 A 
ATOM     14  C   UNL     1      -0.571  -2.176  -0.007  0.00  0.00    +0.079 A 
ATOM     15  C   UNL     1       0.788  -2.066  -0.013  0.00  0.00    +0.114 A 
ATOM     16  O   UNL     1       1.106  -0.767  -0.013  0.00  0.00    -0.464 OA
ATOM     17  C   UNL     1       1.766  -3.212  -0.024  0.00  0.00    +0.087 C 
ENDBRANCH   7  14
ENDBRANCH   1   9
BRANCH   4  18
ATOM     18  C   UNL     1      -6.896  -3.219   0.015  0.00  0.00    +0.141 C 
BRANCH  18  19
ATOM     19  C   UNL     1      -7.334  -1.777   0.024  0.00  0.00    -0.029 A 
ATOM     20  C   UNL     1      -7.724  -1.181   1.209  0.00  0.00    +0.005 A 
ATOM     21  C   UNL     1      -8.126   0.142   1.218  0.00  0.00    +0.000 A 
ATOM     22  C   UNL     1      -8.139   0.868   0.041  0.00  0.00    +0.000 A 
ATOM     23  C   UNL     1      -7.748   0.272  -1.143  0.00  0.00    +0.002 A 
ATOM     24  C   UNL     1      -7.342  -1.049  -1.151  0.00  0.00    -0.059 A 
BRANCH  24  25
ATOM     25  C   UNL     1      -6.911  -1.697  -2.442  0.00  0.00    -0.043 C 
BRANCH  25  26
ATOM     26  N   UNL     1      -8.016  -2.504  -2.977  0.00  0.00    +0.383 N 
ATOM     27  C   UNL     1      -9.136  -1.623  -3.330  0.00  0.00    -0.078 C 
ATOM     28  C   UNL     1     -10.319  -2.465  -3.812  0.00  0.00    -0.018 C 
ATOM     29  C   UNL     1      -9.896  -3.273  -5.043  0.00  0.00    -0.001 C 
ATOM     30  C   UNL     1      -8.680  -4.132  -4.683  0.00  0.00    -0.031 C 
ATOM     31  C   UNL     1      -7.558  -3.229  -4.168  0.00  0.00    -0.075 C 
ATOM     32  C   UNL     1      -8.202  -4.886  -5.926  0.00  0.00    +0.005 C 
ATOM     33  H   UNL     1      -8.318  -3.165  -2.278  0.00  0.00    -0.081 HD
ENDBRANCH  25  26
ENDBRANCH  24  25
ENDBRANCH  18  19
ENDBRANCH   4  18
TORSDOF 6
