REMARK  Name = ZINC40680482
REMARK  8 active torsions:
REMARK  status: ('A' for Active; 'I' for Inactive)
REMARK    1  A    between atoms: C_1  and  C_2
REMARK    2  A    between atoms: C_2  and  C_3
REMARK    3  A    between atoms: C_11  and  N_21
REMARK    4  A    between atoms: C_12  and  N_16
REMARK    5  A    between atoms: N_16  and  C_17
REMARK    6  A    between atoms: C_17  and  C_18
REMARK    7  A    between atoms: C_17  and  C_19
REMARK    8  A    between atoms: C_17  and  C_20
REMARK                            x       y       z     vdW  Elec       q    Type
REMARK                         _______ _______ _______ _____ _____    ______ ____
ROOT
ATOM      1  C   UNL     1       1.804   0.422   2.469  0.00  0.00    +0.075 C 
ATOM      2  C   UNL     1       0.444  -0.248   2.685  0.00  0.00    +0.022 C 
ATOM      3  C   UNL     1       0.616  -1.768   2.649  0.00  0.00    +0.003 C 
ATOM      4  C   UNL     1       1.150  -2.190   1.278  0.00  0.00    +0.019 C 
ATOM      5  C   UNL     1       2.518  -1.542   1.045  0.00  0.00    +0.107 C 
ATOM      6  N   UNL     1       2.393  -0.089   1.223  0.00  0.00    -0.311 N 
ATOM      7  C   UNL     1       2.820   0.786   0.231  0.00  0.00    +0.147 A 
ATOM      8  C   UNL     1       4.152   1.198   0.175  0.00  0.00    +0.105 A 
ATOM      9  C   UNL     1       4.528   2.077  -0.843  0.00  0.00    +0.145 A 
ATOM     10  N   UNL     1       3.608   2.486  -1.714  0.00  0.00    -0.219 NA
ATOM     11  C   UNL     1       2.361   2.072  -1.625  0.00  0.00    +0.225 A 
ATOM     12  N   UNL     1       1.966   1.239  -0.684  0.00  0.00    -0.219 NA
ENDROOT
BRANCH   8  13
ATOM     13  N   UNL     1       5.090   0.742   1.116  0.00  0.00    -0.353 N 
ATOM     14  H   UNL     1       4.799   0.197   1.864  0.00  0.00    +0.143 HD
ATOM     15  H   UNL     1       6.027   0.972   1.019  0.00  0.00    +0.143 HD
ENDBRANCH   8  13
BRANCH   1  17
ATOM     16  C   UNL     1       1.136   2.485   3.709  0.00  0.00    +0.006 C 
ATOM     17  C   UNL     1       1.620   1.937   2.365  0.00  0.00    +0.019 C 
ENDBRANCH   1  17
BRANCH   9  18
ATOM     18  N   UNL     1       5.842   2.519  -0.944  0.00  0.00    -0.323 N 
ATOM     19  H   UNL     1       6.506   2.217  -0.304  0.00  0.00    +0.148 HD
BRANCH  18  20
ATOM     20  C   UNL     1       6.224   3.442  -2.016  0.00  0.00    +0.025 C 
ATOM     21  C   UNL     1       5.408   4.731  -1.894  0.00  0.00    +0.031 C 
ATOM     22  C   UNL     1       7.714   3.768  -1.901  0.00  0.00    +0.031 C 
ATOM     23  C   UNL     1       5.947   2.790  -3.372  0.00  0.00    +0.031 C 
ENDBRANCH  18  20
ENDBRANCH   9  18
TORSDOF 4
