REMARK  Name = ZINC53114964
REMARK  6 active torsions:
REMARK  status: ('A' for Active; 'I' for Inactive)
REMARK    1  A    between atoms: C_1  and  C_2
REMARK    2  A    between atoms: C_7  and  C_9
REMARK    3  A    between atoms: C_7  and  N_11
REMARK    4  A    between atoms: C_9  and  O_10
REMARK    5  A    between atoms: N_11  and  C_12
REMARK    6  A    between atoms: C_17  and  N_18
REMARK                            x       y       z     vdW  Elec       q    Type
REMARK                         _______ _______ _______ _____ _____    ______ ____
ROOT
ATOM      1  C   UNL     1       2.812  -2.191  -0.073  0.00  0.00    +0.050 A 
ATOM      2  C   UNL     1       3.508  -1.626   0.982  0.00  0.00    +0.048 A 
ATOM      3  C   UNL     1       4.870  -1.357   0.858  0.00  0.00    +0.039 A 
ATOM      4  C   UNL     1       5.514  -1.665  -0.333  0.00  0.00    -0.016 A 
ATOM      5  C   UNL     1       4.826  -2.228  -1.386  0.00  0.00    +0.030 A 
ATOM      6  C   UNL     1       3.471  -2.501  -1.262  0.00  0.00    +0.046 A 
ATOM      7  C   UNL     1       6.959  -1.260  -0.152  0.00  0.00    +0.133 C 
ATOM      8  C   UNL     1       7.014  -0.707   1.256  0.00  0.00    +0.222 C 
ATOM      9  O   UNL     1       7.993  -0.264   1.818  0.00  0.00    -0.275 OA
ATOM     10  N   UNL     1       5.775  -0.799   1.766  0.00  0.00    -0.285 N 
ATOM     11  H   UNL     1       5.535  -0.512   2.661  0.00  0.00    +0.155 HD
ENDROOT
BRANCH   6  12
ATOM     12  N   UNL     1       2.768  -3.079  -2.328  0.00  0.00    -0.357 N 
ATOM     13  H   UNL     1       1.820  -3.265  -2.240  0.00  0.00    +0.142 HD
ATOM     14  H   UNL     1       3.229  -3.293  -3.154  0.00  0.00    +0.142 HD
ENDBRANCH   6  12
BRANCH   1  15
ATOM     15  N   UNL     1       1.444  -2.458   0.057  0.00  0.00    -0.335 N 
ATOM     16  H   UNL     1       0.959  -2.870  -0.675  0.00  0.00    +0.147 HD
BRANCH  15  22
ATOM     17  C   UNL     1       0.375   1.661   0.652  0.00  0.00    +0.007 C 
ATOM     18  C   UNL     1       0.249   0.158   0.393  0.00  0.00    -0.012 C 
ATOM     19  C   UNL     1      -1.230  -0.215   0.266  0.00  0.00    +0.003 C 
ATOM     20  C   UNL     1      -1.356  -1.718   0.007  0.00  0.00    +0.002 C 
ATOM     21  C   UNL     1      -0.733  -2.490   1.171  0.00  0.00    +0.028 C 
ATOM     22  C   UNL     1       0.745  -2.117   1.299  0.00  0.00    +0.055 C 
ATOM     23  C   UNL     1       0.871  -0.614   1.558  0.00  0.00    +0.031 C 
BRANCH  22  24
ATOM     24  C   UNL     1       1.368  -2.889   2.463  0.00  0.00    +0.181 C 
BRANCH  24  25
ATOM     25  O   UNL     1       1.219  -4.292   2.238  0.00  0.00    -0.393 OA
ATOM     26  H   UNL     1       1.592  -4.845   2.939  0.00  0.00    +0.209 HD
ENDBRANCH  24  25
ENDBRANCH  22  24
ENDBRANCH  15  22
ENDBRANCH   1  15
TORSDOF 5
