REMARK  Name = ZINC39015624
REMARK  8 active torsions:
REMARK  status: ('A' for Active; 'I' for Inactive)
REMARK    1  A    between atoms: C_1  and  C_2
REMARK    2  A    between atoms: C_5  and  C_8
REMARK    3  A    between atoms: C_10  and  C_14
REMARK    4  A    between atoms: C_18  and  S_22
REMARK    5  A    between atoms: N_20  and  N_21
REMARK    6  A    between atoms: S_22  and  C_23
REMARK    7  A    between atoms: C_23  and  C_24
REMARK    8  A    between atoms: N_26  and  C_27
REMARK                            x       y       z     vdW  Elec       q    Type
REMARK                         _______ _______ _______ _____ _____    ______ ____
ROOT
ATOM      1  C   UNL     1      -1.134  -7.224   0.931  0.00  0.00    +0.185 C 
ATOM      2  N   UNL     1      -1.226  -7.272   2.413  0.00  0.00    -0.234 NA
ATOM      3  N   UNL     1      -2.047  -8.452   2.692  0.00  0.00    -0.228 NA
ATOM      4  C   UNL     1      -1.928  -9.344   1.521  0.00  0.00    +0.214 C 
ATOM      5  N   UNL     1      -1.033  -8.659   0.556  0.00  0.00    -0.197 NA
ATOM      6  H   UNL     1      -1.659  -6.436   2.776  0.00  0.00    +0.143 HD
ATOM      7  H   UNL     1      -1.740  -8.917   3.533  0.00  0.00    +0.143 HD
ENDROOT
BRANCH   1  10
ATOM      8  C   UNL     1       0.093  -4.274  -0.075  0.00  0.00    +0.091 C 
ATOM      9  C   UNL     1       0.097  -5.042   1.031  0.00  0.00    +0.034 C 
ATOM     10  C   UNL     1       0.116  -6.460   0.489  0.00  0.00    +0.187 C 
ATOM     11  N   UNL     1       0.121  -6.262  -0.969  0.00  0.00    -0.176 NA
ATOM     12  N   UNL     1       0.102  -5.049  -1.191  0.00  0.00    -0.154 NA
BRANCH   8  17
ATOM     13  C   UNL     1       0.025   1.485  -0.077  0.00  0.00    +0.044 C 
ATOM     14  C   UNL     1       0.042  -0.022  -0.076  0.00  0.00    -0.050 A 
ATOM     15  C   UNL     1       0.051  -0.711  -1.276  0.00  0.00    +0.004 A 
ATOM     16  C   UNL     1       0.068  -2.091  -1.281  0.00  0.00    +0.010 A 
ATOM     17  C   UNL     1       0.076  -2.790  -0.076  0.00  0.00    +0.002 A 
ATOM     18  C   UNL     1       0.067  -2.091   1.129  0.00  0.00    +0.010 A 
ATOM     19  C   UNL     1       0.056  -0.710   1.123  0.00  0.00    +0.004 A 
ENDBRANCH   8  17
ENDBRANCH   1  10
BRANCH   5  20
ATOM     20  N   UNL     1      -1.476  -8.873  -0.813  0.00  0.00    -0.264 NA
ATOM     21  H   UNL     1      -1.408  -9.847  -1.067  0.00  0.00    +0.137 HD
ATOM     22  H   UNL     1      -2.415  -8.529  -0.947  0.00  0.00    +0.137 HD
ENDBRANCH   5  20
BRANCH   4  23
ATOM     23  S   UNL     1      -1.209 -10.933   2.020  0.00  0.00    -0.115 S 
BRANCH  23  24
ATOM     24  C   UNL     1       0.394 -10.483   2.740  0.00  0.00    +0.168 C 
BRANCH  24  25
ATOM     25  C   UNL     1       1.104 -11.729   3.202  0.00  0.00    +0.227 C 
ATOM     26  O   UNL     1       0.581 -12.814   3.060  0.00  0.00    -0.275 OA
ATOM     27  N   UNL     1       2.321 -11.639   3.774  0.00  0.00    -0.284 N 
ATOM     28  H   UNL     1       2.768 -10.779   3.829  0.00  0.00    +0.155 HD
BRANCH  27  29
ATOM     29  C   UNL     1       2.941 -12.784   4.288  0.00  0.00    +0.053 A 
ATOM     30  C   UNL     1       2.764 -14.010   3.662  0.00  0.00    +0.044 A 
ATOM     31  C   UNL     1       3.377 -15.139   4.171  0.00  0.00    +0.043 A 
ATOM     32  C   UNL     1       4.167 -15.048   5.304  0.00  0.00    +0.021 A 
ATOM     33  C   UNL     1       4.344 -13.828   5.930  0.00  0.00    +0.023 A 
ATOM     34  C   UNL     1       3.738 -12.694   5.422  0.00  0.00    +0.062 A 
ATOM     35 CL   UNL     1       3.967 -11.162   6.205  0.00  0.00    -0.082 Cl
ATOM     36 CL   UNL     1       3.157 -16.674   3.390  0.00  0.00    -0.083 Cl
ENDBRANCH  27  29
ENDBRANCH  24  25
ENDBRANCH  23  24
ENDBRANCH   4  23
TORSDOF 7
