REMARK  Name = ZINC36520897
REMARK  16 active torsions:
REMARK  status: ('A' for Active; 'I' for Inactive)
REMARK    1  A    between atoms: C_1  and  C_2
REMARK    2  A    between atoms: C_2  and  C_3
REMARK    3  A    between atoms: C_3  and  C_4
REMARK    4  A    between atoms: C_4  and  C_5
REMARK    5  A    between atoms: C_5  and  C_6
REMARK    6  A    between atoms: C_6  and  N_7
REMARK    7  A    between atoms: N_7  and  C_8
REMARK    8  A    between atoms: C_8  and  C_10
REMARK    9  A    between atoms: C_8  and  C_19
REMARK   10  A    between atoms: C_11  and  O_18
REMARK   11  A    between atoms: C_13  and  O_17
REMARK   12  A    between atoms: C_15  and  O_16
REMARK   13  A    between atoms: N_21  and  C_22
REMARK   14  A    between atoms: C_28  and  C_30
REMARK   15  A    between atoms: C_30  and  O_31
REMARK   16  A    between atoms: O_31  and  C_32
REMARK                            x       y       z     vdW  Elec       q    Type
REMARK                         _______ _______ _______ _____ _____    ______ ____
ROOT
ATOM      1  C   UNL     1      -4.852  -4.709  -1.233  0.00  0.00    +0.199 C 
ENDROOT
BRANCH   1   2
ATOM      2  C   UNL     1      -5.272  -5.898  -0.408  0.00  0.00    +0.065 A 
ATOM      3  C   UNL     1      -6.302  -6.717  -0.847  0.00  0.00    +0.129 A 
ATOM      4  C   UNL     1      -6.689  -7.811  -0.088  0.00  0.00    +0.091 A 
ATOM      5  C   UNL     1      -6.045  -8.087   1.110  0.00  0.00    +0.124 A 
ATOM      6  C   UNL     1      -5.015  -7.269   1.548  0.00  0.00    +0.091 A 
ATOM      7  C   UNL     1      -4.625  -6.177   0.787  0.00  0.00    +0.129 A 
BRANCH   7   8
ATOM      8  O   UNL     1      -3.613  -5.378   1.214  0.00  0.00    -0.506 OA
ATOM      9  H   UNL     1      -3.886  -4.701   1.848  0.00  0.00    +0.292 HD
ENDBRANCH   7   8
BRANCH   5  10
ATOM     10  O   UNL     1      -6.425  -9.159   1.854  0.00  0.00    -0.507 OA
ATOM     11  H   UNL     1      -5.951  -9.974   1.639  0.00  0.00    +0.292 HD
ENDBRANCH   5  10
BRANCH   3  12
ATOM     12  O   UNL     1      -6.932  -6.447  -2.020  0.00  0.00    -0.506 OA
ATOM     13  H   UNL     1      -6.579  -6.934  -2.777  0.00  0.00    +0.292 HD
ENDBRANCH   3  12
ENDBRANCH   1   2
BRANCH   1  14
ATOM     14  C   UNL     1      -6.077  -3.987  -1.734  0.00  0.00    +0.239 C 
ATOM     15  O   UNL     1      -6.754  -3.338  -0.966  0.00  0.00    -0.273 OA
ATOM     16  N   UNL     1      -6.418  -4.064  -3.035  0.00  0.00    -0.311 N 
ATOM     17  H   UNL     1      -5.941  -4.665  -3.628  0.00  0.00    +0.149 HD
BRANCH  16  18
ATOM     18  C   UNL     1      -7.512  -3.239  -3.555  0.00  0.00    +0.073 C 
ATOM     19  C   UNL     1      -8.845  -3.950  -3.314  0.00  0.00    +0.022 C 
ATOM     20  C   UNL     1      -9.988  -3.088  -3.857  0.00  0.00    +0.002 C 
ATOM     21  C   UNL     1      -9.791  -2.868  -5.358  0.00  0.00    +0.000 C 
ATOM     22  C   UNL     1      -8.457  -2.157  -5.599  0.00  0.00    +0.002 C 
ATOM     23  C   UNL     1      -7.315  -3.019  -5.056  0.00  0.00    +0.022 C 
ENDBRANCH  16  18
ENDBRANCH   1  14
BRANCH   1  24
ATOM     24  N   UNL     1      -4.053  -3.800  -0.407  0.00  0.00    -0.284 N 
ATOM     25  C   UNL     1      -4.597  -3.228   0.686  0.00  0.00    +0.242 C 
ATOM     26  O   UNL     1      -5.672  -3.609   1.098  0.00  0.00    -0.273 OA
BRANCH  24  27
ATOM     27  C   UNL     1      -2.663  -3.512  -0.769  0.00  0.00    +0.109 C 
BRANCH  27  28
ATOM     28  C   UNL     1      -2.619  -2.296  -1.698  0.00  0.00    +0.019 C 
BRANCH  28  29
ATOM     29  C   UNL     1      -1.168  -1.996  -2.076  0.00  0.00    +0.002 C 
BRANCH  29  30
ATOM     30  C   UNL     1      -1.124  -0.780  -3.004  0.00  0.00    -0.000 C 
BRANCH  30  32
ATOM     31  C   UNL     1       0.371   0.736  -4.311  0.00  0.00    +0.004 C 
ATOM     32  C   UNL     1       0.328  -0.479  -3.382  0.00  0.00    -0.003 C 
ENDBRANCH  30  32
ENDBRANCH  29  30
ENDBRANCH  28  29
ENDBRANCH  27  28
ENDBRANCH  24  27
BRANCH  25  33
ATOM     33  C   UNL     1      -3.869  -2.116   1.396  0.00  0.00    +0.255 C 
BRANCH  33  34
ATOM     34  O   UNL     1      -4.642  -1.679   2.515  0.00  0.00    -0.374 OA
ATOM     35  C   UNL     1      -4.038  -0.621   3.262  0.00  0.00    +0.194 C 
ENDBRANCH  33  34
ENDBRANCH  25  33
ENDBRANCH   1  24
TORSDOF 14
