REMARK  Name = ZINC57153940
REMARK  9 active torsions:
REMARK  status: ('A' for Active; 'I' for Inactive)
REMARK    1  A    between atoms: C_1  and  C_2
REMARK    2  A    between atoms: C_6  and  N_9
REMARK    3  A    between atoms: C_7  and  C_8
REMARK    4  A    between atoms: N_9  and  C_10
REMARK    5  A    between atoms: C_10  and  N_12
REMARK    6  A    between atoms: N_12  and  N_13
REMARK    7  A    between atoms: C_14  and  C_16
REMARK    8  A    between atoms: N_21  and  C_22
REMARK    9  A    between atoms: C_22  and  C_23
REMARK                            x       y       z     vdW  Elec       q    Type
REMARK                         _______ _______ _______ _____ _____    ______ ____
ROOT
ATOM      1  N   UNL     1      -1.410  -4.875   5.285  0.00  0.00    -0.236 N 
ATOM      2  C   UNL     1      -0.332  -5.040   6.077  0.00  0.00    +0.216 C 
ATOM      3  O   UNL     1       0.559  -5.790   5.739  0.00  0.00    -0.276 OA
ATOM      4  H   UNL     1      -2.123  -4.275   5.556  0.00  0.00    +0.173 HD
ENDROOT
BRANCH   2   5
ATOM      5  C   UNL     1      -0.234  -4.293   7.382  0.00  0.00    +0.021 C 
ATOM      6  C   UNL     1       1.002  -3.369   7.367  0.00  0.00    -0.008 C 
ATOM      7  C   UNL     1       1.542  -3.484   8.817  0.00  0.00    -0.020 C 
ATOM      8  C   UNL     1       1.244  -4.968   9.145  0.00  0.00    -0.077 C 
ATOM      9  N   UNL     1      -0.058  -5.246   8.493  0.00  0.00    +0.390 N 
ATOM     10  H   UNL     1      -0.806  -5.131   9.161  0.00  0.00    -0.080 HD
BRANCH   9  11
ATOM     11  C   UNL     1      -0.068  -6.620   7.973  0.00  0.00    -0.042 C 
BRANCH  11  12
ATOM     12  C   UNL     1      -0.043  -7.593   9.123  0.00  0.00    -0.064 A 
ATOM     13  C   UNL     1       1.165  -8.034   9.630  0.00  0.00    +0.002 A 
ATOM     14  C   UNL     1       1.187  -8.927  10.685  0.00  0.00    +0.000 A 
ATOM     15  C   UNL     1       0.001  -9.378  11.234  0.00  0.00    +0.000 A 
ATOM     16  C   UNL     1      -1.207  -8.936  10.728  0.00  0.00    +0.000 A 
ATOM     17  C   UNL     1      -1.229  -8.040   9.675  0.00  0.00    +0.002 A 
ENDBRANCH  11  12
ENDBRANCH   9  11
ENDBRANCH   2   5
BRANCH   1  18
ATOM     18  N   UNL     1      -1.502  -5.569   4.072  0.00  0.00    -0.246 N 
ATOM     19  H   UNL     1      -0.789  -6.169   3.801  0.00  0.00    +0.172 HD
BRANCH  18  20
ATOM     20  C   UNL     1      -2.580  -5.404   3.280  0.00  0.00    +0.151 C 
ATOM     21  S   UNL     1      -2.691  -6.253   1.798  0.00  0.00    -0.017 S 
BRANCH  20  22
ATOM     22  N   UNL     1      -3.570  -4.571   3.656  0.00  0.00    -0.296 N 
ATOM     23  H   UNL     1      -3.484  -4.050   4.470  0.00  0.00    +0.154 HD
BRANCH  22  29
ATOM     24  C   UNL     1      -7.144  -1.772   1.768  0.00  0.00    +0.044 C 
ATOM     25  C   UNL     1      -6.477  -3.112   1.940  0.00  0.00    -0.046 A 
ATOM     26  C   UNL     1      -7.005  -4.232   1.323  0.00  0.00    +0.004 A 
ATOM     27  C   UNL     1      -6.396  -5.463   1.479  0.00  0.00    +0.002 A 
ATOM     28  C   UNL     1      -5.257  -5.579   2.252  0.00  0.00    +0.023 A 
ATOM     29  C   UNL     1      -4.724  -4.457   2.872  0.00  0.00    +0.036 A 
ATOM     30  C   UNL     1      -5.335  -3.220   2.709  0.00  0.00    -0.026 A 
ATOM     31  C   UNL     1      -4.756  -1.999   3.376  0.00  0.00    +0.046 C 
ENDBRANCH  22  29
ENDBRANCH  20  22
ENDBRANCH  18  20
ENDBRANCH   1  18
TORSDOF 7
