REMARK  Name = ZINC12654136
REMARK  16 active torsions:
REMARK  status: ('A' for Active; 'I' for Inactive)
REMARK    1  A    between atoms: C_1  and  C_2
REMARK    2  A    between atoms: C_2  and  C_3
REMARK    3  A    between atoms: C_8  and  O_9
REMARK    4  A    between atoms: O_9  and  C_10
REMARK    5  A    between atoms: C_10  and  C_12
REMARK    6  A    between atoms: C_10  and  C_13
REMARK    7  A    between atoms: N_15  and  C_16
REMARK    8  A    between atoms: C_16  and  C_18
REMARK    9  A    between atoms: C_16  and  C_22
REMARK   10  A    between atoms: C_18  and  C_19
REMARK   11  A    between atoms: C_19  and  C_20
REMARK   12  A    between atoms: C_19  and  C_21
REMARK   13  A    between atoms: N_24  and  C_25
REMARK   14  A    between atoms: C_25  and  C_26
REMARK   15  A    between atoms: C_31  and  C_34
REMARK   16  A    between atoms: C_36  and  C_39
REMARK                            x       y       z     vdW  Elec       q    Type
REMARK                         _______ _______ _______ _____ _____    ______ ____
ROOT
ATOM      1  C   UNL     1       3.550   2.322  -0.130  0.00  0.00    +0.255 C 
ATOM      2  C   UNL     1       3.830   2.604  -1.607  0.00  0.00    +0.062 C 
ENDROOT
BRANCH   1   3
ATOM      3  C   UNL     1       4.709   1.565   0.466  0.00  0.00    +0.254 C 
ATOM      4  O   UNL     1       4.552   0.429   0.862  0.00  0.00    -0.272 OA
ATOM      5  N   UNL     1       5.920   2.149   0.558  0.00  0.00    -0.301 N 
ATOM      6  H   UNL     1       6.045   3.057   0.241  0.00  0.00    +0.150 HD
BRANCH   5   7
ATOM      7  C   UNL     1       7.047   1.413   1.137  0.00  0.00    +0.159 C 
BRANCH   7   8
ATOM      8  C   UNL     1       8.340   1.970   0.599  0.00  0.00    +0.234 C 
ATOM      9  O   UNL     1       8.322   2.891  -0.190  0.00  0.00    -0.274 OA
ATOM     10  N   UNL     1       9.516   1.444   0.995  0.00  0.00    -0.305 N 
ATOM     11  H   UNL     1       9.530   0.708   1.626  0.00  0.00    +0.149 HD
BRANCH  10  12
ATOM     12  C   UNL     1      10.773   1.985   0.473  0.00  0.00    +0.199 C 
BRANCH  12  13
ATOM     13  C   UNL     1      11.932   1.228   1.068  0.00  0.00    +0.228 C 
ATOM     14  O   UNL     1      11.728   0.325   1.852  0.00  0.00    -0.274 OA
ATOM     15  N   UNL     1      13.195   1.554   0.730  0.00  0.00    -0.328 N 
ATOM     16  H   UNL     1      13.358   2.276   0.103  0.00  0.00    +0.145 HD
ATOM     17  H   UNL     1      13.941   1.067   1.113  0.00  0.00    +0.145 HD
ENDBRANCH  12  13
ENDBRANCH  10  12
ENDBRANCH   7   8
BRANCH   7  18
ATOM     18  C   UNL     1       7.023   1.559   2.660  0.00  0.00    +0.034 C 
BRANCH  18  19
ATOM     19  C   UNL     1       5.768   0.883   3.217  0.00  0.00    -0.015 C 
ATOM     20  C   UNL     1       5.841  -0.623   2.956  0.00  0.00    +0.007 C 
ATOM     21  C   UNL     1       5.679   1.136   4.723  0.00  0.00    +0.007 C 
ENDBRANCH  18  19
ENDBRANCH   7  18
ENDBRANCH   5   7
ENDBRANCH   1   3
BRANCH   1  22
ATOM     22  O   UNL     1       2.360   1.540  -0.012  0.00  0.00    -0.480 OA
BRANCH  22  28
ATOM     23  C   UNL     1      -0.007   1.519   0.227  0.00  0.00    -0.005 A 
ATOM     24  C   UNL     1      -1.201   2.182   0.236  0.00  0.00    +0.022 A 
ATOM     25  C   UNL     1      -1.229   3.561   0.025  0.00  0.00    +0.065 A 
ATOM     26  C   UNL     1      -0.037   4.270  -0.207  0.00  0.00    +0.142 A 
ATOM     27  C   UNL     1       1.168   3.580  -0.217  0.00  0.00    +0.093 A 
ATOM     28  C   UNL     1       1.180   2.212  -0.001  0.00  0.00    +0.128 A 
ATOM     29  O   UNL     1      -0.066   5.601  -0.415  0.00  0.00    -0.462 OA
ATOM     30  C   UNL     1      -1.191   6.319  -0.417  0.00  0.00    +0.210 A 
ATOM     31  C   UNL     1      -2.415   5.762  -0.206  0.00  0.00    +0.089 A 
ATOM     32  C   UNL     1      -2.499   4.310   0.033  0.00  0.00    +0.202 A 
ATOM     33  O   UNL     1      -3.567   3.755   0.228  0.00  0.00    -0.286 OA
BRANCH  31  34
ATOM     34  C   UNL     1      -3.634   6.596  -0.217  0.00  0.00    +0.115 A 
ATOM     35  N   UNL     1      -3.759   7.902  -0.406  0.00  0.00    -0.244 NA
ATOM     36  C   UNL     1      -4.937   8.484  -0.387  0.00  0.00    +0.046 A 
ATOM     37  C   UNL     1      -6.053   7.745  -0.157  0.00  0.00    +0.070 A 
ATOM     38  S   UNL     1      -5.339   6.116   0.030  0.00  0.00    -0.075 S 
ATOM     39  C   UNL     1      -5.049   9.970  -0.612  0.00  0.00    +0.066 C 
ENDBRANCH  31  34
BRANCH  23  41
ATOM     40  C   UNL     1       0.304  -0.249   1.938  0.00  0.00    +0.009 C 
ATOM     41  C   UNL     1       0.027   0.031   0.460  0.00  0.00    +0.035 C 
ENDBRANCH  23  41
ENDBRANCH  22  28
ENDBRANCH   1  22
TORSDOF 11
