REMARK  Name = ZINC32093887
REMARK  8 active torsions:
REMARK  status: ('A' for Active; 'I' for Inactive)
REMARK    1  A    between atoms: C_1  and  C_2
REMARK    2  A    between atoms: C_2  and  N_3
REMARK    3  A    between atoms: C_4  and  C_26
REMARK    4  A    between atoms: C_5  and  C_9
REMARK    5  A    between atoms: C_6  and  C_8
REMARK    6  A    between atoms: C_9  and  N_10
REMARK    7  A    between atoms: C_11  and  C_13
REMARK    8  A    between atoms: N_15  and  C_16
REMARK                            x       y       z     vdW  Elec       q    Type
REMARK                         _______ _______ _______ _____ _____    ______ ____
ROOT
ATOM      1  N   UNL     1       7.957   4.061  -0.365  0.00  0.00    -0.303 N 
ATOM      2  C   UNL     1       7.080   3.043  -0.261  0.00  0.00    +0.300 C 
ATOM      3  O   UNL     1       7.477   1.897  -0.270  0.00  0.00    -0.265 OA
ATOM      4  H   UNL     1       7.597   5.101  -0.356  0.00  0.00    +0.149 HD
ENDROOT
BRANCH   2   5
ATOM      5  C   UNL     1       5.619   3.326  -0.133  0.00  0.00    +0.303 C 
ATOM      6  O   UNL     1       5.222   4.473  -0.124  0.00  0.00    -0.265 OA
ATOM      7  N   UNL     1       4.742   2.308  -0.029  0.00  0.00    -0.278 N 
ATOM      8  H   UNL     1       5.107   1.274   0.050  0.00  0.00    +0.155 HD
BRANCH   7   9
ATOM      9  C   UNL     1       3.369   2.567  -0.021  0.00  0.00    +0.036 A 
ATOM     10  C   UNL     1       2.860   3.626  -0.772  0.00  0.00    +0.024 A 
ATOM     11  C   UNL     1       1.521   3.892  -0.775  0.00  0.00    +0.012 A 
ATOM     12  C   UNL     1       0.653   3.099  -0.021  0.00  0.00    -0.000 A 
ATOM     13  C   UNL     1      -0.796   3.103   0.198  0.00  0.00    +0.027 A 
ATOM     14  C   UNL     1      -1.070   2.086   1.029  0.00  0.00    +0.083 A 
ATOM     15  N   UNL     1       0.086   1.435   1.368  0.00  0.00    -0.361 N 
ATOM     16  H   UNL     1       0.052   0.574   2.052  0.00  0.00    +0.165 HD
ATOM     17  C   UNL     1       1.158   2.028   0.739  0.00  0.00    +0.048 A 
ATOM     18  C   UNL     1       2.524   1.770   0.732  0.00  0.00    +0.049 A 
ENDBRANCH   7   9
ENDBRANCH   2   5
BRANCH   1  19
ATOM     19  C   UNL     1       9.390   3.784  -0.490  0.00  0.00    +0.143 C 
BRANCH  19  22
ATOM     20  N   UNL     1      11.251   6.891  -0.060  0.00  0.00    -0.268 N 
ATOM     21  C   UNL     1      10.646   5.796   0.447  0.00  0.00    +0.041 A 
ATOM     22  C   UNL     1      10.146   5.083  -0.590  0.00  0.00    +0.013 A 
ATOM     23  C   UNL     1      10.462   5.763  -1.770  0.00  0.00    +0.065 A 
ATOM     24  N   UNL     1      11.118   6.850  -1.454  0.00  0.00    -0.176 NA
ATOM     25  C   UNL     1      10.103   5.323  -3.166  0.00  0.00    +0.068 C 
ATOM     26  C   UNL     1      10.545   5.432   1.906  0.00  0.00    +0.065 C 
BRANCH  20  28
ATOM     27  C   UNL     1      13.402   7.571   0.883  0.00  0.00    +0.029 C 
ATOM     28  C   UNL     1      11.926   7.937   0.712  0.00  0.00    +0.140 C 
ENDBRANCH  20  28
ENDBRANCH  19  22
ENDBRANCH   1  19
TORSDOF 5
