REMARK  Name = ZINC58997058
REMARK  7 active torsions:
REMARK  status: ('A' for Active; 'I' for Inactive)
REMARK    1  A    between atoms: C_4  and  O_28
REMARK    2  A    between atoms: C_5  and  C_7
REMARK    3  A    between atoms: N_8  and  N_9
REMARK    4  A    between atoms: C_12  and  S_15
REMARK    5  A    between atoms: S_15  and  C_16
REMARK    6  A    between atoms: C_16  and  C_17
REMARK    7  A    between atoms: N_19  and  C_20
REMARK                            x       y       z     vdW  Elec       q    Type
REMARK                         _______ _______ _______ _____ _____    ______ ____
ROOT
ATOM      1  N   UNL     1       2.412  -4.187  -0.021  0.00  0.00    -0.205 N 
ATOM      2  C   UNL     1       3.622  -4.856  -0.041  0.00  0.00    +0.232 A 
ATOM      3  N   UNL     1       4.814  -4.298  -0.053  0.00  0.00    -0.186 NA
ATOM      4  C   UNL     1       5.755  -5.248  -0.070  0.00  0.00    +0.211 A 
ATOM      5  N   UNL     1       5.174  -6.424  -0.068  0.00  0.00    -0.144 NA
ATOM      6  N   UNL     1       3.789  -6.195  -0.044  0.00  0.00    -0.245 N 
ATOM      7  H   UNL     1       1.581  -4.688  -0.009  0.00  0.00    +0.177 HD
ATOM      8  H   UNL     1       3.089  -6.868  -0.034  0.00  0.00    +0.192 HD
ENDROOT
BRANCH   1  10
ATOM      9  C   UNL     1       1.249  -2.158  -0.002  0.00  0.00    +0.142 C 
ATOM     10  N   UNL     1       2.385  -2.786  -0.020  0.00  0.00    -0.187 NA
BRANCH   9  15
ATOM     11  C   UNL     1      -0.018   1.374   0.019  0.00  0.00    +0.001 A 
ATOM     12  C   UNL     1       1.168   2.088   0.001  0.00  0.00    +0.004 A 
ATOM     13  C   UNL     1       2.382   1.427  -0.017  0.00  0.00    +0.046 A 
ATOM     14  C   UNL     1       2.419   0.043  -0.018  0.00  0.00    +0.125 A 
ATOM     15  C   UNL     1       1.222  -0.685  -0.000  0.00  0.00    +0.036 A 
ATOM     16  C   UNL     1       0.001  -0.005   0.018  0.00  0.00    +0.013 A 
BRANCH  14  17
ATOM     17  O   UNL     1       3.612  -0.608  -0.037  0.00  0.00    -0.506 OA
ATOM     18  H   UNL     1       3.971  -0.796   0.841  0.00  0.00    +0.292 HD
ENDBRANCH  14  17
ENDBRANCH   9  15
ENDBRANCH   1  10
BRANCH   4  19
ATOM     19  S   UNL     1       7.495  -4.966  -0.090  0.00  0.00    -0.075 S 
BRANCH  19  20
ATOM     20  C   UNL     1       8.209  -6.633  -0.108  0.00  0.00    +0.173 C 
BRANCH  20  21
ATOM     21  C   UNL     1       9.713  -6.535  -0.127  0.00  0.00    +0.227 C 
ATOM     22  O   UNL     1      10.250  -5.447  -0.128  0.00  0.00    -0.275 OA
ATOM     23  N   UNL     1      10.461  -7.656  -0.142  0.00  0.00    -0.285 N 
ATOM     24  H   UNL     1      10.035  -8.524  -0.073  0.00  0.00    +0.155 HD
BRANCH  23  25
ATOM     25  C   UNL     1      11.853  -7.566  -0.257  0.00  0.00    +0.036 A 
ATOM     26  C   UNL     1      12.555  -8.527  -0.973  0.00  0.00    +0.043 A 
ATOM     27  C   UNL     1      13.929  -8.436  -1.086  0.00  0.00    +0.044 A 
ATOM     28  C   UNL     1      14.606  -7.389  -0.485  0.00  0.00    +0.040 A 
ATOM     29  C   UNL     1      13.909  -6.431   0.229  0.00  0.00    +0.044 A 
ATOM     30  C   UNL     1      12.534  -6.514   0.340  0.00  0.00    +0.043 A 
ATOM     31 CL   UNL     1      14.762  -5.119   0.982  0.00  0.00    -0.083 Cl
ATOM     32 CL   UNL     1      14.807  -9.637  -1.980  0.00  0.00    -0.083 Cl
ENDBRANCH  23  25
ENDBRANCH  20  21
ENDBRANCH  19  20
ENDBRANCH   4  19
TORSDOF 7
