REMARK  Name = ZINC63280477
REMARK  7 active torsions:
REMARK  status: ('A' for Active; 'I' for Inactive)
REMARK    1  A    between atoms: C_1  and  C_2
REMARK    2  A    between atoms: C_2  and  C_3
REMARK    3  A    between atoms: C_3  and  N_20
REMARK    4  A    between atoms: N_10  and  C_13
REMARK    5  A    between atoms: N_20  and  C_21
REMARK    6  A    between atoms: C_21  and  C_22
REMARK    7  A    between atoms: C_22  and  C_23
REMARK                            x       y       z     vdW  Elec       q    Type
REMARK                         _______ _______ _______ _____ _____    ______ ____
ROOT
ATOM      1  C   UNL     1       0.707  -0.490  -1.238  0.00  0.00    +0.021 C 
ATOM      2  C   UNL     1       2.075  -0.694  -1.260  0.00  0.00    +0.116 C 
ATOM      3  C   UNL     1       2.890  -0.576  -0.037  0.00  0.00    +0.258 C 
ATOM      4  O   UNL     1       2.378  -0.295   1.030  0.00  0.00    -0.270 OA
ATOM      5  N   UNL     1       4.218  -0.789  -0.134  0.00  0.00    -0.235 N 
ATOM      6  C   UNL     1       4.795  -1.100  -1.304  0.00  0.00    +0.316 C 
ATOM      7  O   UNL     1       5.997  -1.280  -1.323  0.00  0.00    -0.252 OA
ATOM      8  N   UNL     1       4.116  -1.224  -2.453  0.00  0.00    -0.218 N 
ATOM      9  C   UNL     1       2.780  -1.046  -2.505  0.00  0.00    +0.261 C 
ATOM     10  O   UNL     1       2.174  -1.166  -3.554  0.00  0.00    -0.269 OA
ATOM     11  H   UNL     1       4.769  -0.716   0.661  0.00  0.00    +0.159 HD
ENDROOT
BRANCH   8  12
ATOM     12  C   UNL     1       4.841  -1.567  -3.679  0.00  0.00    +0.086 C 
ATOM     13  C   UNL     1       5.474  -2.963  -3.510  0.00  0.00    +0.023 C 
ATOM     14  C   UNL     1       5.762  -3.525  -4.876  0.00  0.00    +0.002 C 
ATOM     15  C   UNL     1       7.204  -3.242  -5.338  0.00  0.00    +0.000 C 
ATOM     16  C   UNL     1       7.670  -1.812  -5.001  0.00  0.00    +0.000 C 
ATOM     17  C   UNL     1       6.602  -0.783  -5.258  0.00  0.00    +0.002 C 
ATOM     18  C   UNL     1       5.833  -0.536  -3.944  0.00  0.00    +0.023 C 
ENDBRANCH   8  12
BRANCH   1  20
ATOM     19  C   UNL     1      -0.366  -1.163   0.894  0.00  0.00    +0.010 C 
ATOM     20  C   UNL     1       0.042   0.020   0.014  0.00  0.00    +0.048 C 
ENDBRANCH   1  20
BRANCH   1  21
ATOM     21  N   UNL     1      -0.030  -0.747  -2.337  0.00  0.00    -0.346 N 
ATOM     22  H   UNL     1       0.383  -1.154  -3.114  0.00  0.00    +0.146 HD
BRANCH  21  23
ATOM     23  C   UNL     1      -1.456  -0.413  -2.356  0.00  0.00    +0.105 C 
BRANCH  23  24
ATOM     24  C   UNL     1      -2.054  -0.804  -3.709  0.00  0.00    +0.052 C 
BRANCH  24  25
ATOM     25  C   UNL     1      -3.521  -0.461  -3.729  0.00  0.00    -0.040 C 
ATOM     26  C   UNL     1      -4.085   0.667  -4.219  0.00  0.00    -0.001 A 
ATOM     27  C   UNL     1      -3.523   1.865  -4.854  0.00  0.00    +0.010 A 
ATOM     28  C   UNL     1      -4.360   2.852  -5.248  0.00  0.00    +0.001 A 
ATOM     29  C   UNL     1      -5.747   2.760  -5.065  0.00  0.00    +0.002 A 
ATOM     30  C   UNL     1      -6.337   1.691  -4.489  0.00  0.00    +0.026 A 
ATOM     31  C   UNL     1      -5.553   0.594  -4.037  0.00  0.00    +0.043 A 
ATOM     32  N   UNL     1      -5.882  -0.535  -3.458  0.00  0.00    -0.380 N 
ATOM     33  C   UNL     1      -4.661  -1.309  -3.212  0.00  0.00    +0.144 C 
ATOM     34  H   UNL     1      -6.784  -0.814  -3.233  0.00  0.00    +0.160 HD
ENDBRANCH  24  25
ENDBRANCH  23  24
ENDBRANCH  21  23
ENDBRANCH   1  21
TORSDOF 6
