REMARK  Name = ZINC01226935
REMARK  9 active torsions:
REMARK  status: ('A' for Active; 'I' for Inactive)
REMARK    1  A    between atoms: C_1  and  C_2
REMARK    2  A    between atoms: C_11  and  O_13
REMARK    3  A    between atoms: C_14  and  C_22
REMARK    4  A    between atoms: C_16  and  C_20
REMARK    5  A    between atoms: C_17  and  N_19
REMARK    6  A    between atoms: C_26  and  O_30
REMARK    7  A    between atoms: C_27  and  O_28
REMARK    8  A    between atoms: O_28  and  C_29
REMARK    9  A    between atoms: O_30  and  C_31
REMARK                            x       y       z     vdW  Elec       q    Type
REMARK                         _______ _______ _______ _____ _____    ______ ____
ROOT
ATOM      1  C   UNL     1       5.746   3.606   1.248  0.00  0.00    +0.045 C 
ATOM      2  C   UNL     1       5.027   3.287  -0.037  0.00  0.00    -0.029 A 
ATOM      3  C   UNL     1       5.685   3.324  -1.225  0.00  0.00    +0.096 A 
ATOM      4  C   UNL     1       4.997   3.024  -2.418  0.00  0.00    +0.337 A 
ATOM      5  O   UNL     1       5.594   3.059  -3.479  0.00  0.00    -0.245 OA
ATOM      6  O   UNL     1       3.693   2.699  -2.403  0.00  0.00    -0.422 OA
ATOM      7  C   UNL     1       3.003   2.650  -1.242  0.00  0.00    +0.146 A 
ATOM      8  C   UNL     1       3.651   2.943  -0.028  0.00  0.00    +0.063 A 
ATOM      9  C   UNL     1       2.933   2.894   1.183  0.00  0.00    +0.149 A 
ATOM     10  C   UNL     1       1.595   2.562   1.167  0.00  0.00    +0.050 A 
ATOM     11  C   UNL     1       0.962   2.267  -0.039  0.00  0.00    +0.128 A 
ATOM     12  C   UNL     1       1.660   2.313  -1.235  0.00  0.00    +0.093 A 
ATOM     13  C   UNL     1       0.805   2.509   2.448  0.00  0.00    +0.105 C 
ATOM     14  C   UNL     1       1.732   2.453   3.629  0.00  0.00    +0.098 C 
ATOM     15  C   UNL     1       3.038   2.791   3.513  0.00  0.00    +0.199 C 
ATOM     16  O   UNL     1       3.567   3.180   2.344  0.00  0.00    -0.440 OA
ENDROOT
BRANCH  13  17
ATOM     17  C   UNL     1      -0.061   3.738   2.552  0.00  0.00    +0.011 A 
ATOM     18  C   UNL     1       0.519   4.993   2.566  0.00  0.00    +0.008 A 
ATOM     19  C   UNL     1      -0.273   6.122   2.660  0.00  0.00    +0.004 A 
ATOM     20  C   UNL     1      -1.648   6.002   2.741  0.00  0.00    +0.049 A 
ATOM     21  C   UNL     1      -2.235   4.747   2.727  0.00  0.00    +0.162 A 
ATOM     22  C   UNL     1      -1.438   3.610   2.627  0.00  0.00    +0.166 A 
BRANCH  22  23
ATOM     23  O   UNL     1      -2.011   2.377   2.607  0.00  0.00    -0.491 OA
ATOM     24  C   UNL     1      -2.210   1.734   3.868  0.00  0.00    +0.277 C 
ENDBRANCH  22  23
BRANCH  21  25
ATOM     25  O   UNL     1      -3.588   4.627   2.805  0.00  0.00    -0.491 OA
ATOM     26  C   UNL     1      -4.342   5.837   2.900  0.00  0.00    +0.277 C 
ENDBRANCH  21  25
ENDBRANCH  13  17
BRANCH  15  27
ATOM     27  N   UNL     1       3.847   2.725   4.620  0.00  0.00    -0.328 N 
ATOM     28  H   UNL     1       3.480   2.438   5.472  0.00  0.00    +0.145 HD
ATOM     29  H   UNL     1       4.784   2.965   4.552  0.00  0.00    +0.145 HD
ENDBRANCH  15  27
BRANCH  11  30
ATOM     30  O   UNL     1      -0.354   1.936  -0.042  0.00  0.00    -0.506 OA
ATOM     31  H   UNL     1      -0.522   0.988   0.049  0.00  0.00    +0.292 HD
ENDBRANCH  11  30
BRANCH  14  32
ATOM     32  C   UNL     1       1.226   2.034   4.901  0.00  0.00    +0.101 C 
ATOM     33  N   UNL     1       0.824   1.701   5.910  0.00  0.00    -0.191 NA
ENDBRANCH  14  32
TORSDOF 6
