REMARK  Name = ZINC64696858
REMARK  4 active torsions:
REMARK  status: ('A' for Active; 'I' for Inactive)
REMARK    1  A    between atoms: C_4  and  C_7
REMARK    2  A    between atoms: C_7  and  C_10
REMARK    3  A    between atoms: N_12  and  S_13
REMARK    4  A    between atoms: S_13  and  C_16
REMARK                            x       y       z     vdW  Elec       q    Type
REMARK                         _______ _______ _______ _____ _____    ______ ____
ROOT
ATOM      1  C   UNL     1       4.835  -0.048   0.721  0.00  0.00    +0.275 C 
ATOM      2  O   UNL     1       6.116  -0.293   0.376  0.00  0.00    -0.269 OA
ATOM      3  N   UNL     1       4.571   0.750   1.700  0.00  0.00    -0.090 NA
ENDROOT
BRANCH   1   4
ATOM      4  C   UNL     1       3.711  -0.707  -0.038  0.00  0.00    +0.078 C 
ATOM      5  C   UNL     1       4.073  -1.477  -1.309  0.00  0.00    +0.022 C 
ATOM      6  C   UNL     1       3.665  -2.236  -0.045  0.00  0.00    +0.022 C 
BRANCH   4  10
ATOM      7  C   UNL     1      -0.017   1.378   0.010  0.00  0.00    +0.000 A 
ATOM      8  C   UNL     1       1.171   2.086   0.002  0.00  0.00    +0.000 A 
ATOM      9  C   UNL     1       2.377   1.411  -0.013  0.00  0.00    +0.004 A 
ATOM     10  C   UNL     1       2.396   0.029  -0.020  0.00  0.00    -0.032 A 
ATOM     11  C   UNL     1       1.208  -0.679  -0.012  0.00  0.00    +0.004 A 
ATOM     12  C   UNL     1       0.002  -0.004   0.002  0.00  0.00    +0.000 A 
ENDBRANCH   4  10
ENDBRANCH   1   4
BRANCH   3  13
ATOM     13  S   UNL     1       5.806   1.474   2.533  0.00  0.00    +0.105 S 
ATOM     14  O   UNL     1       6.504   0.436   3.207  0.00  0.00    -0.146 OA
ATOM     15  O   UNL     1       6.446   2.358   1.623  0.00  0.00    -0.146 OA
BRANCH  13  16
ATOM     16  C   UNL     1       5.072   2.480   3.780  0.00  0.00    +0.148 A 
ATOM     17  C   UNL     1       5.275   2.183   5.115  0.00  0.00    +0.033 A 
ATOM     18  C   UNL     1       4.700   2.971   6.094  0.00  0.00    +0.022 A 
ATOM     19  C   UNL     1       3.922   4.059   5.739  0.00  0.00    +0.044 A 
ATOM     20  C   UNL     1       3.719   4.358   4.404  0.00  0.00    +0.060 A 
ATOM     21  C   UNL     1       4.299   3.571   3.424  0.00  0.00    +0.152 A 
ATOM     22  F   UNL     1       4.105   3.865   2.119  0.00  0.00    -0.203 F 
ATOM     23 CL   UNL     1       3.200   5.048   6.970  0.00  0.00    -0.083 Cl
ENDBRANCH  13  16
ENDBRANCH   3  13
TORSDOF 4
