REMARK  Name = ZINC29283875
REMARK  9 active torsions:
REMARK  status: ('A' for Active; 'I' for Inactive)
REMARK    1  A    between atoms: C_1  and  C_2
REMARK    2  A    between atoms: C_3  and  S_12
REMARK    3  A    between atoms: S_12  and  C_13
REMARK    4  A    between atoms: C_13  and  C_15
REMARK    5  A    between atoms: C_13  and  C_16
REMARK    6  A    between atoms: N_21  and  C_22
REMARK    7  A    between atoms: C_22  and  C_23
REMARK    8  A    between atoms: C_22  and  C_24
REMARK    9  A    between atoms: C_22  and  C_25
REMARK                            x       y       z     vdW  Elec       q    Type
REMARK                         _______ _______ _______ _____ _____    ______ ____
ROOT
ATOM      1  C   UNL     1       1.199  -2.169  -0.021  0.00  0.00    +0.136 C 
ATOM      2  C   UNL     1       1.066  -2.673  -1.460  0.00  0.00    +0.029 C 
ENDROOT
BRANCH   1   3
ATOM      3  C   UNL     1       1.178  -0.662  -0.013  0.00  0.00    +0.233 C 
ATOM      4  O   UNL     1       2.220  -0.042  -0.019  0.00  0.00    -0.274 OA
ATOM      5  N   UNL     1       0.002  -0.004   0.002  0.00  0.00    -0.239 N 
ATOM      6  C   UNL     1      -0.016   1.344   0.009  0.00  0.00    +0.306 C 
ATOM      7  O   UNL     1       1.028   1.966   0.003  0.00  0.00    -0.252 OA
ATOM      8  N   UNL     1      -1.192   2.002   0.019  0.00  0.00    -0.294 N 
ATOM      9  H   UNL     1      -0.943  -0.567   0.008  0.00  0.00    +0.159 HD
ATOM     10  H   UNL     1      -2.138   1.439   0.020  0.00  0.00    +0.151 HD
BRANCH   8  11
ATOM     11  C   UNL     1      -1.212   3.466   0.027  0.00  0.00    +0.028 C 
ATOM     12  C   UNL     1      -0.504   3.993  -1.223  0.00  0.00    +0.031 C 
ATOM     13  C   UNL     1      -2.662   3.957   0.036  0.00  0.00    +0.031 C 
ATOM     14  C   UNL     1      -0.492   3.979   1.275  0.00  0.00    +0.031 C 
ENDBRANCH   8  11
ENDBRANCH   1   3
BRANCH   1  15
ATOM     15  S   UNL     1       2.760  -2.755   0.682  0.00  0.00    -0.092 S 
BRANCH  15  18
ATOM     16  C   UNL     1       4.753  -4.815   1.682  0.00  0.00    +0.068 C 
ATOM     17  C   UNL     1       3.446  -5.369   1.175  0.00  0.00    +0.071 A 
ATOM     18  C   UNL     1       2.459  -4.491   0.691  0.00  0.00    +0.119 A 
ATOM     19  N   UNL     1       1.306  -4.959   0.248  0.00  0.00    -0.237 NA
ATOM     20  C   UNL     1       1.083  -6.279   0.251  0.00  0.00    +0.090 A 
ATOM     21  C   UNL     1      -0.132  -6.807  -0.218  0.00  0.00    +0.030 A 
ATOM     22  C   UNL     1      -0.335  -8.153  -0.197  0.00  0.00    +0.002 A 
ATOM     23  C   UNL     1       0.645  -9.018   0.284  0.00  0.00    +0.002 A 
ATOM     24  C   UNL     1       1.834  -8.541   0.746  0.00  0.00    +0.030 A 
ATOM     25  C   UNL     1       2.079  -7.158   0.740  0.00  0.00    +0.090 A 
ATOM     26  N   UNL     1       3.240  -6.663   1.190  0.00  0.00    -0.248 NA
ENDBRANCH  15  18
ENDBRANCH   1  15
TORSDOF 4
