REMARK  Name = ZINC38890895
REMARK  12 active torsions:
REMARK  status: ('A' for Active; 'I' for Inactive)
REMARK    1  A    between atoms: C_1  and  C_2
REMARK    2  A    between atoms: C_2  and  C_3
REMARK    3  A    between atoms: C_3  and  C_4
REMARK    4  A    between atoms: C_4  and  C_5
REMARK    5  A    between atoms: C_5  and  C_6
REMARK    6  A    between atoms: C_6  and  N_7
REMARK    7  A    between atoms: C_16  and  C_20
REMARK    8  A    between atoms: C_17  and  O_19
REMARK    9  A    between atoms: N_22  and  N_23
REMARK   10  A    between atoms: C_24  and  C_25
REMARK   11  A    between atoms: C_24  and  C_26
REMARK   12  A    between atoms: C_28  and  O_38
REMARK                            x       y       z     vdW  Elec       q    Type
REMARK                         _______ _______ _______ _____ _____    ______ ____
ROOT
ATOM      1  C   UNL     1       1.589  -3.893   7.233  0.00  0.00    +0.267 C 
ATOM      2  O   UNL     1       2.209  -3.463   8.190  0.00  0.00    -0.269 OA
ATOM      3  N   UNL     1       0.245  -3.979   7.284  0.00  0.00    -0.203 N 
ATOM      4  H   UNL     1      -0.249  -4.322   6.523  0.00  0.00    +0.178 HD
ENDROOT
BRANCH   1  14
ATOM      5  N   UNL     1       2.232  -4.563   3.651  0.00  0.00    -0.300 N 
ATOM      6  C   UNL     1       3.607  -4.774   3.616  0.00  0.00    +0.043 A 
ATOM      7  C   UNL     1       4.250  -5.161   2.453  0.00  0.00    +0.024 A 
ATOM      8  C   UNL     1       5.620  -5.342   2.454  0.00  0.00    +0.002 A 
ATOM      9  C   UNL     1       6.356  -5.138   3.611  0.00  0.00    +0.001 A 
ATOM     10  C   UNL     1       5.731  -4.759   4.780  0.00  0.00    +0.013 A 
ATOM     11  C   UNL     1       4.348  -4.582   4.796  0.00  0.00    +0.043 A 
ATOM     12  C   UNL     1       3.636  -4.213   6.030  0.00  0.00    +0.200 C 
ATOM     13  O   UNL     1       4.326  -3.787   7.113  0.00  0.00    -0.287 OA
ATOM     14  C   UNL     1       2.278  -4.302   6.074  0.00  0.00    +0.109 C 
ATOM     15  C   UNL     1       1.504  -4.828   4.897  0.00  0.00    +0.243 C 
BRANCH  15  16
ATOM     16  O   UNL     1       1.320  -6.237   5.048  0.00  0.00    -0.370 OA
ATOM     17  H   UNL     1       0.845  -6.488   5.852  0.00  0.00    +0.212 HD
ENDBRANCH  15  16
BRANCH   5  18
ATOM     18  C   UNL     1       1.524  -4.077   2.464  0.00  0.00    +0.108 C 
BRANCH  18  19
ATOM     19  C   UNL     1       1.503  -2.548   2.473  0.00  0.00    +0.019 C 
BRANCH  19  20
ATOM     20  C   UNL     1       0.763  -2.041   1.233  0.00  0.00    +0.002 C 
BRANCH  20  21
ATOM     21  C   UNL     1       0.742  -0.511   1.242  0.00  0.00    -0.000 C 
BRANCH  21  23
ATOM     22  C   UNL     1      -0.019   1.526   0.010  0.00  0.00    +0.004 C 
ATOM     23  C   UNL     1       0.002  -0.004   0.002  0.00  0.00    -0.003 C 
ENDBRANCH  21  23
ENDBRANCH  20  21
ENDBRANCH  19  20
ENDBRANCH  18  19
ENDBRANCH   5  18
ENDBRANCH   1  14
BRANCH   3  24
ATOM     24  N   UNL     1      -0.440  -3.572   8.437  0.00  0.00    -0.188 NA
ATOM     25  C   UNL     1      -1.717  -3.654   8.485  0.00  0.00    +0.053 C 
ATOM     26  C   UNL     1      -2.483  -4.186   7.302  0.00  0.00    +0.063 C 
BRANCH  25  27
ATOM     27  C   UNL     1      -2.453  -3.216   9.725  0.00  0.00    +0.186 C 
ATOM     28  C   UNL     1      -1.456  -2.534  10.642  0.00  0.00    +0.120 C 
ATOM     29  C   UNL     1      -1.301  -3.070  11.922  0.00  0.00    +0.035 A 
ATOM     30  C   UNL     1      -0.396  -2.496  12.838  0.00  0.00    +0.013 A 
ATOM     31  C   UNL     1      -0.264  -3.037  14.080  0.00  0.00    +0.001 A 
ATOM     32  C   UNL     1      -1.005  -4.149  14.466  0.00  0.00    +0.002 A 
ATOM     33  C   UNL     1      -1.895  -4.747  13.625  0.00  0.00    +0.024 A 
ATOM     34  C   UNL     1      -2.083  -4.241  12.328  0.00  0.00    +0.044 A 
ATOM     35  N   UNL     1      -2.958  -4.830  11.503  0.00  0.00    -0.284 N 
ATOM     36  C   UNL     1      -3.191  -4.416  10.274  0.00  0.00    +0.233 C 
ATOM     37  O   UNL     1      -4.001  -5.002   9.580  0.00  0.00    -0.274 OA
ATOM     38  H   UNL     1      -3.447  -5.602  11.828  0.00  0.00    +0.155 HD
BRANCH  28  39
ATOM     39  O   UNL     1      -0.757  -1.466  10.243  0.00  0.00    -0.509 OA
ATOM     40  H   UNL     1      -0.154  -1.117  10.913  0.00  0.00    +0.292 HD
ENDBRANCH  28  39
ENDBRANCH  25  27
ENDBRANCH   3  24
TORSDOF 10
