REMARK  Name = ZINC04256585
REMARK  5 active torsions:
REMARK  status: ('A' for Active; 'I' for Inactive)
REMARK    1  A    between atoms: C_1  and  C_2
REMARK    2  A    between atoms: C_5  and  N_22
REMARK    3  A    between atoms: C_7  and  N_8
REMARK    4  A    between atoms: N_11  and  C_12
REMARK    5  A    between atoms: N_25  and  C_26
REMARK                            x       y       z     vdW  Elec       q    Type
REMARK                         _______ _______ _______ _____ _____    ______ ____
ROOT
ATOM      1  C   UNL     1       0.347   4.181   0.193  0.00  0.00    +0.045 C 
ATOM      2  C   UNL     1       1.559   3.304   0.011  0.00  0.00    -0.029 A 
ATOM      3  C   UNL     1       2.817   3.871  -0.054  0.00  0.00    +0.007 A 
ATOM      4  C   UNL     1       3.931   3.070  -0.221  0.00  0.00    +0.024 A 
ATOM      5  C   UNL     1       3.788   1.692  -0.324  0.00  0.00    +0.037 A 
ATOM      6  C   UNL     1       2.526   1.120  -0.255  0.00  0.00    +0.047 A 
ATOM      7  C   UNL     1       1.409   1.927  -0.093  0.00  0.00    +0.039 A 
ENDROOT
BRANCH   7   8
ATOM      8  N   UNL     1       0.134   1.354  -0.028  0.00  0.00    -0.269 N 
ATOM      9  C   UNL     1      -0.095   0.154  -0.598  0.00  0.00    +0.304 C 
ATOM     10  O   UNL     1       0.775  -0.383  -1.256  0.00  0.00    -0.252 OA
ATOM     11  N   UNL     1      -1.289  -0.450  -0.439  0.00  0.00    -0.294 N 
ATOM     12  H   UNL     1      -0.681   1.882   0.488  0.00  0.00    +0.156 HD
ATOM     13  H   UNL     1      -2.077   0.036   0.156  0.00  0.00    +0.151 HD
BRANCH  11  14
ATOM     14  C   UNL     1      -1.539  -1.754  -1.058  0.00  0.00    +0.037 C 
ATOM     15  C   UNL     1      -1.384  -1.636  -2.576  0.00  0.00    +0.029 C 
ATOM     16  C   UNL     1      -1.644  -2.998  -3.223  0.00  0.00    -0.008 C 
ATOM     17  C   UNL     1      -3.065  -3.457  -2.890  0.00  0.00    +0.007 C 
ATOM     18  C   UNL     1      -3.220  -3.575  -1.372  0.00  0.00    -0.008 C 
ATOM     19  C   UNL     1      -2.960  -2.213  -0.725  0.00  0.00    +0.029 C 
ATOM     20  C   UNL     1      -2.215  -4.596  -0.835  0.00  0.00    +0.007 C 
ATOM     21  C   UNL     1      -0.794  -4.136  -1.168  0.00  0.00    -0.008 C 
ATOM     22  C   UNL     1      -0.639  -4.018  -2.685  0.00  0.00    +0.007 C 
ATOM     23  C   UNL     1      -0.534  -2.775  -0.521  0.00  0.00    +0.029 C 
ENDBRANCH  11  14
ENDBRANCH   7   8
BRANCH   5  24
ATOM     24  N   UNL     1       4.916   0.881  -0.493  0.00  0.00    -0.269 N 
ATOM     25  C   UNL     1       6.078   1.210   0.107  0.00  0.00    +0.304 C 
ATOM     26  O   UNL     1       6.170   2.254   0.724  0.00  0.00    -0.252 OA
ATOM     27  N   UNL     1       7.137   0.381   0.023  0.00  0.00    -0.294 N 
ATOM     28  H   UNL     1       4.856  -0.024  -1.115  0.00  0.00    +0.156 HD
ATOM     29  H   UNL     1       7.054  -0.563  -0.535  0.00  0.00    +0.151 HD
BRANCH  27  30
ATOM     30  C   UNL     1       8.400   0.739   0.675  0.00  0.00    +0.037 C 
ATOM     31  C   UNL     1       8.916   2.058   0.099  0.00  0.00    +0.029 C 
ATOM     32  C   UNL     1      10.235   2.431   0.779  0.00  0.00    -0.008 C 
ATOM     33  C   UNL     1      11.266   1.329   0.532  0.00  0.00    +0.007 C 
ATOM     34  C   UNL     1      10.750   0.009   1.109  0.00  0.00    -0.008 C 
ATOM     35  C   UNL     1       9.431  -0.364   0.428  0.00  0.00    +0.029 C 
ATOM     36  C   UNL     1      10.520   0.165   2.613  0.00  0.00    +0.007 C 
ATOM     37  C   UNL     1       9.489   1.267   2.861  0.00  0.00    -0.008 C 
ATOM     38  C   UNL     1      10.005   2.587   2.284  0.00  0.00    +0.007 C 
ATOM     39  C   UNL     1       8.171   0.894   2.180  0.00  0.00    +0.029 C 
ENDBRANCH  27  30
ENDBRANCH   5  24
TORSDOF 4
