REMARK  Name = ZINC11422585
REMARK  8 active torsions:
REMARK  status: ('A' for Active; 'I' for Inactive)
REMARK    1  A    between atoms: C_1  and  C_2
REMARK    2  A    between atoms: C_2  and  C_22
REMARK    3  A    between atoms: C_4  and  N_9
REMARK    4  A    between atoms: C_6  and  C_7
REMARK    5  A    between atoms: C_6  and  C_8
REMARK    6  A    between atoms: C_10  and  C_12
REMARK    7  A    between atoms: C_12  and  N_13
REMARK    8  A    between atoms: C_14  and  C_16
REMARK                            x       y       z     vdW  Elec       q    Type
REMARK                         _______ _______ _______ _____ _____    ______ ____
ROOT
ATOM      1  N   UNL     1       0.389   5.051  -1.207  0.00  0.00    -0.311 N 
ATOM      2  C   UNL     1       0.113   5.703  -2.353  0.00  0.00    +0.230 C 
ATOM      3  O   UNL     1      -0.129   5.078  -3.364  0.00  0.00    -0.274 OA
ATOM      4  H   UNL     1       0.582   5.550  -0.398  0.00  0.00    +0.149 HD
ENDROOT
BRANCH   1   8
ATOM      5  C   UNL     1      -0.944   0.975  -2.269  0.00  0.00    -0.010 C 
ATOM      6  C   UNL     1      -1.042   1.551  -0.852  0.00  0.00    -0.072 C 
ATOM      7  C   UNL     1      -1.022   3.076  -0.918  0.00  0.00    +0.009 C 
ATOM      8  C   UNL     1       0.396   3.583  -1.181  0.00  0.00    +0.070 C 
ATOM      9  C   UNL     1       1.298   3.104  -0.042  0.00  0.00    +0.009 C 
ATOM     10  C   UNL     1       1.320   1.577  -0.002  0.00  0.00    -0.072 C 
ATOM     11  C   UNL     1       2.035   1.156   1.301  0.00  0.00    -0.010 C 
ATOM     12  C   UNL     1       2.151   1.041  -1.172  0.00  0.00    -0.010 C 
ATOM     13  C   UNL     1      -2.415   1.129  -0.282  0.00  0.00    -0.010 C 
ATOM     14  N   UNL     1      -0.027   0.947   0.053  0.00  0.00    +0.386 N 
ATOM     15  H   UNL     1       0.074  -0.044  -0.199  0.00  0.00    -0.084 HD
ATOM     16  H   UNL     1      -0.375   1.022   1.016  0.00  0.00    -0.084 HD
ENDBRANCH   1   8
BRANCH   2  17
ATOM     17  C   UNL     1       0.105   7.210  -2.379  0.00  0.00    +0.200 C 
BRANCH  17  18
ATOM     18  N   UNL     1      -0.220   7.674  -3.730  0.00  0.00    -0.300 N 
ATOM     19  C   UNL     1      -0.284   8.994  -3.993  0.00  0.00    +0.280 C 
ATOM     20  O   UNL     1      -0.072   9.801  -3.107  0.00  0.00    -0.267 OA
ATOM     21  H   UNL     1      -0.388   7.030  -4.436  0.00  0.00    +0.150 HD
BRANCH  19  22
ATOM     22  C   UNL     1      -0.609   9.458  -5.344  0.00  0.00    +0.191 A 
ATOM     23  C   UNL     1      -0.711  10.760  -5.743  0.00  0.00    +0.056 A 
ATOM     24  C   UNL     1      -1.034  10.741  -7.108  0.00  0.00    +0.058 A 
ATOM     25  C   UNL     1      -1.122   9.442  -7.478  0.00  0.00    +0.171 A 
ATOM     26  O   UNL     1      -0.865   8.672  -6.412  0.00  0.00    -0.444 OA
ATOM     27 BR   UNL     1      -1.537   8.816  -9.213  0.00  0.00    -0.008 Br
ENDBRANCH  19  22
ENDBRANCH  17  18
ENDBRANCH   2  17
TORSDOF 4
