REMARK  Name = ZINC02462671
REMARK  2 active torsions:
REMARK  status: ('A' for Active; 'I' for Inactive)
REMARK    1  A    between atoms: C_8  and  C_24
REMARK    2  A    between atoms: C_13  and  C_18
REMARK                            x       y       z     vdW  Elec       q    Type
REMARK                         _______ _______ _______ _____ _____    ______ ____
ROOT
ATOM      1  C   UNL     1      -2.506   5.457   2.279  0.00  0.00    +0.002 A 
ATOM      2  C   UNL     1      -3.180   5.887   1.149  0.00  0.00    +0.002 A 
ATOM      3  C   UNL     1      -2.494   6.181  -0.008  0.00  0.00    +0.029 A 
ATOM      4  C   UNL     1      -1.101   6.049  -0.066  0.00  0.00    +0.085 A 
ATOM      5  C   UNL     1      -0.430   5.577   1.089  0.00  0.00    +0.053 A 
ATOM      6  C   UNL     1      -1.131   5.304   2.245  0.00  0.00    +0.025 A 
ATOM      7  N   UNL     1       0.931   5.363   0.980  0.00  0.00    -0.332 N 
ATOM      8  C   UNL     1       1.476   4.447   0.010  0.00  0.00    +0.152 C 
ATOM      9  C   UNL     1       1.521   4.985  -1.381  0.00  0.00    +0.127 C 
ATOM     10  C   UNL     1       2.531   4.563  -2.169  0.00  0.00    +0.145 C 
ATOM     11  C   UNL     1       2.688   5.012  -3.592  0.00  0.00    +0.086 C 
ATOM     12  C   UNL     1       1.300   5.327  -4.162  0.00  0.00    +0.068 C 
ATOM     13  C   UNL     1       0.659   6.401  -3.285  0.00  0.00    +0.063 C 
ATOM     14  C   UNL     1       0.549   5.895  -1.852  0.00  0.00    +0.033 C 
ATOM     15  N   UNL     1      -0.439   6.370  -1.183  0.00  0.00    -0.254 NA
ATOM     16  O   UNL     1       3.438   3.702  -1.657  0.00  0.00    -0.297 OA
ATOM     17  H   UNL     1       1.533   5.840   1.571  0.00  0.00    +0.147 HD
ENDROOT
BRANCH  12  18
ATOM     18  C   UNL     1       1.433   5.836  -5.574  0.00  0.00    +0.109 A 
ATOM     19  C   UNL     1       0.894   5.270  -6.669  0.00  0.00    +0.045 A 
ATOM     20  C   UNL     1       1.268   6.072  -7.771  0.00  0.00    +0.041 A 
ATOM     21  C   UNL     1       2.014   7.080  -7.285  0.00  0.00    +0.195 A 
ATOM     22  O   UNL     1       2.106   6.935  -5.953  0.00  0.00    -0.468 OA
ENDBRANCH  12  18
BRANCH   8  23
ATOM     23  C   UNL     1       0.640   3.193   0.012  0.00  0.00    +0.126 A 
ATOM     24  C   UNL     1       1.111   1.934   0.002  0.00  0.00    +0.046 A 
ATOM     25  C   UNL     1      -0.013   1.076   0.008  0.00  0.00    +0.041 A 
ATOM     26  C   UNL     1      -1.103   1.863   0.017  0.00  0.00    +0.195 A 
ATOM     27  O   UNL     1      -0.702   3.144   0.024  0.00  0.00    -0.466 OA
ENDBRANCH   8  23
TORSDOF 2
