REMARK  Name = ZINC15403489
REMARK  9 active torsions:
REMARK  status: ('A' for Active; 'I' for Inactive)
REMARK    1  A    between atoms: C_1  and  N_2
REMARK    2  A    between atoms: C_3  and  N_27
REMARK    3  A    between atoms: C_4  and  C_11
REMARK    4  A    between atoms: N_7  and  C_10
REMARK    5  A    between atoms: C_11  and  C_13
REMARK    6  A    between atoms: C_13  and  N_14
REMARK    7  A    between atoms: N_14  and  C_15
REMARK    8  A    between atoms: N_14  and  C_16
REMARK    9  A    between atoms: C_16  and  C_17
REMARK                            x       y       z     vdW  Elec       q    Type
REMARK                         _______ _______ _______ _____ _____    ______ ____
ROOT
ATOM      1  C   UNL     1      -3.045  -2.742   0.683  0.00  0.00    +0.155 C 
ATOM      2  O   UNL     1      -4.046  -2.495   0.040  0.00  0.00    -0.294 OA
ENDROOT
BRANCH   1   6
ATOM      3  C   UNL     1      -2.010   2.032   1.023  0.00  0.00    +0.155 C 
ATOM      4  N   UNL     1      -1.731   0.635   1.363  0.00  0.00    -0.284 N 
ATOM      5  C   UNL     1      -2.528  -0.350   0.853  0.00  0.00    +0.116 A 
ATOM      6  C   UNL     1      -2.251  -1.688   1.184  0.00  0.00    +0.118 A 
ATOM      7  C   UNL     1      -1.110  -1.954   2.069  0.00  0.00    +0.269 A 
ATOM      8  O   UNL     1      -0.824  -3.094   2.389  0.00  0.00    -0.267 OA
ATOM      9  N   UNL     1      -0.385  -0.910   2.520  0.00  0.00    -0.263 N 
ATOM     10  C   UNL     1      -0.694   0.347   2.165  0.00  0.00    +0.333 A 
ATOM     11  O   UNL     1      -0.012   1.260   2.590  0.00  0.00    -0.246 OA
ATOM     12  C   UNL     1       0.758  -1.152   3.404  0.00  0.00    +0.157 C 
BRANCH   5  13
ATOM     13  N   UNL     1      -3.572  -0.042   0.037  0.00  0.00    -0.344 N 
ATOM     14  H   UNL     1      -3.835   0.884  -0.084  0.00  0.00    +0.144 HD
ATOM     15  H   UNL     1      -4.054  -0.747  -0.422  0.00  0.00    +0.144 HD
ENDBRANCH   5  13
ENDBRANCH   1   6
BRANCH   1  16
ATOM     16  C   UNL     1      -2.652  -4.173   0.946  0.00  0.00    +0.002 C 
BRANCH  16  17
ATOM     17  N   UNL     1      -3.633  -5.072   0.324  0.00  0.00    +0.383 N 
ATOM     18  C   UNL     1      -3.583  -4.917  -1.136  0.00  0.00    -0.096 C 
ATOM     19  H   UNL     1      -4.558  -4.841   0.654  0.00  0.00    -0.082 HD
BRANCH  17  20
ATOM     20  C   UNL     1      -3.318  -6.462   0.680  0.00  0.00    -0.072 C 
BRANCH  20  21
ATOM     21  C   UNL     1      -4.617  -7.253   0.844  0.00  0.00    -0.043 C 
ATOM     22  C   UNL     1      -4.288  -8.715   1.154  0.00  0.00    +0.008 C 
ATOM     23  C   UNL     1      -5.587  -9.507   1.318  0.00  0.00    -0.010 C 
ATOM     24  C   UNL     1      -6.399  -9.430   0.024  0.00  0.00    +0.007 C 
ATOM     25  C   UNL     1      -6.728  -7.968  -0.286  0.00  0.00    -0.010 C 
ATOM     26  C   UNL     1      -5.429  -7.176  -0.450  0.00  0.00    +0.008 C 
ATOM     27  C   UNL     1      -7.544  -7.374   0.864  0.00  0.00    +0.007 C 
ATOM     28  C   UNL     1      -6.733  -7.451   2.159  0.00  0.00    -0.010 C 
ATOM     29  C   UNL     1      -6.404  -8.913   2.468  0.00  0.00    +0.007 C 
ATOM     30  C   UNL     1      -5.434  -6.660   1.994  0.00  0.00    +0.008 C 
ENDBRANCH  20  21
ENDBRANCH  17  20
ENDBRANCH  16  17
ENDBRANCH   1  16
TORSDOF 6
