REMARK  Name = ZINC17215325
REMARK  8 active torsions:
REMARK  status: ('A' for Active; 'I' for Inactive)
REMARK    1  A    between atoms: C_4  and  N_7
REMARK    2  A    between atoms: N_7  and  N_8
REMARK    3  A    between atoms: C_9  and  C_10
REMARK    4  A    between atoms: C_9  and  C_25
REMARK    5  A    between atoms: C_17  and  N_22
REMARK    6  A    between atoms: C_25  and  C_27
REMARK    7  A    between atoms: C_25  and  O_36
REMARK    8  A    between atoms: C_31  and  N_33
REMARK                            x       y       z     vdW  Elec       q    Type
REMARK                         _______ _______ _______ _____ _____    ______ ____
ROOT
ATOM      1  N   UNL     1      -0.037   1.179   0.076  0.00  0.00    -0.186 NA
ATOM      2  C   UNL     1       1.023   1.896   0.050  0.00  0.00    +0.099 C 
ENDROOT
BRANCH   2   3
ATOM      3  C   UNL     1       0.923   3.394   0.185  0.00  0.00    +0.207 C 
ATOM      4  C   UNL     1       0.892   4.023  -1.184  0.00  0.00    +0.243 C 
ATOM      5  O   UNL     1       1.933   4.330  -1.726  0.00  0.00    -0.273 OA
ATOM      6  N   UNL     1      -0.280   4.249  -1.810  0.00  0.00    -0.282 N 
ATOM      7  C   UNL     1      -1.496   3.950  -1.184  0.00  0.00    +0.057 A 
ATOM      8  C   UNL     1      -2.675   3.906  -1.909  0.00  0.00    +0.058 A 
ATOM      9  C   UNL     1      -3.867   3.618  -1.269  0.00  0.00    +0.128 A 
ATOM     10  C   UNL     1      -3.888   3.374   0.092  0.00  0.00    +0.034 A 
ATOM     11  C   UNL     1      -2.715   3.413   0.824  0.00  0.00    +0.027 A 
ATOM     12  C   UNL     1      -1.519   3.699   0.189  0.00  0.00    +0.050 A 
ATOM     13  N   UNL     1      -0.313   3.741   0.902  0.00  0.00    -0.327 N 
ATOM     14  H   UNL     1      -0.281   4.623  -2.705  0.00  0.00    +0.155 HD
ATOM     15  H   UNL     1      -0.294   3.993   1.839  0.00  0.00    +0.147 HD
BRANCH   9  16
ATOM     16  N   UNL     1      -5.127   3.572  -2.045  0.00  0.00    +0.056 N 
ATOM     17  O   UNL     1      -5.112   3.787  -3.243  0.00  0.00    -0.126 OA
ATOM     18  O   UNL     1      -6.178   3.318  -1.484  0.00  0.00    -0.126 OA
ENDBRANCH   9  16
ENDBRANCH   2   3
BRANCH   1  19
ATOM     19  N   UNL     1       0.062  -0.218   0.052  0.00  0.00    -0.238 N 
ATOM     20  H   UNL     1       0.927  -0.641  -0.060  0.00  0.00    +0.174 HD
BRANCH  19  24
ATOM     21  C   UNL     1      -3.360  -2.555   0.463  0.00  0.00    +0.000 A 
ATOM     22  C   UNL     1      -2.115  -3.156   0.412  0.00  0.00    +0.002 A 
ATOM     23  C   UNL     1      -0.979  -2.385   0.275  0.00  0.00    +0.025 A 
ATOM     24  C   UNL     1      -1.086  -1.002   0.190  0.00  0.00    +0.048 A 
ATOM     25  C   UNL     1      -2.337  -0.400   0.247  0.00  0.00    +0.025 A 
ATOM     26  C   UNL     1      -3.470  -1.179   0.378  0.00  0.00    +0.002 A 
ENDBRANCH  19  24
ENDBRANCH   1  19
BRANCH   2  27
ATOM     27  C   UNL     1       2.371   1.243  -0.117  0.00  0.00    +0.193 C 
BRANCH  27  28
ATOM     28  C   UNL     1       2.731   1.200  -1.579  0.00  0.00    -0.011 A 
ATOM     29  C   UNL     1       3.512   2.200  -2.129  0.00  0.00    +0.006 A 
ATOM     30  C   UNL     1       3.846   2.158  -3.469  0.00  0.00    +0.003 A 
ATOM     31  C   UNL     1       3.390   1.121  -4.263  0.00  0.00    +0.033 A 
ATOM     32  C   UNL     1       2.605   0.125  -3.715  0.00  0.00    +0.127 A 
ATOM     33  C   UNL     1       2.275   0.164  -2.373  0.00  0.00    +0.039 A 
BRANCH  32  34
ATOM     34  N   UNL     1       2.117  -0.985  -4.565  0.00  0.00    +0.056 N 
ATOM     35  O   UNL     1       1.425  -1.863  -4.082  0.00  0.00    -0.126 OA
ATOM     36  O   UNL     1       2.408  -1.019  -5.747  0.00  0.00    -0.126 OA
ENDBRANCH  32  34
ENDBRANCH  27  28
BRANCH  27  37
ATOM     37  O   UNL     1       3.356   1.995   0.594  0.00  0.00    -0.381 OA
ATOM     38  H   UNL     1       3.188   2.065   1.544  0.00  0.00    +0.211 HD
ENDBRANCH  27  37
ENDBRANCH   2  27
TORSDOF 8
