REMARK  Name = ZINC13321915
REMARK  8 active torsions:
REMARK  status: ('A' for Active; 'I' for Inactive)
REMARK    1  A    between atoms: C_5  and  C_7
REMARK    2  A    between atoms: C_7  and  O_9
REMARK    3  A    between atoms: O_9  and  C_10
REMARK    4  A    between atoms: C_14  and  C_16
REMARK    5  A    between atoms: N_17  and  N_18
REMARK    6  A    between atoms: C_19  and  C_21
REMARK    7  A    between atoms: C_23  and  O_28
REMARK    8  A    between atoms: C_25  and  O_27
REMARK                            x       y       z     vdW  Elec       q    Type
REMARK                         _______ _______ _______ _____ _____    ______ ____
ROOT
ATOM      1  C   UNL     1       7.269   8.375  -0.034  0.00  0.00    +0.133 A 
ATOM      2  C   UNL     1       8.466   7.675   0.040  0.00  0.00    +0.046 A 
ATOM      3  C   UNL     1       8.466   6.292   0.026  0.00  0.00    +0.004 A 
ATOM      4  C   UNL     1       7.276   5.598  -0.055  0.00  0.00    +0.010 A 
ATOM      5  C   UNL     1       6.067   6.294  -0.135  0.00  0.00    -0.002 A 
ATOM      6  C   UNL     1       6.069   7.690  -0.120  0.00  0.00    +0.055 A 
ENDROOT
BRANCH   5   7
ATOM      7  C   UNL     1       4.794   5.556  -0.227  0.00  0.00    +0.138 C 
ATOM      8  N   UNL     1       4.795   4.258  -0.240  0.00  0.00    -0.187 NA
BRANCH   8   9
ATOM      9  N   UNL     1       3.585   3.558  -0.328  0.00  0.00    -0.203 N 
ATOM     10  C   UNL     1       3.586   2.210  -0.342  0.00  0.00    +0.263 C 
ATOM     11  O   UNL     1       4.638   1.602  -0.278  0.00  0.00    -0.268 OA
ATOM     12  H   UNL     1       2.746   4.042  -0.379  0.00  0.00    +0.178 HD
BRANCH  10  13
ATOM     13  C   UNL     1       2.310   1.471  -0.434  0.00  0.00    +0.045 A 
ATOM     14  C   UNL     1       1.102   2.166  -0.508  0.00  0.00    +0.058 A 
ATOM     15  C   UNL     1      -0.092   1.469  -0.596  0.00  0.00    +0.121 A 
ATOM     16  C   UNL     1      -0.088   0.082  -0.610  0.00  0.00    +0.090 A 
ATOM     17  C   UNL     1       1.110  -0.614  -0.536  0.00  0.00    +0.121 A 
ATOM     18  C   UNL     1       2.309   0.075  -0.448  0.00  0.00    +0.058 A 
BRANCH  17  19
ATOM     19  O   UNL     1       1.108  -1.972  -0.550  0.00  0.00    -0.507 OA
ATOM     20  H   UNL     1       1.167  -2.357  -1.435  0.00  0.00    +0.292 HD
ENDBRANCH  17  19
BRANCH  15  21
ATOM     21  O   UNL     1      -1.268   2.145  -0.674  0.00  0.00    -0.507 OA
ATOM     22  H   UNL     1      -1.672   2.332   0.184  0.00  0.00    +0.292 HD
ENDBRANCH  15  21
ENDBRANCH  10  13
ENDBRANCH   8   9
ENDBRANCH   5   7
BRANCH   1  23
ATOM     23  O   UNL     1       7.275   9.734  -0.019  0.00  0.00    -0.422 OA
BRANCH  23  24
ATOM     24  C   UNL     1       6.776  10.337   1.077  0.00  0.00    +0.346 C 
ATOM     25  O   UNL     1       6.443   9.672   2.038  0.00  0.00    -0.244 OA
BRANCH  24  30
ATOM     26  C   UNL     1       6.878  13.946   0.048  0.00  0.00    +0.001 A 
ATOM     27  C   UNL     1       6.364  14.563   1.176  0.00  0.00    +0.001 A 
ATOM     28  C   UNL     1       5.984  13.809   2.272  0.00  0.00    +0.021 A 
ATOM     29  C   UNL     1       6.114  12.434   2.247  0.00  0.00    +0.055 A 
ATOM     30  C   UNL     1       6.632  11.806   1.111  0.00  0.00    +0.078 A 
ATOM     31  C   UNL     1       7.019  12.575   0.011  0.00  0.00    +0.016 A 
ATOM     32 CL   UNL     1       5.636  11.490   3.623  0.00  0.00    -0.083 Cl
ENDBRANCH  24  30
ENDBRANCH  23  24
ENDBRANCH   1  23
TORSDOF 8
