REMARK  Name = ZINC39530200
REMARK  8 active torsions:
REMARK  status: ('A' for Active; 'I' for Inactive)
REMARK    1  A    between atoms: C_1  and  C_2
REMARK    2  A    between atoms: C_2  and  O_3
REMARK    3  A    between atoms: O_3  and  C_4
REMARK    4  A    between atoms: C_7  and  N_17
REMARK    5  A    between atoms: C_8  and  C_10
REMARK    6  A    between atoms: C_15  and  O_16
REMARK    7  A    between atoms: C_21  and  S_24
REMARK    8  A    between atoms: S_24  and  C_25
REMARK                            x       y       z     vdW  Elec       q    Type
REMARK                         _______ _______ _______ _____ _____    ______ ____
ROOT
ATOM      1  C   UNL     1      -1.407  -1.863  -0.045  0.00  0.00    +0.121 A 
ATOM      2  C   UNL     1      -0.352  -2.763   0.036  0.00  0.00    +0.047 A 
ATOM      3  C   UNL     1      -0.598  -4.121   0.083  0.00  0.00    +0.027 A 
ATOM      4  C   UNL     1      -1.901  -4.595   0.048  0.00  0.00    +0.038 A 
ATOM      5  C   UNL     1      -2.967  -3.692  -0.035  0.00  0.00    +0.010 A 
ATOM      6  C   UNL     1      -2.712  -2.324  -0.076  0.00  0.00    +0.056 A 
ENDROOT
BRANCH   4   7
ATOM      7  N   UNL     1      -2.149  -5.970   0.094  0.00  0.00    -0.326 N 
ATOM      8  C   UNL     1      -2.187  -6.687   1.377  0.00  0.00    +0.120 C 
ATOM      9  C   UNL     1      -1.263  -7.905   1.282  0.00  0.00    +0.101 C 
ATOM     10  N   UNL     1      -1.635  -8.708   0.110  0.00  0.00    -0.302 NA
ATOM     11  C   UNL     1      -1.445  -7.954  -1.135  0.00  0.00    +0.129 C 
ATOM     12  C   UNL     1      -2.383  -6.736  -1.139  0.00  0.00    +0.134 C 
ATOM     13  H   UNL     1      -1.122  -9.577   0.089  0.00  0.00    +0.123 HD
BRANCH  11  14
ATOM     14  S   UNL     1      -1.831  -9.018  -2.553  0.00  0.00    -0.144 S 
ATOM     15  C   UNL     1      -0.206  -9.441  -3.240  0.00  0.00    +0.086 C 
ENDBRANCH  11  14
ENDBRANCH   4   7
BRANCH   5  16
ATOM     16  C   UNL     1      -4.363  -4.191  -0.073  0.00  0.00    +0.025 A 
ATOM     17  C   UNL     1      -5.126  -4.048  -1.230  0.00  0.00    +0.012 A 
ATOM     18  C   UNL     1      -6.425  -4.514  -1.260  0.00  0.00    +0.001 A 
ATOM     19  C   UNL     1      -6.973  -5.122  -0.145  0.00  0.00    +0.004 A 
ATOM     20  C   UNL     1      -6.225  -5.269   1.008  0.00  0.00    +0.046 A 
ATOM     21  C   UNL     1      -4.918  -4.812   1.050  0.00  0.00    +0.125 A 
BRANCH  21  22
ATOM     22  O   UNL     1      -4.180  -4.961   2.181  0.00  0.00    -0.506 OA
ATOM     23  H   UNL     1      -4.254  -4.221   2.800  0.00  0.00    +0.292 HD
ENDBRANCH  21  22
ENDBRANCH   5  16
BRANCH   1  24
ATOM     24  O   UNL     1      -1.157  -0.527  -0.091  0.00  0.00    -0.492 OA
BRANCH  24  26
ATOM     25  C   UNL     1       0.294   1.405  -0.115  0.00  0.00    +0.048 C 
ATOM     26  C   UNL     1       0.212  -0.122  -0.056  0.00  0.00    +0.225 C 
ENDBRANCH  24  26
ENDBRANCH   1  24
TORSDOF 6
