REMARK  Name = ZINC39536088
REMARK  7 active torsions:
REMARK  status: ('A' for Active; 'I' for Inactive)
REMARK    1  A    between atoms: C_1  and  C_2
REMARK    2  A    between atoms: C_4  and  C_28
REMARK    3  A    between atoms: C_7  and  C_12
REMARK    4  A    between atoms: C_12  and  O_14
REMARK    5  A    between atoms: O_14  and  C_15
REMARK    6  A    between atoms: C_15  and  C_16
REMARK    7  A    between atoms: N_21  and  C_22
REMARK                            x       y       z     vdW  Elec       q    Type
REMARK                         _______ _______ _______ _____ _____    ______ ____
ROOT
ATOM      1  O   UNL     1       0.096  -5.556   3.698  0.00  0.00    -0.451 OA
ENDROOT
BRANCH   1   2
ATOM      2  C   UNL     1       0.089  -5.556   2.350  0.00  0.00    +0.356 C 
ATOM      3  O   UNL     1       0.100  -6.609   1.742  0.00  0.00    -0.243 OA
BRANCH   2  10
ATOM      4  C   UNL     1      -0.018   1.503   0.010  0.00  0.00    +0.044 C 
ATOM      5  C   UNL     1       0.002  -0.004   0.002  0.00  0.00    -0.048 A 
ATOM      6  C   UNL     1       0.006  -0.685  -1.209  0.00  0.00    +0.007 A 
ATOM      7  C   UNL     1       0.024  -2.049  -1.239  0.00  0.00    -0.041 A 
ATOM      8  C   UNL     1       0.040  -2.772  -0.039  0.00  0.00    +0.003 A 
ATOM      9  C   UNL     1       0.060  -4.155   0.262  0.00  0.00    +0.043 A 
ATOM     10  C   UNL     1       0.069  -4.284   1.615  0.00  0.00    +0.125 A 
ATOM     11  N   UNL     1       0.055  -3.028   2.190  0.00  0.00    -0.349 N 
ATOM     12  H   UNL     1       0.057  -2.842   3.142  0.00  0.00    +0.166 HD
ATOM     13  C   UNL     1       0.037  -2.084   1.190  0.00  0.00    +0.048 A 
ATOM     14  C   UNL     1       0.023  -0.692   1.194  0.00  0.00    +0.029 A 
ATOM     15  C   UNL     1       0.027  -2.776  -2.559  0.00  0.00    +0.044 C 
ENDBRANCH   2  10
ENDBRANCH   1   2
BRANCH   1  16
ATOM     16  C   UNL     1       0.116  -6.830   4.347  0.00  0.00    +0.328 C 
BRANCH  16  17
ATOM     17  C   UNL     1       0.121  -6.632   5.841  0.00  0.00    +0.258 C 
ATOM     18  O   UNL     1       0.109  -5.512   6.304  0.00  0.00    -0.272 OA
ATOM     19  N   UNL     1       0.139  -7.701   6.662  0.00  0.00    -0.237 N 
ATOM     20  C   UNL     1       0.144  -7.524   7.998  0.00  0.00    +0.306 C 
ATOM     21  O   UNL     1       0.131  -6.401   8.463  0.00  0.00    -0.252 OA
ATOM     22  N   UNL     1       0.162  -8.593   8.819  0.00  0.00    -0.296 N 
ATOM     23  H   UNL     1       0.149  -8.597   6.291  0.00  0.00    +0.159 HD
ATOM     24  H   UNL     1       0.171  -9.489   8.448  0.00  0.00    +0.151 HD
BRANCH  22  25
ATOM     25  C   UNL     1       0.167  -8.401  10.271  0.00  0.00    +0.074 C 
ATOM     26  C   UNL     1       1.603  -8.191  10.753  0.00  0.00    +0.022 C 
ATOM     27  C   UNL     1       1.609  -7.990  12.270  0.00  0.00    +0.002 C 
ATOM     28  C   UNL     1       1.018  -9.227  12.950  0.00  0.00    +0.000 C 
ATOM     29  C   UNL     1      -0.418  -9.438  12.468  0.00  0.00    +0.002 C 
ATOM     30  C   UNL     1      -0.423  -9.638  10.951  0.00  0.00    +0.022 C 
ENDBRANCH  22  25
ENDBRANCH  16  17
ENDBRANCH   1  16
TORSDOF 5
