REMARK  Name = ZINC12578224
REMARK  8 active torsions:
REMARK  status: ('A' for Active; 'I' for Inactive)
REMARK    1  A    between atoms: C_1  and  C_2
REMARK    2  A    between atoms: C_2  and  C_3
REMARK    3  A    between atoms: C_2  and  C_4
REMARK    4  A    between atoms: C_4  and  C_6
REMARK    5  A    between atoms: C_4  and  N_11
REMARK    6  A    between atoms: C_12  and  C_14
REMARK    7  A    between atoms: C_16  and  C_26
REMARK    8  A    between atoms: C_22  and  C_23
REMARK                            x       y       z     vdW  Elec       q    Type
REMARK                         _______ _______ _______ _____ _____    ______ ____
ROOT
ATOM      1  C   UNL     1       1.674  -1.701  -0.038  0.00  0.00    +0.113 A 
ATOM      2  C   UNL     1       0.683  -2.639  -0.049  0.00  0.00    +0.060 A 
ATOM      3  C   UNL     1      -0.666  -2.217  -0.048  0.00  0.00    +0.076 A 
ATOM      4  N   UNL     1      -0.959  -0.929  -0.036  0.00  0.00    -0.227 NA
ATOM      5  C   UNL     1       0.000  -0.007  -0.025  0.00  0.00    +0.171 A 
ATOM      6  N   UNL     1       1.326  -0.366  -0.026  0.00  0.00    -0.278 N 
ATOM      7  C   UNL     1       2.058   0.778  -0.014  0.00  0.00    +0.206 A 
ATOM      8  N   UNL     1       1.262   1.810  -0.006  0.00  0.00    -0.229 NA
ATOM      9  C   UNL     1      -0.020   1.396  -0.012  0.00  0.00    +0.169 A 
ENDROOT
BRANCH   3  10
ATOM     10  C   UNL     1      -1.754  -3.222  -0.059  0.00  0.00    +0.000 A 
ATOM     11  C   UNL     1      -1.450  -4.584  -0.077  0.00  0.00    +0.010 A 
ATOM     12  C   UNL     1      -2.468  -5.515  -0.082  0.00  0.00    +0.001 A 
ATOM     13  C   UNL     1      -3.788  -5.101  -0.081  0.00  0.00    +0.000 A 
ATOM     14  C   UNL     1      -4.096  -3.752  -0.069  0.00  0.00    +0.001 A 
ATOM     15  C   UNL     1      -3.087  -2.811  -0.058  0.00  0.00    +0.010 A 
ENDBRANCH   3  10
BRANCH   9  16
ATOM     16  C   UNL     1      -1.211   2.250  -0.012  0.00  0.00    +0.264 C 
ATOM     17  O   UNL     1      -2.320   1.748  -0.024  0.00  0.00    -0.269 OA
ATOM     18  N   UNL     1      -1.078   3.591   0.001  0.00  0.00    -0.324 N 
ATOM     19  H   UNL     1      -0.195   3.991   0.011  0.00  0.00    +0.145 HD
ATOM     20  H   UNL     1      -1.867   4.156   0.001  0.00  0.00    +0.145 HD
ENDBRANCH   9  16
BRANCH   1  22
ATOM     21  N   UNL     1       3.421  -3.411   0.052  0.00  0.00    -0.303 N 
ATOM     22  C   UNL     1       3.094  -2.107  -0.039  0.00  0.00    +0.261 C 
ATOM     23  O   UNL     1       3.967  -1.265  -0.122  0.00  0.00    -0.269 OA
ATOM     24  H   UNL     1       2.726  -4.087   0.055  0.00  0.00    +0.150 HD
BRANCH  21  25
ATOM     25  C   UNL     1       4.829  -3.808   0.147  0.00  0.00    +0.113 C 
BRANCH  25  26
ATOM     26  C   UNL     1       4.928  -5.147   0.831  0.00  0.00    +0.010 A 
ATOM     27  C   UNL     1       5.834  -5.574   1.744  0.00  0.00    +0.013 A 
ATOM     28  C   UNL     1       5.729  -6.859   2.242  0.00  0.00    +0.008 A 
ATOM     29  C   UNL     1       4.723  -7.655   1.802  0.00  0.00    +0.045 A 
ATOM     30  S   UNL     1       3.878  -6.580   0.654  0.00  0.00    -0.100 S 
ENDBRANCH  25  26
BRANCH  25  32
ATOM     31  C   UNL     1       4.580  -4.858  -2.106  0.00  0.00    +0.009 C 
ATOM     32  C   UNL     1       5.426  -3.907  -1.258  0.00  0.00    +0.008 C 
ATOM     33  C   UNL     1       5.439  -2.521  -1.905  0.00  0.00    +0.009 C 
ENDBRANCH  25  32
ENDBRANCH  21  25
ENDBRANCH   1  22
TORSDOF 6
