REMARK  Name = ZINC59888705
REMARK  9 active torsions:
REMARK  status: ('A' for Active; 'I' for Inactive)
REMARK    1  A    between atoms: C_1  and  C_2
REMARK    2  A    between atoms: C_2  and  C_3
REMARK    3  A    between atoms: C_3  and  C_24
REMARK    4  A    between atoms: N_4  and  N_5
REMARK    5  A    between atoms: C_8  and  S_11
REMARK    6  A    between atoms: S_11  and  C_12
REMARK    7  A    between atoms: C_12  and  C_13
REMARK    8  A    between atoms: N_15  and  C_16
REMARK    9  A    between atoms: C_16  and  C_17
REMARK                            x       y       z     vdW  Elec       q    Type
REMARK                         _______ _______ _______ _____ _____    ______ ____
ROOT
ATOM      1  S   UNL     1      -3.295  -3.962  -5.582  0.00  0.00    -0.075 S 
ENDROOT
BRANCH   1   5
ATOM      2  N   UNL     1      -3.174  -1.666  -0.981  0.00  0.00    -0.205 N 
ATOM      3  C   UNL     1      -3.658  -2.375  -2.067  0.00  0.00    +0.232 A 
ATOM      4  N   UNL     1      -2.989  -2.666  -3.162  0.00  0.00    -0.186 NA
ATOM      5  C   UNL     1      -3.770  -3.360  -3.996  0.00  0.00    +0.211 A 
ATOM      6  N   UNL     1      -4.948  -3.521  -3.441  0.00  0.00    -0.144 NA
ATOM      7  N   UNL     1      -4.898  -2.895  -2.186  0.00  0.00    -0.245 N 
ATOM      8  H   UNL     1      -3.745  -1.505  -0.214  0.00  0.00    +0.177 HD
ATOM      9  H   UNL     1      -5.614  -2.844  -1.533  0.00  0.00    +0.192 HD
BRANCH   2  11
ATOM     10  C   UNL     1      -1.412  -0.526   0.013  0.00  0.00    +0.034 C 
ATOM     11  N   UNL     1      -1.860  -1.181  -0.991  0.00  0.00    -0.189 NA
ATOM     12  C   UNL     1      -2.298  -0.275   1.205  0.00  0.00    +0.062 C 
BRANCH  10  14
ATOM     13  C   UNL     1      -0.019   1.526   0.010  0.00  0.00    +0.010 C 
ATOM     14  C   UNL     1       0.002  -0.004   0.002  0.00  0.00    +0.049 C 
ENDBRANCH  10  14
ENDBRANCH   2  11
ENDBRANCH   1   5
BRANCH   1  15
ATOM     15  C   UNL     1      -4.779  -4.806  -6.194  0.00  0.00    +0.173 C 
BRANCH  15  16
ATOM     16  C   UNL     1      -4.505  -5.375  -7.563  0.00  0.00    +0.224 C 
ATOM     17  O   UNL     1      -3.416  -5.225  -8.075  0.00  0.00    -0.275 OA
ATOM     18  N   UNL     1      -5.471  -6.050  -8.218  0.00  0.00    -0.311 N 
ATOM     19  H   UNL     1      -6.342  -6.169  -7.808  0.00  0.00    +0.149 HD
BRANCH  18  20
ATOM     20  C   UNL     1      -5.205  -6.603  -9.548  0.00  0.00    +0.139 C 
BRANCH  20  21
ATOM     21  C   UNL     1      -6.438  -7.304 -10.056  0.00  0.00    -0.030 A 
ATOM     22  C   UNL     1      -6.631  -8.646  -9.785  0.00  0.00    +0.006 A 
ATOM     23  C   UNL     1      -7.762  -9.289 -10.251  0.00  0.00    +0.020 A 
ATOM     24  C   UNL     1      -8.700  -8.591 -10.989  0.00  0.00    +0.041 A 
ATOM     25  C   UNL     1      -8.507  -7.248 -11.261  0.00  0.00    +0.020 A 
ATOM     26  C   UNL     1      -7.378  -6.604 -10.789  0.00  0.00    +0.006 A 
ATOM     27 CL   UNL     1     -10.120  -9.399 -11.575  0.00  0.00    -0.084 Cl
ENDBRANCH  20  21
ENDBRANCH  18  20
ENDBRANCH  15  16
ENDBRANCH   1  15
TORSDOF 7
