REMARK  Name = ZINC04372600
REMARK  9 active torsions:
REMARK  status: ('A' for Active; 'I' for Inactive)
REMARK    1  A    between atoms: C_1  and  C_2
REMARK    2  A    between atoms: C_2  and  C_4
REMARK    3  A    between atoms: C_2  and  O_18
REMARK    4  A    between atoms: N_6  and  N_7
REMARK    5  A    between atoms: C_8  and  C_9
REMARK    6  A    between atoms: C_8  and  C_10
REMARK    7  A    between atoms: C_11  and  C_12
REMARK    8  A    between atoms: O_18  and  C_19
REMARK    9  A    between atoms: C_22  and  C_25
REMARK                            x       y       z     vdW  Elec       q    Type
REMARK                         _______ _______ _______ _____ _____    ______ ____
ROOT
ATOM      1  C   UNL     1       6.078  -2.974  -1.353  0.00  0.00    +0.062 C 
ATOM      2  C   UNL     1       6.043  -2.358   0.047  0.00  0.00    +0.257 C 
ENDROOT
BRANCH   2   3
ATOM      3  C   UNL     1       7.230  -2.844   0.839  0.00  0.00    +0.273 C 
ATOM      4  O   UNL     1       8.037  -2.048   1.271  0.00  0.00    -0.270 OA
ATOM      5  N   UNL     1       7.395  -4.162   1.067  0.00  0.00    -0.204 N 
ATOM      6  H   UNL     1       6.749  -4.798   0.721  0.00  0.00    +0.177 HD
BRANCH   5   7
ATOM      7  N   UNL     1       8.498  -4.613   1.803  0.00  0.00    -0.185 NA
ATOM      8  C   UNL     1       8.657  -5.886   2.023  0.00  0.00    +0.056 C 
ATOM      9  C   UNL     1       7.654  -6.875   1.486  0.00  0.00    +0.067 C 
BRANCH   8  10
ATOM     10  C   UNL     1       9.774  -6.343   2.768  0.00  0.00    +0.025 C 
ATOM     11  C   UNL     1      10.671  -5.458   3.248  0.00  0.00    +0.010 C 
BRANCH  11  12
ATOM     12  C   UNL     1      11.831  -5.933   4.022  0.00  0.00    -0.025 A 
ATOM     13  C   UNL     1      12.002  -7.299   4.265  0.00  0.00    +0.008 A 
ATOM     14  C   UNL     1      13.094  -7.736   4.985  0.00  0.00    +0.001 A 
ATOM     15  C   UNL     1      14.013  -6.825   5.477  0.00  0.00    +0.000 A 
ATOM     16  C   UNL     1      13.847  -5.470   5.245  0.00  0.00    +0.001 A 
ATOM     17  C   UNL     1      12.764  -5.019   4.521  0.00  0.00    +0.008 A 
ENDBRANCH  11  12
ENDBRANCH   8  10
ENDBRANCH   5   7
ENDBRANCH   2   3
BRANCH   2  18
ATOM     18  O   UNL     1       6.091  -0.934  -0.057  0.00  0.00    -0.480 OA
BRANCH  18  19
ATOM     19  C   UNL     1       4.911  -0.290  -0.259  0.00  0.00    +0.122 A 
ATOM     20  C   UNL     1       3.749  -1.022  -0.465  0.00  0.00    +0.046 A 
ATOM     21  C   UNL     1       2.550  -0.372  -0.669  0.00  0.00    +0.012 A 
ATOM     22  C   UNL     1       2.506   1.021  -0.669  0.00  0.00    -0.018 A 
ATOM     23  C   UNL     1       3.675   1.753  -0.468  0.00  0.00    +0.012 A 
ATOM     24  C   UNL     1       4.870   1.097  -0.258  0.00  0.00    +0.046 A 
BRANCH  22  25
ATOM     25  C   UNL     1       1.218   1.724  -0.889  0.00  0.00    -0.018 A 
ATOM     26  C   UNL     1       1.172   3.116  -0.889  0.00  0.00    +0.008 A 
ATOM     27  C   UNL     1      -0.030   3.765  -1.089  0.00  0.00    +0.001 A 
ATOM     28  C   UNL     1      -1.186   3.035  -1.300  0.00  0.00    +0.000 A 
ATOM     29  C   UNL     1      -1.146   1.652  -1.301  0.00  0.00    +0.001 A 
ATOM     30  C   UNL     1       0.049   0.993  -1.097  0.00  0.00    +0.008 A 
ENDBRANCH  22  25
ENDBRANCH  18  19
ENDBRANCH   2  18
TORSDOF 7
