REMARK  Name = ZINC44847428
REMARK  7 active torsions:
REMARK  status: ('A' for Active; 'I' for Inactive)
REMARK    1  A    between atoms: C_1  and  C_2
REMARK    2  A    between atoms: C_7  and  C_8
REMARK    3  A    between atoms: C_8  and  C_10
REMARK    4  A    between atoms: C_8  and  N_11
REMARK    5  A    between atoms: C_12  and  C_14
REMARK    6  A    between atoms: C_17  and  C_19
REMARK    7  A    between atoms: N_22  and  C_24
REMARK                            x       y       z     vdW  Elec       q    Type
REMARK                         _______ _______ _______ _____ _____    ______ ____
ROOT
ATOM      1  N   UNL     1      -0.537  -0.808   3.554  0.00  0.00    -0.304 N 
ATOM      2  C   UNL     1      -1.190  -0.255   4.595  0.00  0.00    +0.263 C 
ATOM      3  O   UNL     1      -1.312   0.954   4.663  0.00  0.00    -0.268 OA
ATOM      4  H   UNL     1      -0.440  -1.772   3.500  0.00  0.00    +0.150 HD
ENDROOT
BRANCH   2   5
ATOM      5  C   UNL     1      -1.755  -1.113   5.650  0.00  0.00    +0.133 A 
ATOM      6  C   UNL     1      -2.424  -0.561   6.709  0.00  0.00    +0.080 A 
ATOM      7  S   UNL     1      -2.861  -1.914   7.609  0.00  0.00    -0.075 S 
ATOM      8  C   UNL     1      -2.145  -3.163   6.556  0.00  0.00    +0.112 A 
ATOM      9  N   UNL     1      -1.627  -2.433   5.585  0.00  0.00    -0.234 NA
BRANCH   8  10
ATOM     10  C   UNL     1      -2.138  -4.633   6.723  0.00  0.00    +0.045 A 
ATOM     11  C   UNL     1      -1.544  -5.569   5.851  0.00  0.00    +0.145 A 
ATOM     12  N   UNL     1      -1.749  -6.763   6.339  0.00  0.00    -0.179 NA
ATOM     13  N   UNL     1      -2.474  -6.641   7.530  0.00  0.00    -0.274 N 
ATOM     14  C   UNL     1      -2.700  -5.332   7.755  0.00  0.00    +0.118 A 
ATOM     15  C   UNL     1      -2.908  -7.746   8.389  0.00  0.00    +0.172 C 
ENDBRANCH   8  10
ENDBRANCH   2   5
BRANCH   1  16
ATOM     16  C   UNL     1       0.025   0.045   2.504  0.00  0.00    +0.101 C 
ATOM     17  C   UNL     1       1.455   0.440   2.880  0.00  0.00    +0.033 C 
BRANCH  16  24
ATOM     18  C   UNL     1      -0.099   1.488   0.004  0.00  0.00    +0.044 C 
ATOM     19  C   UNL     1      -0.021  -0.017   0.003  0.00  0.00    -0.046 A 
ATOM     20  C   UNL     1      -0.003  -0.707  -1.195  0.00  0.00    +0.004 A 
ATOM     21  C   UNL     1       0.069  -2.088  -1.197  0.00  0.00    +0.000 A 
ATOM     22  C   UNL     1       0.123  -2.778  -0.000  0.00  0.00    +0.000 A 
ATOM     23  C   UNL     1       0.106  -2.088   1.197  0.00  0.00    +0.006 A 
ATOM     24  C   UNL     1       0.039  -0.708   1.199  0.00  0.00    -0.025 A 
ENDBRANCH  16  24
ENDBRANCH   1  16
TORSDOF 4
