REMARK  Name = ZINC16906872
REMARK  7 active torsions:
REMARK  status: ('A' for Active; 'I' for Inactive)
REMARK    1  A    between atoms: C_1  and  C_2
REMARK    2  A    between atoms: C_2  and  C_4
REMARK    3  A    between atoms: C_2  and  O_6
REMARK    4  A    between atoms: O_6  and  C_7
REMARK    5  A    between atoms: C_10  and  C_13
REMARK    6  A    between atoms: N_17  and  N_21
REMARK    7  A    between atoms: C_22  and  C_24
REMARK                            x       y       z     vdW  Elec       q    Type
REMARK                         _______ _______ _______ _____ _____    ______ ____
ROOT
ATOM      1  C   UNL     1      -0.103   6.356   1.013  0.00  0.00    +0.028 C 
ATOM      2  C   UNL     1      -1.347   6.891   1.108  0.00  0.00    +0.079 C 
ATOM      3  C   UNL     1      -2.659   6.279   0.822  0.00  0.00    +0.275 C 
ATOM      4  O   UNL     1      -2.758   5.128   0.438  0.00  0.00    -0.267 OA
ATOM      5  N   UNL     1      -3.723   7.043   1.009  0.00  0.00    -0.169 N 
ATOM      6  C   UNL     1      -3.609   8.319   1.428  0.00  0.00    +0.138 C 
ATOM      7  S   UNL     1      -4.854   9.458   1.718  0.00  0.00    -0.026 S 
ATOM      8  S   UNL     1      -1.845   8.534   1.607  0.00  0.00    -0.059 S 
ENDROOT
BRANCH   1  12
ATOM      9  C   UNL     1       0.370   2.207   0.280  0.00  0.00    +0.122 A 
ATOM     10  C   UNL     1      -0.667   2.653   1.091  0.00  0.00    +0.046 A 
ATOM     11  C   UNL     1      -0.822   3.999   1.337  0.00  0.00    +0.011 A 
ATOM     12  C   UNL     1       0.061   4.919   0.759  0.00  0.00    -0.024 A 
ATOM     13  C   UNL     1       1.100   4.465  -0.063  0.00  0.00    +0.011 A 
ATOM     14  C   UNL     1       1.249   3.116  -0.297  0.00  0.00    +0.046 A 
BRANCH   9  15
ATOM     15  O   UNL     1       0.521   0.878   0.046  0.00  0.00    -0.478 OA
BRANCH  15  17
ATOM     16  C   UNL     1       2.878   0.389  -0.167  0.00  0.00    +0.064 C 
ATOM     17  C   UNL     1       1.533   0.495  -0.888  0.00  0.00    +0.282 C 
BRANCH  17  18
ATOM     18  C   UNL     1       1.180  -0.840  -1.492  0.00  0.00    +0.395 C 
ATOM     19  O   UNL     1       0.166  -1.405  -1.158  0.00  0.00    -0.242 OA
ATOM     20  O   UNL     1       1.993  -1.400  -2.402  0.00  0.00    -0.242 OA
ENDBRANCH  17  18
ENDBRANCH  15  17
ENDBRANCH   9  15
ENDBRANCH   1  12
BRANCH   5  21
ATOM     21  N   UNL     1      -4.997   6.515   0.759  0.00  0.00    -0.222 N 
ATOM     22  C   UNL     1      -5.667   6.871  -0.354  0.00  0.00    +0.262 C 
ATOM     23  O   UNL     1      -5.167   7.650  -1.142  0.00  0.00    -0.269 OA
ATOM     24  H   UNL     1      -5.396   5.894   1.388  0.00  0.00    +0.174 HD
BRANCH  22  25
ATOM     25  C   UNL     1      -7.010   6.315  -0.617  0.00  0.00    +0.057 A 
ATOM     26  C   UNL     1      -7.588   5.420   0.286  0.00  0.00    +0.016 A 
ATOM     27  C   UNL     1      -8.841   4.904   0.036  0.00  0.00    +0.021 A 
ATOM     28  C   UNL     1      -9.529   5.272  -1.110  0.00  0.00    +0.042 A 
ATOM     29  C   UNL     1      -8.963   6.158  -2.010  0.00  0.00    +0.040 A 
ATOM     30  C   UNL     1      -7.710   6.686  -1.768  0.00  0.00    +0.054 A 
ATOM     31 CL   UNL     1      -7.005   7.804  -2.893  0.00  0.00    -0.083 Cl
ATOM     32 CL   UNL     1     -11.107   4.617  -1.417  0.00  0.00    -0.083 Cl
ENDBRANCH  22  25
ENDBRANCH   5  21
TORSDOF 6
