REMARK  Name = ZINC39663193
REMARK  3 active torsions:
REMARK  status: ('A' for Active; 'I' for Inactive)
REMARK    1  A    between atoms: C_4  and  C_8
REMARK    2  A    between atoms: C_12  and  C_21
REMARK    3  A    between atoms: N_23  and  C_24
REMARK                            x       y       z     vdW  Elec       q    Type
REMARK                         _______ _______ _______ _____ _____    ______ ____
ROOT
ATOM      1  C   UNL     1       3.465  -0.634  -0.125  0.00  0.00    +0.249 C 
ATOM      2  O   UNL     1       4.482   0.032  -0.147  0.00  0.00    -0.270 OA
ATOM      3  N   UNL     1       3.538  -1.971   0.028  0.00  0.00    -0.296 N 
ATOM      4  C   UNL     1       2.430  -2.953  -0.028  0.00  0.00    +0.121 C 
ATOM      5  C   UNL     1       3.023  -4.169  -0.774  0.00  0.00    +0.100 C 
ATOM      6  C   UNL     1       4.542  -4.058  -0.560  0.00  0.00    -0.004 C 
ATOM      7  C   UNL     1       4.746  -2.791   0.284  0.00  0.00    +0.115 C 
ATOM      8  C   UNL     1       5.256  -3.911  -1.901  0.00  0.00    -0.010 C 
ATOM      9  C   UNL     1       6.768  -3.860  -1.666  0.00  0.00    -0.082 C 
ATOM     10  N   UNL     1       7.202  -5.088  -0.990  0.00  0.00    +0.379 N 
ATOM     11  C   UNL     1       6.582  -5.175   0.338  0.00  0.00    -0.082 C 
ATOM     12  C   UNL     1       5.062  -5.282   0.188  0.00  0.00    -0.010 C 
ATOM     13  H   UNL     1       6.928  -5.888  -1.540  0.00  0.00    -0.086 HD
ATOM     14  H   UNL     1       8.206  -5.079  -0.891  0.00  0.00    -0.086 HD
ENDROOT
BRANCH   1  18
ATOM     15  C   UNL     1      -0.319   1.254  -0.535  0.00  0.00    +0.023 A 
ATOM     16  C   UNL     1       0.776   1.759  -1.210  0.00  0.00    +0.040 A 
ATOM     17  C   UNL     1       2.012   1.151  -1.082  0.00  0.00    +0.136 A 
ATOM     18  C   UNL     1       2.150   0.023  -0.267  0.00  0.00    +0.073 A 
ATOM     19  C   UNL     1       1.038  -0.480   0.411  0.00  0.00    +0.036 A 
ATOM     20  C   UNL     1      -0.189   0.137   0.274  0.00  0.00    +0.042 A 
ATOM     21 CL   UNL     1      -1.572  -0.488   1.116  0.00  0.00    -0.084 Cl
ATOM     22  F   UNL     1       3.082   1.645  -1.742  0.00  0.00    -0.205 F 
ENDBRANCH   1  18
BRANCH   5  23
ATOM     23  C   UNL     1       2.501  -5.453  -0.184  0.00  0.00    +0.218 C 
ATOM     24  O   UNL     1       2.233  -5.513   0.998  0.00  0.00    -0.275 OA
ATOM     25  N   UNL     1       2.331  -6.536  -0.969  0.00  0.00    -0.314 N 
ATOM     26  H   UNL     1       2.546  -6.488  -1.913  0.00  0.00    +0.149 HD
BRANCH  25  27
ATOM     27  C   UNL     1       1.823  -7.784  -0.395  0.00  0.00    +0.059 C 
ATOM     28  C   UNL     1       2.984  -8.586   0.197  0.00  0.00    -0.056 C 
ATOM     29  N   UNL     1       3.085  -9.887  -0.469  0.00  0.00    +0.381 N 
ATOM     30  C   UNL     1       3.355  -9.716  -1.898  0.00  0.00    -0.078 C 
ATOM     31  C   UNL     1       2.206  -8.951  -2.560  0.00  0.00    -0.014 C 
ATOM     32  C   UNL     1       1.150  -8.618  -1.493  0.00  0.00    +0.004 C 
ATOM     33  C   UNL     1       0.662  -9.933  -0.871  0.00  0.00    -0.014 C 
ATOM     34  C   UNL     1       1.863 -10.668  -0.264  0.00  0.00    -0.078 C 
ATOM     35  H   UNL     1       3.859 -10.393  -0.064  0.00  0.00    -0.082 HD
ENDBRANCH  25  27
ENDBRANCH   5  23
TORSDOF 3
