REMARK  Name = ZINC38716221
REMARK  7 active torsions:
REMARK  status: ('A' for Active; 'I' for Inactive)
REMARK    1  A    between atoms: C_1  and  C_2
REMARK    2  A    between atoms: C_6  and  O_9
REMARK    3  A    between atoms: C_7  and  C_8
REMARK    4  A    between atoms: O_9  and  C_10
REMARK    5  A    between atoms: C_10  and  C_11
REMARK    6  A    between atoms: N_13  and  C_14
REMARK    7  A    between atoms: C_23  and  C_30
REMARK                            x       y       z     vdW  Elec       q    Type
REMARK                         _______ _______ _______ _____ _____    ______ ____
ROOT
ATOM      1  C   UNL     1       0.205  -6.714   5.089  0.00  0.00    +0.037 A 
ATOM      2  C   UNL     1       0.187  -5.913   6.230  0.00  0.00    +0.024 A 
ATOM      3  C   UNL     1       0.283  -6.480   7.469  0.00  0.00    +0.017 A 
ATOM      4  C   UNL     1       0.401  -7.865   7.590  0.00  0.00    +0.065 A 
ATOM      5  C   UNL     1       0.427  -8.683   6.447  0.00  0.00    +0.141 A 
ATOM      6  C   UNL     1       0.319  -8.091   5.195  0.00  0.00    +0.070 A 
ATOM      7  O   UNL     1       0.558 -10.021   6.551  0.00  0.00    -0.455 OA
ATOM      8  C   UNL     1       0.353 -10.669   7.715  0.00  0.00    +0.140 A 
ATOM      9  C   UNL     1       0.170 -12.049   7.720  0.00  0.00    +0.051 A 
ATOM     10  C   UNL     1      -0.035 -12.716   8.908  0.00  0.00    -0.029 A 
ATOM     11  C   UNL     1      -0.061 -12.027  10.113  0.00  0.00    +0.045 A 
ATOM     12  C   UNL     1       0.114 -10.659  10.132  0.00  0.00    +0.035 A 
ATOM     13  C   UNL     1       0.319  -9.976   8.935  0.00  0.00    +0.066 A 
ATOM     14  C   UNL     1       0.496  -8.507   8.916  0.00  0.00    +0.200 A 
ATOM     15  O   UNL     1       0.706  -7.868   9.931  0.00  0.00    -0.286 OA
ATOM     16 CL   UNL     1      -0.317 -12.889  11.598  0.00  0.00    -0.083 Cl
ATOM     17  C   UNL     1      -0.232 -14.210   8.900  0.00  0.00    +0.045 C 
ENDROOT
BRANCH   1  20
ATOM     18  C   UNL     1       0.671  -4.925   3.598  0.00  0.00    +0.255 C 
ATOM     19  O   UNL     1       1.202  -4.321   4.505  0.00  0.00    -0.272 OA
ATOM     20  N   UNL     1       0.101  -6.125   3.830  0.00  0.00    -0.283 N 
ATOM     21  H   UNL     1      -0.381  -6.578   3.120  0.00  0.00    +0.155 HD
BRANCH  18  22
ATOM     22  C   UNL     1       0.648  -4.336   2.211  0.00  0.00    +0.324 C 
BRANCH  22  23
ATOM     23  O   UNL     1       1.310  -3.069   2.221  0.00  0.00    -0.482 OA
BRANCH  23  29
ATOM     24  C   UNL     1       2.757   0.857  -0.291  0.00  0.00    +0.044 C 
ATOM     25  C   UNL     1       2.074  -0.485  -0.223  0.00  0.00    -0.044 A 
ATOM     26  C   UNL     1       1.516  -1.035  -1.362  0.00  0.00    +0.004 A 
ATOM     27  C   UNL     1       0.890  -2.266  -1.302  0.00  0.00    +0.004 A 
ATOM     28  C   UNL     1       0.819  -2.949  -0.103  0.00  0.00    +0.046 A 
ATOM     29  C   UNL     1       1.378  -2.399   1.041  0.00  0.00    +0.124 A 
ATOM     30  C   UNL     1       2.012  -1.167   0.977  0.00  0.00    -0.006 A 
ATOM     31  C   UNL     1       2.626  -0.569   2.217  0.00  0.00    +0.048 C 
ENDBRANCH  23  29
ENDBRANCH  22  23
ENDBRANCH  18  22
ENDBRANCH   1  20
TORSDOF 4
