REMARK  Name = ZINC06995922
REMARK  10 active torsions:
REMARK  status: ('A' for Active; 'I' for Inactive)
REMARK    1  A    between atoms: C_1  and  C_2
REMARK    2  A    between atoms: C_2  and  C_3
REMARK    3  A    between atoms: C_3  and  C_24
REMARK    4  A    between atoms: N_6  and  N_10
REMARK    5  A    between atoms: C_11  and  C_13
REMARK    6  A    between atoms: C_13  and  N_14
REMARK    7  A    between atoms: N_14  and  C_15
REMARK    8  A    between atoms: N_14  and  C_16
REMARK    9  A    between atoms: C_16  and  C_17
REMARK   10  A    between atoms: C_20  and  C_23
REMARK                            x       y       z     vdW  Elec       q    Type
REMARK                         _______ _______ _______ _____ _____    ______ ____
ROOT
ATOM      1  C   UNL     1       0.718  -0.497  -1.257  0.00  0.00    +0.139 C 
ATOM      2  C   UNL     1       2.144   0.016  -1.295  0.00  0.00    +0.268 C 
ATOM      3  O   UNL     1       3.025  -0.210  -0.494  0.00  0.00    -0.271 OA
ATOM      4  N   UNL     1       2.228   0.775  -2.405  0.00  0.00    -0.137 N 
ATOM      5  C   UNL     1       1.066   0.812  -3.067  0.00  0.00    +0.327 C 
ATOM      6  O   UNL     1       0.895   1.432  -4.099  0.00  0.00    -0.251 OA
ATOM      7  N   UNL     1       0.107   0.087  -2.463  0.00  0.00    -0.280 N 
ATOM      8  H   UNL     1      -0.807  -0.029  -2.764  0.00  0.00    +0.152 HD
ENDROOT
BRANCH   1   9
ATOM      9  C   UNL     1       0.691  -2.003  -1.325  0.00  0.00    -0.015 A 
ATOM     10  C   UNL     1       0.664  -2.747  -0.160  0.00  0.00    +0.006 A 
ATOM     11  C   UNL     1       0.639  -4.128  -0.222  0.00  0.00    +0.000 A 
ATOM     12  C   UNL     1       0.641  -4.764  -1.449  0.00  0.00    +0.000 A 
ATOM     13  C   UNL     1       0.667  -4.020  -2.614  0.00  0.00    +0.000 A 
ATOM     14  C   UNL     1       0.688  -2.639  -2.552  0.00  0.00    +0.006 A 
ENDBRANCH   1   9
BRANCH   4  15
ATOM     15  N   UNL     1       3.389   1.443  -2.816  0.00  0.00    -0.225 N 
ATOM     16  C   UNL     1       4.111   0.967  -3.849  0.00  0.00    +0.213 C 
ATOM     17  O   UNL     1       3.756  -0.040  -4.424  0.00  0.00    -0.276 OA
ATOM     18  H   UNL     1       3.674   2.248  -2.356  0.00  0.00    +0.173 HD
BRANCH  16  19
ATOM     19  C   UNL     1       5.360   1.685  -4.291  0.00  0.00    +0.020 C 
BRANCH  19  20
ATOM     20  N   UNL     1       5.960   0.973  -5.426  0.00  0.00    +0.386 N 
ATOM     21  C   UNL     1       5.050   1.032  -6.578  0.00  0.00    -0.095 C 
ATOM     22  H   UNL     1       6.119   0.009  -5.173  0.00  0.00    -0.081 HD
BRANCH  20  23
ATOM     23  C   UNL     1       7.239   1.603  -5.780  0.00  0.00    -0.043 C 
BRANCH  23  24
ATOM     24  C   UNL     1       7.913   0.799  -6.862  0.00  0.00    -0.064 A 
ATOM     25  C   UNL     1       8.771  -0.230  -6.526  0.00  0.00    +0.002 A 
ATOM     26  C   UNL     1       9.389  -0.967  -7.519  0.00  0.00    +0.003 A 
ATOM     27  C   UNL     1       9.148  -0.674  -8.848  0.00  0.00    -0.050 A 
ATOM     28  C   UNL     1       8.289   0.354  -9.185  0.00  0.00    +0.003 A 
ATOM     29  C   UNL     1       7.667   1.089  -8.192  0.00  0.00    +0.002 A 
ATOM     30  C   UNL     1       9.822  -1.477  -9.931  0.00  0.00    +0.044 C 
ENDBRANCH  23  24
ENDBRANCH  20  23
ENDBRANCH  19  20
ENDBRANCH  16  19
ENDBRANCH   4  15
BRANCH   1  32
ATOM     31  C   UNL     1      -0.019   1.526   0.010  0.00  0.00    +0.007 C 
ATOM     32  C   UNL     1       0.002  -0.004   0.002  0.00  0.00    +0.037 C 
ENDBRANCH   1  32
TORSDOF 7
