REMARK  Name = ZINC36288577
REMARK  5 active torsions:
REMARK  status: ('A' for Active; 'I' for Inactive)
REMARK    1  A    between atoms: C_6  and  C_7
REMARK    2  A    between atoms: C_8  and  S_9
REMARK    3  A    between atoms: S_9  and  N_12
REMARK    4  A    between atoms: N_12  and  C_13
REMARK    5  A    between atoms: C_16  and  N_20
REMARK                            x       y       z     vdW  Elec       q    Type
REMARK                         _______ _______ _______ _____ _____    ______ ____
ROOT
ATOM      1  S   UNL     1      -2.604  -3.009  -0.004  0.00  0.00    +0.066 S 
ATOM      2  O   UNL     1      -2.513  -4.072   0.934  0.00  0.00    -0.151 OA
ATOM      3  O   UNL     1      -3.529  -1.940   0.145  0.00  0.00    -0.151 OA
ENDROOT
BRANCH   1   5
ATOM      4  C   UNL     1      -0.866  -0.965   0.007  0.00  0.00    +0.028 C 
ATOM      5  C   UNL     1      -1.003  -2.280  -0.097  0.00  0.00    +0.157 C 
BRANCH   4  11
ATOM      6  C   UNL     1       0.625   1.029   0.038  0.00  0.00    +0.009 A 
ATOM      7  C   UNL     1       1.881   1.594  -0.036  0.00  0.00    +0.020 A 
ATOM      8  C   UNL     1       2.995   0.792  -0.218  0.00  0.00    +0.041 A 
ATOM      9  C   UNL     1       2.854  -0.582  -0.327  0.00  0.00    +0.020 A 
ATOM     10  C   UNL     1       1.603  -1.158  -0.256  0.00  0.00    +0.009 A 
ATOM     11  C   UNL     1       0.477  -0.354  -0.072  0.00  0.00    -0.024 A 
ATOM     12 CL   UNL     1       4.572   1.510  -0.309  0.00  0.00    -0.084 Cl
ENDBRANCH   4  11
ENDBRANCH   1   5
BRANCH   1  13
ATOM     13  N   UNL     1      -2.914  -3.702  -1.476  0.00  0.00    -0.217 N 
ATOM     14  H   UNL     1      -3.060  -4.658  -1.540  0.00  0.00    +0.174 HD
BRANCH  13  15
ATOM     15  C   UNL     1      -2.964  -2.906  -2.627  0.00  0.00    +0.050 A 
ATOM     16  C   UNL     1      -3.671  -1.712  -2.615  0.00  0.00    +0.026 A 
ATOM     17  C   UNL     1      -3.721  -0.927  -3.750  0.00  0.00    +0.026 A 
ATOM     18  C   UNL     1      -3.063  -1.332  -4.904  0.00  0.00    +0.043 A 
ATOM     19  C   UNL     1      -2.355  -2.527  -4.916  0.00  0.00    +0.063 A 
ATOM     20  C   UNL     1      -2.301  -3.310  -3.778  0.00  0.00    +0.046 A 
ATOM     21 CL   UNL     1      -1.532  -3.035  -6.358  0.00  0.00    -0.082 Cl
BRANCH  18  22
ATOM     22  N   UNL     1      -3.114  -0.536  -6.056  0.00  0.00    -0.357 N 
ATOM     23  H   UNL     1      -3.609   0.298  -6.047  0.00  0.00    +0.142 HD
ATOM     24  H   UNL     1      -2.655  -0.820  -6.862  0.00  0.00    +0.142 HD
ENDBRANCH  18  22
ENDBRANCH  13  15
ENDBRANCH   1  13
TORSDOF 5
