REMARK  Name = ZINC16949347
REMARK  7 active torsions:
REMARK  status: ('A' for Active; 'I' for Inactive)
REMARK    1  A    between atoms: C_1  and  C_2
REMARK    2  A    between atoms: C_5  and  C_8
REMARK    3  A    between atoms: C_8  and  O_30
REMARK    4  A    between atoms: N_12  and  C_13
REMARK    5  A    between atoms: C_14  and  C_19
REMARK    6  A    between atoms: N_21  and  C_22
REMARK    7  A    between atoms: N_23  and  C_24
REMARK                            x       y       z     vdW  Elec       q    Type
REMARK                         _______ _______ _______ _____ _____    ______ ____
ROOT
ATOM      1  C   UNL     1       0.482  -4.085   0.445  0.00  0.00    +0.174 C 
ATOM      2  C   UNL     1       1.953  -4.439   0.765  0.00  0.00    +0.137 C 
ATOM      3  S   UNL     1       1.698  -5.688   2.095  0.00  0.00    -0.085 S 
ATOM      4  C   UNL     1       0.037  -5.218   2.558  0.00  0.00    +0.166 C 
ATOM      5  N   UNL     1      -0.583  -5.450   3.699  0.00  0.00    -0.206 NA
ATOM      6  N   UNL     1      -0.445  -4.561   1.454  0.00  0.00    -0.246 N 
ENDROOT
BRANCH   1  11
ATOM      7  C   UNL     1      -0.010   1.657   0.026  0.00  0.00    +0.044 C 
ATOM      8  C   UNL     1       0.118   0.160   0.135  0.00  0.00    -0.050 A 
ATOM      9  C   UNL     1       0.486  -0.585  -0.970  0.00  0.00    +0.004 A 
ATOM     10  C   UNL     1       0.604  -1.959  -0.869  0.00  0.00    +0.008 A 
ATOM     11  C   UNL     1       0.354  -2.588   0.336  0.00  0.00    +0.003 A 
ATOM     12  C   UNL     1      -0.012  -1.843   1.441  0.00  0.00    +0.008 A 
ATOM     13  C   UNL     1      -0.126  -0.469   1.342  0.00  0.00    +0.004 A 
ENDBRANCH   1  11
BRANCH   5  14
ATOM     14  C   UNL     1       0.002  -6.219   4.640  0.00  0.00    +0.165 A 
ATOM     15  C   UNL     1       0.168  -5.910   5.992  0.00  0.00    +0.169 A 
ATOM     16  N   UNL     1       0.805  -6.964   6.569  0.00  0.00    -0.229 NA
ATOM     17  C   UNL     1       1.031  -7.876   5.672  0.00  0.00    +0.198 A 
ATOM     18  N   UNL     1       0.548  -7.464   4.464  0.00  0.00    -0.329 N 
ATOM     19  H   UNL     1       0.586  -7.961   3.632  0.00  0.00    +0.168 HD
BRANCH  15  20
ATOM     20  C   UNL     1      -0.261  -4.683   6.662  0.00  0.00    +0.266 C 
ATOM     21  O   UNL     1      -0.824  -3.809   6.028  0.00  0.00    -0.268 OA
ATOM     22  N   UNL     1      -0.033  -4.520   7.980  0.00  0.00    -0.313 N 
ATOM     23  C   UNL     1      -0.463  -3.290   8.651  0.00  0.00    +0.128 C 
ATOM     24  H   UNL     1       0.416  -5.216   8.485  0.00  0.00    +0.149 HD
ENDBRANCH  15  20
ENDBRANCH   5  14
BRANCH   6  25
ATOM     25  C   UNL     1      -1.820  -4.353   1.302  0.00  0.00    +0.039 A 
ATOM     26  C   UNL     1      -2.295  -3.585   0.247  0.00  0.00    +0.023 A 
ATOM     27  C   UNL     1      -3.653  -3.381   0.101  0.00  0.00    +0.002 A 
ATOM     28  C   UNL     1      -4.539  -3.940   1.003  0.00  0.00    +0.000 A 
ATOM     29  C   UNL     1      -4.069  -4.705   2.055  0.00  0.00    +0.002 A 
ATOM     30  C   UNL     1      -2.713  -4.918   2.204  0.00  0.00    +0.023 A 
ENDBRANCH   6  25
BRANCH   1  31
ATOM     31  O   UNL     1       0.134  -4.669  -0.812  0.00  0.00    -0.366 OA
ATOM     32  H   UNL     1       0.686  -4.373  -1.549  0.00  0.00    +0.212 HD
ENDBRANCH   1  31
TORSDOF 5
