REMARK  Name = ZINC32850784
REMARK  6 active torsions:
REMARK  status: ('A' for Active; 'I' for Inactive)
REMARK    1  A    between atoms: C_1  and  C_2
REMARK    2  A    between atoms: C_5  and  S_9
REMARK    3  A    between atoms: S_9  and  N_12
REMARK    4  A    between atoms: N_12  and  C_13
REMARK    5  A    between atoms: C_17  and  C_19
REMARK    6  A    between atoms: C_25  and  C_27
REMARK                            x       y       z     vdW  Elec       q    Type
REMARK                         _______ _______ _______ _____ _____    ______ ____
ROOT
ATOM      1  C   UNL     1       5.683   1.404  -1.619  0.00  0.00    +0.049 A 
ATOM      2  C   UNL     1       4.905   2.485  -1.220  0.00  0.00    +0.024 A 
ATOM      3  C   UNL     1       4.656   3.524  -2.097  0.00  0.00    +0.003 A 
ATOM      4  C   UNL     1       5.170   3.490  -3.378  0.00  0.00    +0.013 A 
ATOM      5  C   UNL     1       5.947   2.407  -3.790  0.00  0.00    +0.039 A 
ATOM      6  C   UNL     1       6.203   1.360  -2.903  0.00  0.00    +0.037 A 
ENDROOT
BRANCH   5   7
ATOM      7  C   UNL     1       6.499   2.368  -5.161  0.00  0.00    +0.247 C 
ATOM      8  O   UNL     1       7.286   1.497  -5.476  0.00  0.00    -0.270 OA
ATOM      9  N   UNL     1       6.129   3.300  -6.062  0.00  0.00    -0.286 N 
ATOM     10  C   UNL     1       5.268   4.460  -5.791  0.00  0.00    +0.109 C 
ATOM     11  C   UNL     1       5.099   5.226  -7.120  0.00  0.00    +0.021 C 
ATOM     12  C   UNL     1       5.412   4.144  -8.188  0.00  0.00    +0.033 C 
ATOM     13  C   UNL     1       6.527   3.327  -7.482  0.00  0.00    +0.162 C 
BRANCH  13  14
ATOM     14  C   UNL     1       6.583   1.928  -8.038  0.00  0.00    +0.231 C 
ATOM     15  O   UNL     1       5.860   1.066  -7.585  0.00  0.00    -0.274 OA
ATOM     16  N   UNL     1       7.435   1.635  -9.040  0.00  0.00    -0.328 N 
ATOM     17  H   UNL     1       7.476   0.613  -9.446  0.00  0.00    +0.145 HD
ATOM     18  H   UNL     1       8.090   2.417  -9.451  0.00  0.00    +0.145 HD
ENDBRANCH  13  14
ENDBRANCH   5   7
BRANCH   1  19
ATOM     19  N   UNL     1       5.936   0.358  -0.727  0.00  0.00    -0.216 N 
ATOM     20  H   UNL     1       5.138  -0.356  -0.477  0.00  0.00    +0.174 HD
BRANCH  19  21
ATOM     21  S   UNL     1       7.437   0.195  -0.047  0.00  0.00    +0.072 S 
ATOM     22  O   UNL     1       8.376   0.291  -1.109  0.00  0.00    -0.150 OA
ATOM     23  O   UNL     1       7.372  -0.935   0.812  0.00  0.00    -0.150 OA
BRANCH  21  28
ATOM     24  C   UNL     1       8.324   5.002   3.493  0.00  0.00    +0.047 C 
ATOM     25  C   UNL     1       8.103   3.801   2.608  0.00  0.00    -0.015 A 
ATOM     26  C   UNL     1       7.415   2.704   3.091  0.00  0.00    +0.008 A 
ATOM     27  C   UNL     1       7.217   1.601   2.282  0.00  0.00    +0.029 A 
ATOM     28  C   UNL     1       7.697   1.598   0.985  0.00  0.00    +0.111 A 
ATOM     29  C   UNL     1       8.380   2.697   0.498  0.00  0.00    +0.067 A 
ATOM     30  C   UNL     1       8.584   3.800   1.310  0.00  0.00    +0.128 A 
ATOM     31  F   UNL     1       9.251   4.875   0.835  0.00  0.00    -0.205 F 
ENDBRANCH  21  28
ENDBRANCH  19  21
ENDBRANCH   1  19
TORSDOF 5
