REMARK  Name = ZINC29388455
REMARK  5 active torsions:
REMARK  status: ('A' for Active; 'I' for Inactive)
REMARK    1  A    between atoms: C_1  and  C_2
REMARK    2  A    between atoms: C_2  and  C_4
REMARK    3  A    between atoms: C_2  and  S_16
REMARK    4  A    between atoms: C_9  and  C_12
REMARK    5  A    between atoms: S_16  and  C_17
REMARK                            x       y       z     vdW  Elec       q    Type
REMARK                         _______ _______ _______ _____ _____    ______ ____
ROOT
ATOM      1  C   UNL     1      -1.734  -0.371  -0.407  0.00  0.00    +0.232 C 
ATOM      2  O   UNL     1      -2.117  -0.621  -1.530  0.00  0.00    -0.274 OA
ATOM      3  N   UNL     1      -2.598  -0.416   0.626  0.00  0.00    -0.252 N 
ATOM      4  C   UNL     1      -3.938  -0.751   0.403  0.00  0.00    +0.243 A 
ATOM      5  N   UNL     1      -4.886  -0.829   1.341  0.00  0.00    -0.188 NA
ATOM      6  C   UNL     1      -6.025  -1.165   0.791  0.00  0.00    +0.258 A 
ATOM      7  N   UNL     1      -5.827  -1.312  -0.530  0.00  0.00    -0.122 NA
ATOM      8  N   UNL     1      -4.470  -1.034  -0.762  0.00  0.00    -0.111 NA
ATOM      9  H   UNL     1      -2.291  -0.216   1.524  0.00  0.00    +0.158 HD
ENDROOT
BRANCH   6  10
ATOM     10  C   UNL     1      -7.334  -1.355   1.514  0.00  0.00    +0.454 C 
ATOM     11  F   UNL     1      -8.168  -0.261   1.265  0.00  0.00    -0.163 F 
ATOM     12  F   UNL     1      -7.951  -2.526   1.061  0.00  0.00    -0.163 F 
ATOM     13  F   UNL     1      -7.096  -1.457   2.889  0.00  0.00    -0.163 F 
ENDBRANCH   6  10
BRANCH   1  15
ATOM     14  C   UNL     1      -0.159   1.509  -0.040  0.00  0.00    +0.029 C 
ATOM     15  C   UNL     1      -0.290  -0.010  -0.166  0.00  0.00    +0.134 C 
BRANCH  15  16
ATOM     16  S   UNL     1       0.718  -0.591  -1.558  0.00  0.00    -0.113 S 
BRANCH  16  17
ATOM     17  C   UNL     1       0.672  -2.346  -1.415  0.00  0.00    +0.009 A 
ATOM     18  C   UNL     1       0.059  -2.940  -0.318  0.00  0.00    +0.015 A 
ATOM     19  C   UNL     1       0.025  -4.316  -0.209  0.00  0.00    +0.001 A 
ATOM     20  C   UNL     1       0.601  -5.103  -1.190  0.00  0.00    +0.000 A 
ATOM     21  C   UNL     1       1.213  -4.516  -2.282  0.00  0.00    +0.001 A 
ATOM     22  C   UNL     1       1.245  -3.141  -2.401  0.00  0.00    +0.015 A 
ENDBRANCH  16  17
ENDBRANCH  15  16
ENDBRANCH   1  15
TORSDOF 4
