REMARK  Name = ZINC39676590
REMARK  9 active torsions:
REMARK  status: ('A' for Active; 'I' for Inactive)
REMARK    1  A    between atoms: C_1  and  O_2
REMARK    2  A    between atoms: O_2  and  C_3
REMARK    3  A    between atoms: C_6  and  C_9
REMARK    4  A    between atoms: C_9  and  C_10
REMARK    5  A    between atoms: C_9  and  N_18
REMARK    6  A    between atoms: C_13  and  O_16
REMARK    7  A    between atoms: O_16  and  C_17
REMARK    8  A    between atoms: C_19  and  C_21
REMARK    9  A    between atoms: C_32  and  C_34
REMARK                            x       y       z     vdW  Elec       q    Type
REMARK                         _______ _______ _______ _____ _____    ______ ____
ROOT
ATOM      1  N   UNL     1       3.669  -2.939   2.553  0.00  0.00    -0.304 N 
ATOM      2  C   UNL     1       4.598  -3.522   3.336  0.00  0.00    +0.219 C 
ATOM      3  O   UNL     1       4.802  -3.096   4.453  0.00  0.00    -0.275 OA
ATOM      4  H   UNL     1       3.505  -3.280   1.659  0.00  0.00    +0.150 HD
ENDROOT
BRANCH   2   5
ATOM      5  C   UNL     1       5.382  -4.702   2.825  0.00  0.00    +0.100 C 
ATOM      6  C   UNL     1       5.743  -5.654   3.988  0.00  0.00    +0.121 C 
ATOM      7  N   UNL     1       7.106  -6.138   3.666  0.00  0.00    -0.300 N 
ATOM      8  C   UNL     1       7.801  -4.948   3.119  0.00  0.00    +0.115 C 
ATOM      9  C   UNL     1       6.735  -4.241   2.258  0.00  0.00    -0.004 C 
ATOM     10  C   UNL     1       6.870  -4.666   0.799  0.00  0.00    -0.010 C 
ATOM     11  C   UNL     1       8.198  -4.147   0.241  0.00  0.00    -0.082 C 
ATOM     12  N   UNL     1       8.239  -2.684   0.351  0.00  0.00    +0.379 N 
ATOM     13  C   UNL     1       8.202  -2.287   1.764  0.00  0.00    -0.082 C 
ATOM     14  C   UNL     1       6.874  -2.727   2.386  0.00  0.00    -0.010 C 
ATOM     15  C   UNL     1       7.602  -7.380   3.834  0.00  0.00    +0.219 C 
ATOM     16  O   UNL     1       8.748  -7.622   3.520  0.00  0.00    -0.275 OA
ATOM     17  H   UNL     1       9.088  -2.340  -0.072  0.00  0.00    -0.086 HD
ATOM     18  H   UNL     1       7.443  -2.290  -0.128  0.00  0.00    -0.086 HD
BRANCH  15  19
ATOM     19  C   UNL     1       6.733  -8.467   4.411  0.00  0.00    +0.079 C 
ATOM     20  C   UNL     1       7.534  -9.772   4.506  0.00  0.00    +0.017 C 
ATOM     21  C   UNL     1       6.582 -10.895   4.923  0.00  0.00    +0.027 C 
ATOM     22  C   UNL     1       5.777 -10.473   6.117  0.00  0.00    -0.031 C 
ATOM     23  C   UNL     1       5.643  -9.245   6.504  0.00  0.00    -0.030 C 
ATOM     24  C   UNL     1       6.277  -8.070   5.816  0.00  0.00    +0.039 C 
ENDBRANCH  15  19
ENDBRANCH   2   5
BRANCH   1  25
ATOM     25  C   UNL     1       2.906  -1.792   3.050  0.00  0.00    +0.134 C 
BRANCH  25  29
ATOM     26  C   UNL     1       5.130   1.795   2.378  0.00  0.00    +0.120 A 
ATOM     27  C   UNL     1       4.425   1.626   3.561  0.00  0.00    +0.046 A 
ATOM     28  C   UNL     1       3.707   0.465   3.776  0.00  0.00    +0.009 A 
ATOM     29  C   UNL     1       3.690  -0.527   2.813  0.00  0.00    -0.023 A 
ATOM     30  C   UNL     1       4.392  -0.360   1.633  0.00  0.00    +0.009 A 
ATOM     31  C   UNL     1       5.106   0.801   1.411  0.00  0.00    +0.046 A 
BRANCH  26  33
ATOM     32  C   UNL     1       5.816   3.917   3.204  0.00  0.00    +0.277 C 
ATOM     33  O   UNL     1       5.837   2.936   2.164  0.00  0.00    -0.495 OA
ENDBRANCH  26  33
ENDBRANCH  25  29
BRANCH  25  34
ATOM     34  C   UNL     1       1.589  -1.710   2.322  0.00  0.00    -0.023 A 
ATOM     35  C   UNL     1       1.532  -1.976   0.966  0.00  0.00    +0.009 A 
ATOM     36  C   UNL     1       0.326  -1.902   0.297  0.00  0.00    +0.046 A 
ATOM     37  C   UNL     1      -0.829  -1.560   0.986  0.00  0.00    +0.120 A 
ATOM     38  C   UNL     1      -0.769  -1.295   2.346  0.00  0.00    +0.046 A 
ATOM     39  C   UNL     1       0.439  -1.375   3.012  0.00  0.00    +0.009 A 
BRANCH  37  40
ATOM     40  O   UNL     1      -2.016  -1.487   0.329  0.00  0.00    -0.495 OA
ATOM     41  C   UNL     1      -3.164  -1.130   1.103  0.00  0.00    +0.277 C 
ENDBRANCH  37  40
ENDBRANCH  25  34
ENDBRANCH   1  25
TORSDOF 7
