REMARK  Name = ZINC08996043
REMARK  4 active torsions:
REMARK  status: ('A' for Active; 'I' for Inactive)
REMARK    1  A    between atoms: C_12  and  C_14
REMARK    2  A    between atoms: C_14  and  C_15
REMARK    3  A    between atoms: N_20  and  C_23
REMARK    4  A    between atoms: C_23  and  C_24
REMARK                            x       y       z     vdW  Elec       q    Type
REMARK                         _______ _______ _______ _____ _____    ______ ____
ROOT
ATOM      1  C   UNL     1       0.361   5.891   0.022  0.00  0.00    +0.000 A 
ATOM      2  C   UNL     1      -1.014   5.746   0.035  0.00  0.00    +0.002 A 
ATOM      3  C   UNL     1      -1.582   4.489   0.036  0.00  0.00    +0.023 A 
ATOM      4  C   UNL     1      -0.774   3.355   0.025  0.00  0.00    +0.036 A 
ATOM      5  C   UNL     1       0.609   3.513   0.013  0.00  0.00    -0.028 A 
ATOM      6  C   UNL     1       1.171   4.769   0.012  0.00  0.00    +0.004 A 
ATOM      7  C   UNL     1       1.180   2.123   0.002  0.00  0.00    +0.050 C 
ATOM      8  C   UNL     1       2.062   1.886  -1.230  0.00  0.00    +0.088 C 
ATOM      9  C   UNL     1       3.513   2.103  -0.719  0.00  0.00    +0.073 C 
ATOM     10  C   UNL     1       3.359   2.461   0.774  0.00  0.00    -0.049 C 
ATOM     11  C   UNL     1       4.136   0.731  -0.843  0.00  0.00    +0.224 C 
ATOM     12  O   UNL     1       5.275   0.448  -0.539  0.00  0.00    -0.275 OA
ATOM     13  N   UNL     1       3.234  -0.123  -1.340  0.00  0.00    -0.239 N 
ATOM     14  C   UNL     1       2.038   0.419  -1.596  0.00  0.00    +0.225 C 
ATOM     15  O   UNL     1       1.083  -0.174  -2.051  0.00  0.00    -0.275 OA
ATOM     16  C   UNL     1      -0.014   1.209   0.009  0.00  0.00    +0.211 C 
ATOM     17  O   UNL     1       0.002  -0.004   0.002  0.00  0.00    -0.277 OA
ATOM     18  N   UNL     1      -1.106   1.998   0.017  0.00  0.00    -0.286 N 
ATOM     19  H   UNL     1      -2.016   1.663   0.021  0.00  0.00    +0.155 HD
ATOM     20  N   UNL     1       2.056   1.902   1.140  0.00  0.00    +0.394 N 
ATOM     21  H   UNL     1       2.141   0.897   1.332  0.00  0.00    -0.083 HD
ATOM     22  H   UNL     1       1.686   2.379   1.970  0.00  0.00    -0.083 HD
ENDROOT
BRANCH  10  23
ATOM     23  C   UNL     1       4.488   1.830   1.592  0.00  0.00    +0.080 C 
BRANCH  23  24
ATOM     24  C   UNL     1       4.390   2.291   3.023  0.00  0.00    +0.209 C 
ATOM     25  O   UNL     1       3.504   3.049   3.356  0.00  0.00    -0.276 OA
ATOM     26  N   UNL     1       5.286   1.861   3.933  0.00  0.00    -0.329 N 
ATOM     27  H   UNL     1       5.995   1.255   3.666  0.00  0.00    +0.145 HD
ATOM     28  H   UNL     1       5.223   2.158   4.854  0.00  0.00    +0.145 HD
ENDBRANCH  23  24
ENDBRANCH  10  23
BRANCH  13  29
ATOM     29  C   UNL     1       3.532  -1.537  -1.584  0.00  0.00    +0.148 C 
BRANCH  29  30
ATOM     30  C   UNL     1       4.068  -1.707  -3.007  0.00  0.00    +0.136 C 
ATOM     31  C   UNL     1       4.270  -3.206  -3.315  0.00  0.00    +0.035 C 
ATOM     32  C   UNL     1       5.595  -3.198  -4.128  0.00  0.00    +0.031 C 
ATOM     33  C   UNL     1       6.353  -2.031  -3.446  0.00  0.00    +0.160 C 
ATOM     34  O   UNL     1       5.341  -1.062  -3.127  0.00  0.00    -0.375 OA
ENDBRANCH  29  30
ENDBRANCH  13  29
TORSDOF 4
