REMARK  Name = ZINC05741945
REMARK  7 active torsions:
REMARK  status: ('A' for Active; 'I' for Inactive)
REMARK    1  A    between atoms: C_1  and  O_2
REMARK    2  A    between atoms: O_2  and  C_3
REMARK    3  A    between atoms: C_3  and  C_5
REMARK    4  A    between atoms: C_5  and  N_19
REMARK    5  A    between atoms: C_6  and  N_7
REMARK    6  A    between atoms: N_7  and  C_8
REMARK    7  A    between atoms: C_10  and  C_15
REMARK                            x       y       z     vdW  Elec       q    Type
REMARK                         _______ _______ _______ _____ _____    ______ ____
ROOT
ATOM      1  N   UNL     1       1.723  -1.864  -3.219  0.00  0.00    -0.317 N 
ATOM      2  H   UNL     1       1.817  -0.905  -3.107  0.00  0.00    +0.152 HD
ENDROOT
BRANCH   1   3
ATOM      3  C   UNL     1       2.155  -2.475  -4.400  0.00  0.00    +0.050 A 
ATOM      4  C   UNL     1       2.016  -3.847  -4.565  0.00  0.00    +0.037 A 
ATOM      5  C   UNL     1       2.444  -4.448  -5.732  0.00  0.00    +0.057 A 
ATOM      6  C   UNL     1       3.010  -3.685  -6.737  0.00  0.00    +0.014 A 
ATOM      7  C   UNL     1       3.151  -2.319  -6.577  0.00  0.00    +0.022 A 
ATOM      8  C   UNL     1       2.719  -1.710  -5.414  0.00  0.00    +0.062 A 
ATOM      9 CL   UNL     1       2.889   0.006  -5.216  0.00  0.00    -0.082 Cl
BRANCH   5  10
ATOM     10  C   UNL     1       2.293  -5.936  -5.912  0.00  0.00    +0.417 C 
ATOM     11  F   UNL     1       1.054  -6.213  -6.499  0.00  0.00    -0.166 F 
ATOM     12  F   UNL     1       3.317  -6.413  -6.738  0.00  0.00    -0.166 F 
ATOM     13  F   UNL     1       2.369  -6.566  -4.665  0.00  0.00    -0.166 F 
ENDBRANCH   5  10
ENDBRANCH   1   3
BRANCH   1  15
ATOM     14  C   UNL     1       0.650  -2.016  -1.124  0.00  0.00    +0.164 C 
ATOM     15  C   UNL     1       1.168  -2.619  -2.221  0.00  0.00    +0.107 C 
BRANCH  14  16
ATOM     16  N   UNL     1       0.180  -2.794  -0.050  0.00  0.00    -0.212 N 
ATOM     17  C   UNL     1      -0.362  -2.343   1.096  0.00  0.00    +0.225 A 
ATOM     18  N   UNL     1      -0.671  -3.379   1.834  0.00  0.00    -0.222 NA
ATOM     19  C   UNL     1      -0.343  -4.502   1.197  0.00  0.00    +0.245 A 
ATOM     20  N   UNL     1       0.176  -4.196   0.036  0.00  0.00    -0.153 NA
ENDBRANCH  14  16
BRANCH  14  21
ATOM     21  C   UNL     1       0.584  -0.603  -1.058  0.00  0.00    +0.359 C 
ATOM     22  O   UNL     1       1.371   0.012  -0.362  0.00  0.00    -0.243 OA
BRANCH  21  24
ATOM     23  C   UNL     1      -0.363   1.487  -1.651  0.00  0.00    +0.280 C 
ATOM     24  O   UNL     1      -0.354   0.062  -1.766  0.00  0.00    -0.463 OA
ENDBRANCH  21  24
ENDBRANCH  14  21
ENDBRANCH   1  15
TORSDOF 6
