REMARK  Name = ZINC06245088
REMARK  16 active torsions:
REMARK  status: ('A' for Active; 'I' for Inactive)
REMARK    1  A    between atoms: C_1  and  C_2
REMARK    2  A    between atoms: C_5  and  N_8
REMARK    3  A    between atoms: N_8  and  C_9
REMARK    4  A    between atoms: C_9  and  C_11
REMARK    5  A    between atoms: C_9  and  C_20
REMARK    6  A    between atoms: C_14  and  N_17
REMARK    7  A    between atoms: N_17  and  C_18
REMARK    8  A    between atoms: N_17  and  C_19
REMARK    9  A    between atoms: N_22  and  C_23
REMARK   10  A    between atoms: C_23  and  C_24
REMARK   11  A    between atoms: C_24  and  C_25
REMARK   12  A    between atoms: C_25  and  C_26
REMARK   13  A    between atoms: C_25  and  C_27
REMARK   14  A    between atoms: C_28  and  C_30
REMARK   15  A    between atoms: C_31  and  N_38
REMARK   16  A    between atoms: C_32  and  C_35
REMARK                            x       y       z     vdW  Elec       q    Type
REMARK                         _______ _______ _______ _____ _____    ______ ____
ROOT
ATOM      1  N   UNL     1       3.280   1.714   0.792  0.00  0.00    -0.251 N 
ATOM      2  C   UNL     1       4.288   1.040   1.380  0.00  0.00    +0.262 C 
ATOM      3  O   UNL     1       4.718   0.022   0.870  0.00  0.00    -0.269 OA
ENDROOT
BRANCH   1   8
ATOM      4  C   UNL     1       0.943   6.172   3.409  0.00  0.00    +0.044 C 
ATOM      5  C   UNL     1       1.564   4.988   2.713  0.00  0.00    -0.050 A 
ATOM      6  C   UNL     1       1.187   3.705   3.066  0.00  0.00    +0.005 A 
ATOM      7  C   UNL     1       1.754   2.617   2.431  0.00  0.00    +0.024 A 
ATOM      8  C   UNL     1       2.704   2.813   1.437  0.00  0.00    +0.038 A 
ATOM      9  C   UNL     1       3.084   4.103   1.089  0.00  0.00    +0.024 A 
ATOM     10  C   UNL     1       2.509   5.186   1.724  0.00  0.00    +0.005 A 
ENDBRANCH   1   8
BRANCH   2  11
ATOM     11  C   UNL     1       4.866   1.533   2.631  0.00  0.00    +0.116 A 
ATOM     12  C   UNL     1       5.849   0.958   3.439  0.00  0.00    +0.076 A 
ATOM     13  C   UNL     1       6.139   1.734   4.561  0.00  0.00    +0.155 A 
ATOM     14  N   UNL     1       5.498   2.866   4.744  0.00  0.00    -0.203 NA
ATOM     15  S   UNL     1       4.509   3.030   3.528  0.00  0.00    +0.019 S 
BRANCH  13  16
ATOM     16  C   UNL     1       7.154   1.287   5.534  0.00  0.00    +0.262 C 
ATOM     17  O   UNL     1       7.744   0.238   5.359  0.00  0.00    -0.269 OA
ATOM     18  N   UNL     1       7.429   2.042   6.616  0.00  0.00    -0.324 N 
ATOM     19  H   UNL     1       6.959   2.879   6.755  0.00  0.00    +0.145 HD
ATOM     20  H   UNL     1       8.097   1.748   7.255  0.00  0.00    +0.145 HD
ENDBRANCH  13  16
BRANCH  12  21
ATOM     21  N   UNL     1       6.470  -0.251   3.156  0.00  0.00    -0.355 N 
ATOM     22  H   UNL     1       6.226  -0.746   2.358  0.00  0.00    +0.142 HD
ATOM     23  H   UNL     1       7.147  -0.601   3.756  0.00  0.00    +0.142 HD
ENDBRANCH  12  21
ENDBRANCH   2  11
BRANCH   1  24
ATOM     24  C   UNL     1       2.788   1.296  -0.523  0.00  0.00    +0.197 C 
BRANCH  24  25
ATOM     25  C   UNL     1       1.295   1.099  -0.461  0.00  0.00    -0.018 A 
ATOM     26  C   UNL     1       0.767  -0.179  -0.472  0.00  0.00    +0.008 A 
ATOM     27  C   UNL     1      -0.601  -0.364  -0.422  0.00  0.00    +0.023 A 
ATOM     28  C   UNL     1      -1.446   0.736  -0.347  0.00  0.00    +0.029 A 
ATOM     29  C   UNL     1      -0.912   2.019  -0.336  0.00  0.00    +0.023 A 
ATOM     30  C   UNL     1       0.456   2.196  -0.393  0.00  0.00    +0.008 A 
BRANCH  28  31
ATOM     31  N   UNL     1      -2.829   0.553  -0.290  0.00  0.00    -0.336 N 
ATOM     32  C   UNL     1      -3.719   1.715  -0.218  0.00  0.00    +0.129 C 
ATOM     33  C   UNL     1      -3.390  -0.800  -0.301  0.00  0.00    +0.129 C 
ENDBRANCH  28  31
ENDBRANCH  24  25
BRANCH  24  34
ATOM     34  C   UNL     1       3.112   2.358  -1.542  0.00  0.00    +0.238 C 
ATOM     35  O   UNL     1       3.697   3.365  -1.204  0.00  0.00    -0.273 OA
ATOM     36  N   UNL     1       2.752   2.188  -2.830  0.00  0.00    -0.313 N 
ATOM     37  H   UNL     1       2.285   1.383  -3.101  0.00  0.00    +0.149 HD
BRANCH  36  38
ATOM     38  C   UNL     1       3.068   3.220  -3.821  0.00  0.00    +0.104 C 
BRANCH  38  39
ATOM     39  C   UNL     1       2.554   2.783  -5.194  0.00  0.00    +0.022 C 
BRANCH  39  40
ATOM     40  C   UNL     1       2.883   3.861  -6.228  0.00  0.00    -0.016 C 
ATOM     41  C   UNL     1       2.482   3.371  -7.621  0.00  0.00    +0.007 C 
ATOM     42  C   UNL     1       2.112   5.140  -5.896  0.00  0.00    +0.007 C 
ENDBRANCH  39  40
ENDBRANCH  38  39
ENDBRANCH  36  38
ENDBRANCH  24  34
ENDBRANCH   1  24
TORSDOF 11
