REMARK  Name = ZINC36272471
REMARK  8 active torsions:
REMARK  status: ('A' for Active; 'I' for Inactive)
REMARK    1  A    between atoms: C_1  and  C_2
REMARK    2  A    between atoms: C_2  and  O_3
REMARK    3  A    between atoms: O_3  and  C_4
REMARK    4  A    between atoms: C_7  and  C_10
REMARK    5  A    between atoms: C_11  and  C_20
REMARK    6  A    between atoms: C_14  and  N_19
REMARK    7  A    between atoms: C_20  and  N_21
REMARK    8  A    between atoms: C_26  and  C_28
REMARK                            x       y       z     vdW  Elec       q    Type
REMARK                         _______ _______ _______ _____ _____    ______ ____
ROOT
ATOM      1  C   UNL     1       1.152  -6.042   1.737  0.00  0.00    +0.091 A 
ATOM      2  C   UNL     1       2.239  -6.708   2.220  0.00  0.00    +0.035 A 
ATOM      3  N   UNL     1       1.921  -8.037   2.237  0.00  0.00    -0.303 N 
ATOM      4  C   UNL     1       2.623  -9.146   2.620  0.00  0.00    +0.115 A 
ATOM      5  C   UNL     1       2.064 -10.378   2.536  0.00  0.00    +0.041 A 
ATOM      6  C   UNL     1       0.750 -10.527   2.051  0.00  0.00    +0.028 A 
ATOM      7  C   UNL     1       0.045  -9.429   1.668  0.00  0.00    +0.048 A 
ATOM      8  C   UNL     1       0.641  -8.155   1.762  0.00  0.00    +0.138 A 
ATOM      9  N   UNL     1       0.192  -6.941   1.471  0.00  0.00    -0.228 NA
ENDROOT
BRANCH   1  13
ATOM     10  C   UNL     1       0.849  -1.835   1.186  0.00  0.00    +0.121 A 
ATOM     11  C   UNL     1       1.416  -2.342   2.347  0.00  0.00    +0.046 A 
ATOM     12  C   UNL     1       1.516  -3.706   2.528  0.00  0.00    +0.013 A 
ATOM     13  C   UNL     1       1.046  -4.575   1.545  0.00  0.00    +0.002 A 
ATOM     14  C   UNL     1       0.476  -4.062   0.381  0.00  0.00    +0.013 A 
ATOM     15  C   UNL     1       0.375  -2.698   0.207  0.00  0.00    +0.046 A 
BRANCH  10  16
ATOM     16  O   UNL     1       0.752  -0.491   1.009  0.00  0.00    -0.492 OA
BRANCH  16  18
ATOM     17  C   UNL     1       1.064   1.809   1.682  0.00  0.00    +0.048 C 
ATOM     18  C   UNL     1       1.260   0.339   2.056  0.00  0.00    +0.225 C 
ENDBRANCH  16  18
ENDBRANCH  10  16
ENDBRANCH   1  13
BRANCH   5  19
ATOM     19  N   UNL     1       2.795 -11.506   2.932  0.00  0.00    -0.357 N 
ATOM     20  H   UNL     1       3.700 -11.405   3.266  0.00  0.00    +0.142 HD
ATOM     21  H   UNL     1       2.396 -12.388   2.872  0.00  0.00    +0.142 HD
ENDBRANCH   5  19
BRANCH   2  22
ATOM     22  C   UNL     1       3.545  -6.094   2.653  0.00  0.00    -0.021 C 
BRANCH  22  23
ATOM     23  N   UNL     1       4.402  -5.887   1.478  0.00  0.00    +0.385 N 
ATOM     24  C   UNL     1       4.750  -7.188   0.892  0.00  0.00    -0.078 C 
ATOM     25  C   UNL     1       5.575  -6.975  -0.379  0.00  0.00    -0.019 C 
ATOM     26  C   UNL     1       6.856  -6.213  -0.027  0.00  0.00    -0.003 C 
ATOM     27  C   UNL     1       6.482  -4.891   0.650  0.00  0.00    -0.016 C 
ATOM     28  C   UNL     1       5.623  -5.181   1.883  0.00  0.00    -0.071 C 
ATOM     29  C   UNL     1       5.248  -3.863   2.563  0.00  0.00    -0.013 C 
ATOM     30  H   UNL     1       3.906  -5.335   0.794  0.00  0.00    -0.081 HD
ENDBRANCH  22  23
ENDBRANCH   2  22
TORSDOF 6
