REMARK  Name = ZINC67268245
REMARK  6 active torsions:
REMARK  status: ('A' for Active; 'I' for Inactive)
REMARK    1  A    between atoms: C_1  and  C_2
REMARK    2  A    between atoms: C_2  and  C_4
REMARK    3  A    between atoms: C_2  and  C_20
REMARK    4  A    between atoms: C_4  and  N_5
REMARK    5  A    between atoms: C_6  and  C_8
REMARK    6  A    between atoms: C_20  and  N_21
REMARK                            x       y       z     vdW  Elec       q    Type
REMARK                         _______ _______ _______ _____ _____    ______ ____
ROOT
ATOM      1  C   UNL     1      -0.315  -0.103   4.898  0.00  0.00    +0.075 C 
ATOM      2  C   UNL     1      -0.446   1.420   4.968  0.00  0.00    +0.015 C 
ATOM      3  C   UNL     1      -1.240   1.806   6.218  0.00  0.00    +0.036 C 
ATOM      4  C   UNL     1      -0.526   1.282   7.460  0.00  0.00    +0.112 C 
ATOM      5  C   UNL     1      -0.366  -0.232   7.393  0.00  0.00    +0.036 C 
ATOM      6  C   UNL     1       0.425  -0.610   6.138  0.00  0.00    +0.015 C 
ATOM      7  C   UNL     1       0.821   1.950   7.615  0.00  0.00    +0.244 C 
ATOM      8  O   UNL     1       1.755   1.905   6.843  0.00  0.00    -0.273 OA
ATOM      9  N   UNL     1       0.766   2.604   8.793  0.00  0.00    -0.238 N 
ATOM     10  C   UNL     1      -0.420   2.441   9.392  0.00  0.00    +0.307 C 
ATOM     11  O   UNL     1      -0.709   2.935  10.465  0.00  0.00    -0.252 OA
ATOM     12  N   UNL     1      -1.257   1.669   8.674  0.00  0.00    -0.285 N 
ATOM     13  H   UNL     1       1.495   3.128   9.160  0.00  0.00    +0.159 HD
ATOM     14  H   UNL     1      -2.163   1.417   8.911  0.00  0.00    +0.151 HD
ENDROOT
BRANCH   1  16
ATOM     15  N   UNL     1      -0.008  -0.140   2.444  0.00  0.00    -0.315 N 
ATOM     16  C   UNL     1       0.457  -0.484   3.661  0.00  0.00    +0.216 C 
ATOM     17  O   UNL     1       1.496  -1.101   3.761  0.00  0.00    -0.276 OA
ATOM     18  H   UNL     1      -0.840   0.353   2.364  0.00  0.00    +0.149 HD
BRANCH  15  19
ATOM     19  C   UNL     1       0.742  -0.511   1.242  0.00  0.00    +0.109 C 
BRANCH  19  21
ATOM     20  C   UNL     1      -0.019   1.526   0.010  0.00  0.00    +0.011 C 
ATOM     21  C   UNL     1       0.002  -0.004   0.002  0.00  0.00    +0.024 C 
BRANCH  21  22
ATOM     22  C   UNL     1       0.718  -0.497  -1.257  0.00  0.00    +0.148 C 
BRANCH  22  23
ATOM     23  N   UNL     1      -0.055  -0.114  -2.441  0.00  0.00    -0.271 N 
ATOM     24  C   UNL     1       0.406   0.588  -3.497  0.00  0.00    +0.108 A 
ATOM     25  C   UNL     1      -0.614   0.732  -4.374  0.00  0.00    +0.041 A 
ATOM     26  C   UNL     1      -1.738   0.097  -3.834  0.00  0.00    +0.134 A 
ATOM     27  N   UNL     1      -1.402  -0.416  -2.678  0.00  0.00    -0.180 NA
ENDBRANCH  22  23
ENDBRANCH  21  22
ENDBRANCH  19  21
ENDBRANCH  15  19
ENDBRANCH   1  16
TORSDOF 5
