REMARK  Name = ZINC19851455
REMARK  7 active torsions:
REMARK  status: ('A' for Active; 'I' for Inactive)
REMARK    1  A    between atoms: C_4  and  C_7
REMARK    2  A    between atoms: C_7  and  C_8
REMARK    3  A    between atoms: C_8  and  C_9
REMARK    4  A    between atoms: C_10  and  C_19
REMARK    5  A    between atoms: C_11  and  N_18
REMARK    6  A    between atoms: C_12  and  C_16
REMARK    7  A    between atoms: C_13  and  N_15
REMARK                            x       y       z     vdW  Elec       q    Type
REMARK                         _______ _______ _______ _____ _____    ______ ____
ROOT
ATOM      1  C   UNL     1       5.487  -1.699   1.381  0.00  0.00    +0.063 A 
ATOM      2  C   UNL     1       5.492  -3.095   1.369  0.00  0.00    +0.095 A 
ATOM      3  C   UNL     1       6.727  -3.775   1.352  0.00  0.00    +0.065 A 
ATOM      4  C   UNL     1       7.904  -3.006   1.350  0.00  0.00    +0.113 A 
ATOM      5  C   UNL     1       7.798  -1.605   1.363  0.00  0.00    +0.136 A 
ATOM      6  N   UNL     1       6.611  -1.014   1.373  0.00  0.00    -0.235 NA
ENDROOT
BRANCH   5   7
ATOM      7  N   UNL     1       8.944  -0.834   1.361  0.00  0.00    -0.342 N 
ATOM      8  H   UNL     1       9.815  -1.260   1.351  0.00  0.00    +0.144 HD
ATOM      9  H   UNL     1       8.877   0.134   1.371  0.00  0.00    +0.144 HD
ENDBRANCH   5   7
BRANCH   3  10
ATOM     10  N   UNL     1       6.778  -5.154   1.340  0.00  0.00    -0.356 N 
ATOM     11  H   UNL     1       5.957  -5.670   1.342  0.00  0.00    +0.142 HD
ATOM     12  H   UNL     1       7.636  -5.607   1.329  0.00  0.00    +0.142 HD
ENDBRANCH   3  10
BRANCH   4  13
ATOM     13  C   UNL     1       9.188  -3.639   1.334  0.00  0.00    +0.104 C 
ATOM     14  N   UNL     1      10.207  -4.142   1.321  0.00  0.00    -0.191 NA
ENDBRANCH   4  13
BRANCH   2  15
ATOM     15  C   UNL     1       4.260  -3.825   1.373  0.00  0.00    +0.103 C 
ATOM     16  N   UNL     1       3.284  -4.405   1.376  0.00  0.00    -0.191 NA
ENDBRANCH   2  15
BRANCH   1  17
ATOM     17  C   UNL     1       4.171  -0.963   1.399  0.00  0.00    +0.061 C 
BRANCH  17  18
ATOM     18  C   UNL     1       3.711  -0.707  -0.038  0.00  0.00    +0.041 C 
BRANCH  18  22
ATOM     19  C   UNL     1      -0.017   1.378   0.010  0.00  0.00    +0.000 A 
ATOM     20  C   UNL     1       1.171   2.086   0.002  0.00  0.00    +0.000 A 
ATOM     21  C   UNL     1       2.377   1.411  -0.013  0.00  0.00    +0.003 A 
ATOM     22  C   UNL     1       2.396   0.029  -0.020  0.00  0.00    -0.047 A 
ATOM     23  C   UNL     1       1.208  -0.679  -0.012  0.00  0.00    +0.003 A 
ATOM     24  C   UNL     1       0.002  -0.004   0.002  0.00  0.00    +0.000 A 
ENDBRANCH  18  22
ENDBRANCH  17  18
ENDBRANCH   1  17
TORSDOF 7
