REMARK  Name = ZINC17878767
REMARK  4 active torsions:
REMARK  status: ('A' for Active; 'I' for Inactive)
REMARK    1  A    between atoms: C_5  and  C_7
REMARK    2  A    between atoms: C_7  and  N_8
REMARK    3  A    between atoms: C_15  and  C_18
REMARK    4  A    between atoms: C_15  and  O_26
REMARK                            x       y       z     vdW  Elec       q    Type
REMARK                         _______ _______ _______ _____ _____    ______ ____
ROOT
ATOM      1  N   UNL     1       1.369  -2.677   1.351  0.00  0.00    -0.264 N 
ATOM      2  C   UNL     1       2.597  -2.885   1.981  0.00  0.00    +0.043 A 
ATOM      3  C   UNL     1       3.899  -2.700   1.521  0.00  0.00    +0.024 A 
ATOM      4  C   UNL     1       4.970  -2.979   2.345  0.00  0.00    +0.002 A 
ATOM      5  C   UNL     1       4.761  -3.444   3.630  0.00  0.00    +0.000 A 
ATOM      6  C   UNL     1       3.471  -3.629   4.094  0.00  0.00    +0.009 A 
ATOM      7  C   UNL     1       2.400  -3.351   3.274  0.00  0.00    +0.016 A 
ATOM      8  C   UNL     1       0.904  -3.444   3.470  0.00  0.00    +0.189 C 
ATOM      9  C   UNL     1       0.331  -2.974   2.150  0.00  0.00    +0.258 C 
ATOM     10  O   UNL     1      -0.845  -2.884   1.867  0.00  0.00    -0.272 OA
ENDROOT
BRANCH   8  11
ATOM     11  C   UNL     1       0.489  -4.889   3.756  0.00  0.00    +0.187 C 
ATOM     12  C   UNL     1      -1.019  -5.009   3.941  0.00  0.00    +0.255 C 
ATOM     13  O   UNL     1      -1.827  -4.749   3.070  0.00  0.00    -0.272 OA
ATOM     14  N   UNL     1      -1.351  -5.423   5.137  0.00  0.00    -0.159 NA
ATOM     15  C   UNL     1      -0.484  -5.709   6.091  0.00  0.00    +0.145 C 
ATOM     16  S   UNL     1       1.038  -5.429   5.427  0.00  0.00    -0.077 S 
ATOM     17  N   UNL     1      -0.764  -6.143   7.353  0.00  0.00    -0.340 N 
ATOM     18  H   UNL     1      -1.685  -6.271   7.629  0.00  0.00    +0.144 HD
ATOM     19  H   UNL     1      -0.042  -6.323   7.975  0.00  0.00    +0.144 HD
ENDBRANCH   8  11
BRANCH   8  20
ATOM     20  O   UNL     1       0.484  -2.582   4.530  0.00  0.00    -0.373 OA
ATOM     21  H   UNL     1       0.695  -1.650   4.386  0.00  0.00    +0.211 HD
ENDBRANCH   8  20
BRANCH   1  22
ATOM     22  C   UNL     1       1.229  -2.186  -0.022  0.00  0.00    +0.150 C 
BRANCH  22  27
ATOM     23  C   UNL     1       2.720  -4.686  -2.425  0.00  0.00    +0.000 A 
ATOM     24  C   UNL     1       1.615  -5.451  -2.750  0.00  0.00    +0.001 A 
ATOM     25  C   UNL     1       0.385  -5.160  -2.192  0.00  0.00    +0.015 A 
ATOM     26  C   UNL     1       0.259  -4.103  -1.308  0.00  0.00    +0.023 A 
ATOM     27  C   UNL     1       1.365  -3.338  -0.984  0.00  0.00    -0.016 A 
ATOM     28  C   UNL     1       2.595  -3.630  -1.543  0.00  0.00    +0.006 A 
ATOM     29 BR   UNL     1      -1.424  -3.703  -0.545  0.00  0.00    -0.050 Br
ENDBRANCH  22  27
ENDBRANCH   1  22
TORSDOF 4
