REMARK  Name = ZINC06490755
REMARK  5 active torsions:
REMARK  status: ('A' for Active; 'I' for Inactive)
REMARK    1  A    between atoms: C_1  and  O_2
REMARK    2  A    between atoms: O_2  and  C_3
REMARK    3  A    between atoms: C_10  and  N_16
REMARK    4  A    between atoms: C_12  and  C_14
REMARK    5  A    between atoms: C_14  and  O_15
REMARK                            x       y       z     vdW  Elec       q    Type
REMARK                         _______ _______ _______ _____ _____    ______ ____
ROOT
ATOM      1  C   UNL     1       0.407  -6.265  -0.176  0.00  0.00    +0.124 A 
ATOM      2  C   UNL     1       0.774  -6.254   1.163  0.00  0.00    +0.046 A 
ATOM      3  C   UNL     1       1.179  -5.071   1.753  0.00  0.00    +0.011 A 
ATOM      4  C   UNL     1       1.216  -3.909   1.014  0.00  0.00    +0.005 A 
ATOM      5  C   UNL     1       0.845  -3.903  -0.325  0.00  0.00    +0.131 A 
ATOM      6  C   UNL     1       0.443  -5.096  -0.917  0.00  0.00    +0.091 A 
ATOM      7  O   UNL     1       0.935  -2.652  -0.855  0.00  0.00    -0.466 OA
ATOM      8  C   UNL     1       1.786  -1.845  -0.025  0.00  0.00    +0.304 C 
ATOM      9  C   UNL     1       1.614  -2.490   1.371  0.00  0.00    +0.111 C 
ENDROOT
BRANCH   8  10
ATOM     10  N   UNL     1       1.331  -0.453  -0.013  0.00  0.00    -0.204 N 
ATOM     11  C   UNL     1       2.122   0.671  -0.015  0.00  0.00    +0.093 A 
ATOM     12  C   UNL     1       3.496   0.886  -0.026  0.00  0.00    +0.030 A 
ATOM     13  C   UNL     1       3.985   2.163  -0.024  0.00  0.00    +0.002 A 
ATOM     14  C   UNL     1       3.120   3.250  -0.010  0.00  0.00    +0.002 A 
ATOM     15  C   UNL     1       1.768   3.066   0.003  0.00  0.00    +0.032 A 
ATOM     16  C   UNL     1       1.242   1.767  -0.000  0.00  0.00    +0.113 A 
ATOM     17  N   UNL     1      -0.015   1.282   0.009  0.00  0.00    -0.129 NA
ATOM     18  N   UNL     1       0.002  -0.004   0.002  0.00  0.00    -0.061 NA
ENDBRANCH   8  10
BRANCH   1  20
ATOM     19  C   UNL     1      -0.000  -8.595   0.061  0.00  0.00    +0.277 C 
ATOM     20  O   UNL     1       0.013  -7.426  -0.761  0.00  0.00    -0.495 OA
ENDBRANCH   1  20
BRANCH   9  21
ATOM     21  C   UNL     1       0.504  -1.793   2.161  0.00  0.00    +0.169 C 
BRANCH  21  22
ATOM     22  O   UNL     1       0.449  -2.334   3.483  0.00  0.00    -0.394 OA
ATOM     23  H   UNL     1      -0.234  -1.938   4.042  0.00  0.00    +0.209 HD
ENDBRANCH  21  22
ENDBRANCH   9  21
TORSDOF 4
