REMARK  Name = ZINC17108933
REMARK  3 active torsions:
REMARK  status: ('A' for Active; 'I' for Inactive)
REMARK    1  A    between atoms: C_4  and  C_7
REMARK    2  A    between atoms: C_8  and  C_9
REMARK    3  A    between atoms: CB_16  and  CG_17
REMARK                            x       y       z     vdW  Elec       q    Type
REMARK                         _______ _______ _______ _____ _____    ______ ____
ROOT
ATOM      1  C   UNK A   2      -4.702  -2.763  -0.488  0.00  0.00    +0.031 C 
ATOM      2  C   UNK A   2      -3.659  -2.107   0.091  0.00  0.00    +0.107 A 
ATOM      3  C   UNK A   2      -2.516  -2.860   0.622  0.00  0.00    +0.273 A 
ATOM      4  O   UNK A   2      -2.599  -4.063   0.790  0.00  0.00    -0.266 OA
ATOM      5  N   PHE A   1      -1.372  -2.209   0.924  0.00  0.00    -0.317 N 
ATOM      6  H   PHE A   1      -0.512  -2.766   1.323  0.00  0.00    +0.169 HD
ATOM      7  CA  PHE A   1      -1.295  -0.828   0.724  0.00  0.00    +0.108 A 
ATOM      8  CB  PHE A   1      -0.094  -0.202   0.744  0.00  0.00    +0.039 C 
ATOM      9  C   PHE A   1      -2.529  -0.059   0.497  0.00  0.00    +0.273 A 
ATOM     10  O   PHE A   1      -2.521   1.154   0.586  0.00  0.00    -0.266 OA
ATOM     11  N   UNK A   2      -3.669  -0.714   0.185  0.00  0.00    -0.317 N 
ATOM     12  H   UNK A   2      -4.601  -0.157   0.004  0.00  0.00    +0.169 HD
ENDROOT
BRANCH   8  13
ATOM     13  CG  PHE A   1       0.034   1.159   0.202  0.00  0.00    -0.023 A 
ATOM     14  CD2 PHE A   1      -0.637   1.514  -0.973  0.00  0.00    +0.008 A 
ATOM     15  CE2 PHE A   1      -0.516   2.794  -1.472  0.00  0.00    +0.001 A 
ATOM     16  CZ  PHE A   1       0.276   3.723  -0.820  0.00  0.00    +0.000 A 
ATOM     17  CE1 PHE A   1       0.949   3.377   0.340  0.00  0.00    +0.001 A 
ATOM     18  CD1 PHE A   1       0.833   2.104   0.855  0.00  0.00    +0.008 A 
ENDBRANCH   8  13
BRANCH   1  20
ATOM     19  C   UNK A   2      -5.693  -4.822  -1.200  0.00  0.00    +0.008 C 
ATOM     20  C   UNK A   2      -4.617  -4.149  -0.729  0.00  0.00    +0.003 C 
BRANCH  19  24
ATOM     21  C   UNK A   2      -9.184  -2.703  -2.342  0.00  0.00    +0.000 A 
ATOM     22  C   UNK A   2      -7.936  -2.193  -2.656  0.00  0.00    +0.001 A 
ATOM     23  C   UNK A   2      -6.796  -2.876  -2.288  0.00  0.00    +0.008 A 
ATOM     24  C   UNK A   2      -6.904  -4.087  -1.596  0.00  0.00    -0.025 A 
ATOM     25  C   UNK A   2      -8.169  -4.599  -1.288  0.00  0.00    +0.008 A 
ATOM     26  C   UNK A   2      -9.299  -3.901  -1.658  0.00  0.00    +0.001 A 
ENDBRANCH  19  24
ENDBRANCH   1  20
TORSDOF 3
