REMARK  Name = ZINC63593920
REMARK  9 active torsions:
REMARK  status: ('A' for Active; 'I' for Inactive)
REMARK    1  A    between atoms: C_1  and  C_2
REMARK    2  A    between atoms: C_2  and  C_3
REMARK    3  A    between atoms: C_5  and  C_8
REMARK    4  A    between atoms: C_8  and  N_9
REMARK    5  A    between atoms: N_9  and  C_10
REMARK    6  A    between atoms: N_9  and  C_11
REMARK    7  A    between atoms: C_11  and  C_12
REMARK    8  A    between atoms: C_16  and  C_24
REMARK    9  A    between atoms: N_26  and  C_27
REMARK                            x       y       z     vdW  Elec       q    Type
REMARK                         _______ _______ _______ _____ _____    ______ ____
ROOT
ATOM      1  C   UNL     1       6.732   0.715  -3.855  0.00  0.00    +0.203 C 
ATOM      2  O   UNL     1       6.099   1.736  -4.027  0.00  0.00    -0.277 OA
ATOM      3  N   UNL     1       8.058   0.696  -4.095  0.00  0.00    -0.266 N 
ATOM      4  C   UNL     1       8.828  -0.558  -4.024  0.00  0.00    +0.168 C 
ATOM      5  C   UNL     1       9.803  -0.571  -5.210  0.00  0.00    +0.276 C 
ATOM      6  O   UNL     1      10.643   0.583  -5.129  0.00  0.00    -0.476 OA
ATOM      7  C   UNL     1      10.045   1.789  -4.940  0.00  0.00    +0.143 A 
ATOM      8  C   UNL     1       8.754   1.871  -4.428  0.00  0.00    +0.078 A 
ATOM      9  C   UNL     1       8.158   3.108  -4.242  0.00  0.00    +0.027 A 
ATOM     10  C   UNL     1       8.846   4.261  -4.574  0.00  0.00    +0.002 A 
ATOM     11  C   UNL     1      10.126   4.179  -5.090  0.00  0.00    +0.004 A 
ATOM     12  C   UNL     1      10.728   2.951  -5.265  0.00  0.00    +0.047 A 
ENDROOT
BRANCH   5  13
ATOM     13  C   UNL     1      10.650  -1.817  -5.154  0.00  0.00    +0.255 C 
ATOM     14  O   UNL     1      11.846  -1.729  -4.975  0.00  0.00    -0.272 OA
ATOM     15  N   UNL     1      10.078  -3.028  -5.302  0.00  0.00    -0.315 N 
ATOM     16  C   UNL     1      10.901  -4.238  -5.247  0.00  0.00    +0.128 C 
ATOM     17  H   UNL     1       9.121  -3.098  -5.445  0.00  0.00    +0.148 HD
ENDBRANCH   5  13
BRANCH   1  18
ATOM     18  C   UNL     1       6.036  -0.531  -3.373  0.00  0.00    +0.019 C 
BRANCH  18  19
ATOM     19  N   UNL     1       4.639  -0.216  -3.045  0.00  0.00    +0.387 N 
ATOM     20  C   UNL     1       4.601   0.715  -1.909  0.00  0.00    -0.095 C 
ATOM     21  H   UNL     1       4.194   0.210  -3.844  0.00  0.00    -0.081 HD
BRANCH  19  22
ATOM     22  C   UNL     1       3.929  -1.452  -2.689  0.00  0.00    -0.022 C 
BRANCH  22  25
ATOM     23  C   UNL     1       0.750  -0.453  -1.125  0.00  0.00    +0.078 A 
ATOM     24  N   UNL     1       2.020  -0.717  -1.310  0.00  0.00    -0.251 NA
ATOM     25  C   UNL     1       2.469  -1.147  -2.472  0.00  0.00    +0.032 A 
ATOM     26  C   UNL     1       1.556  -1.302  -3.465  0.00  0.00    +0.068 A 
ATOM     27  S   UNL     1       0.063  -0.807  -2.620  0.00  0.00    -0.080 S 
BRANCH  23  29
ATOM     28  C   UNL     1       0.055   1.571   0.127  0.00  0.00    +0.011 C 
ATOM     29  C   UNL     1       0.069   0.041   0.125  0.00  0.00    +0.059 C 
ENDBRANCH  23  29
ENDBRANCH  22  25
ENDBRANCH  19  22
ENDBRANCH  18  19
ENDBRANCH   1  18
TORSDOF 6
