REMARK  Name = ZINC17075547
REMARK  4 active torsions:
REMARK  status: ('A' for Active; 'I' for Inactive)
REMARK    1  A    between atoms: C_3  and  O_9
REMARK    2  A    between atoms: O_9  and  C_10
REMARK    3  A    between atoms: C_10  and  C_11
REMARK    4  A    between atoms: C_14  and  C_16
REMARK                            x       y       z     vdW  Elec       q    Type
REMARK                         _______ _______ _______ _____ _____    ______ ____
ROOT
ATOM      1  C   UNL     1       4.838   4.131  -0.023  0.00  0.00    +0.143 A 
ATOM      2  C   UNL     1       5.547   4.452  -1.123  0.00  0.00    +0.049 A 
ATOM      3  C   UNL     1       6.779   4.976  -0.683  0.00  0.00    +0.053 A 
ATOM      4  C   UNL     1       6.753   4.945   0.676  0.00  0.00    +0.174 A 
ATOM      5  O   UNL     1       5.567   4.436   1.062  0.00  0.00    -0.453 OA
ENDROOT
BRANCH   4   6
ATOM      6  C   UNL     1       7.836   5.397   1.574  0.00  0.00    +0.218 A 
ATOM      7  N   UNL     1       7.801   5.357   2.911  0.00  0.00    -0.203 NA
ATOM      8  C   UNL     1       8.928   5.836   3.398  0.00  0.00    +0.170 A 
ATOM      9  C   UNL     1       9.457   6.041   4.746  0.00  0.00    +0.083 A 
ATOM     10  C   UNL     1       8.975   5.807   6.046  0.00  0.00    +0.148 A 
ATOM     11  N   UNL     1       9.887   6.187   6.899  0.00  0.00    -0.180 NA
ATOM     12  N   UNL     1      10.998   6.682   6.205  0.00  0.00    -0.260 N 
ATOM     13  H   UNL     1      11.811   7.027   6.605  0.00  0.00    +0.191 HD
ATOM     14  C   UNL     1      10.740   6.595   4.869  0.00  0.00    +0.161 A 
ATOM     15  N   UNL     1      11.429   6.915   3.764  0.00  0.00    -0.216 NA
ATOM     16  C   UNL     1      10.952   6.731   2.568  0.00  0.00    +0.227 A 
ATOM     17  N   UNL     1       9.722   6.201   2.341  0.00  0.00    -0.201 N 
ATOM     18  N   UNL     1       8.993   5.900   1.183  0.00  0.00    -0.140 NA
ENDBRANCH   4   6
BRANCH   1  19
ATOM     19  C   UNL     1       3.454   3.536  -0.013  0.00  0.00    +0.303 C 
BRANCH  19  20
ATOM     20  O   UNL     1       3.548   2.110  -0.021  0.00  0.00    -0.481 OA
BRANCH  20  23
ATOM     21  C   UNL     1      -0.017   1.380   0.010  0.00  0.00    +0.042 A 
ATOM     22  C   UNL     1       1.170   2.089   0.002  0.00  0.00    +0.051 A 
ATOM     23  C   UNL     1       2.380   1.413  -0.013  0.00  0.00    +0.156 A 
ATOM     24  C   UNL     1       2.399   0.024  -0.021  0.00  0.00    +0.168 A 
ATOM     25  C   UNL     1       1.210  -0.682  -0.013  0.00  0.00    +0.080 A 
ATOM     26  C   UNL     1       0.002  -0.004   0.002  0.00  0.00    +0.126 A 
ATOM     27  F   UNL     1      -1.159  -0.695   0.009  0.00  0.00    -0.205 F 
ATOM     28  F   UNL     1       3.577  -0.636  -0.036  0.00  0.00    -0.202 F 
ENDBRANCH  20  23
ENDBRANCH  19  20
ENDBRANCH   1  19
TORSDOF 4
