REMARK  Name = ZINC44527183
REMARK  4 active torsions:
REMARK  status: ('A' for Active; 'I' for Inactive)
REMARK    1  A    between atoms: C_1  and  N_2
REMARK    2  A    between atoms: C_5  and  C_8
REMARK    3  A    between atoms: C_8  and  N_9
REMARK    4  A    between atoms: C_16  and  C_18
REMARK                            x       y       z     vdW  Elec       q    Type
REMARK                         _______ _______ _______ _____ _____    ______ ____
ROOT
ATOM      1  N   UNL     1       1.995  -4.653   1.081  0.00  0.00    -0.299 N 
ATOM      2  C   UNL     1       2.041  -5.986   1.274  0.00  0.00    +0.303 C 
ATOM      3  O   UNL     1       1.442  -6.731   0.523  0.00  0.00    -0.253 OA
ATOM      4  N   UNL     1       2.752  -6.494   2.301  0.00  0.00    -0.272 N 
ATOM      5  C   UNL     1       3.517  -5.709   3.287  0.00  0.00    +0.110 C 
ATOM      6  C   UNL     1       3.605  -6.621   4.537  0.00  0.00    +0.021 C 
ATOM      7  C   UNL     1       3.768  -8.021   3.889  0.00  0.00    +0.036 C 
ATOM      8  C   UNL     1       2.887  -7.921   2.626  0.00  0.00    +0.190 C 
ATOM      9  H   UNL     1       2.473  -4.059   1.680  0.00  0.00    +0.150 HD
ENDROOT
BRANCH   8  10
ATOM     10  C   UNL     1       3.550  -8.646   1.484  0.00  0.00    +0.376 C 
ATOM     11  O   UNL     1       4.023  -8.016   0.553  0.00  0.00    -0.244 OA
ATOM     12  O   UNL     1       3.614  -9.864   1.490  0.00  0.00    -0.244 OA
ENDBRANCH   8  10
BRANCH   1  13
ATOM     13  C   UNL     1       1.223  -4.101  -0.035  0.00  0.00    +0.109 C 
BRANCH  13  18
ATOM     14  C   UNL     1      -0.018   1.465   0.010  0.00  0.00    -0.096 C 
ATOM     15  N   UNL     1       0.002  -0.004   0.002  0.00  0.00    +0.378 N 
ATOM     16  C   UNL     1       0.681  -0.476  -1.210  0.00  0.00    -0.079 C 
ATOM     17  C   UNL     1       0.634  -2.005  -1.264  0.00  0.00    -0.014 C 
ATOM     18  C   UNL     1       1.336  -2.575  -0.029  0.00  0.00    +0.003 C 
ATOM     19  C   UNL     1       0.666  -2.018   1.230  0.00  0.00    -0.014 C 
ATOM     20  C   UNL     1       0.712  -0.489   1.192  0.00  0.00    -0.079 C 
ATOM     21  H   UNL     1      -0.945  -0.352   0.012  0.00  0.00    -0.082 HD
ENDBRANCH  13  18
ENDBRANCH   1  13
TORSDOF 3
