REMARK  Name = ZINC23061314
REMARK  14 active torsions:
REMARK  status: ('A' for Active; 'I' for Inactive)
REMARK    1  A    between atoms: C_1  and  C_2
REMARK    2  A    between atoms: C_2  and  C_3
REMARK    3  A    between atoms: C_2  and  C_4
REMARK    4  A    between atoms: C_4  and  C_6
REMARK    5  A    between atoms: C_4  and  N_29
REMARK    6  A    between atoms: C_6  and  O_8
REMARK    7  A    between atoms: O_8  and  C_9
REMARK    8  A    between atoms: C_9  and  C_10
REMARK    9  A    between atoms: C_10  and  C_12
REMARK   10  A    between atoms: C_13  and  N_28
REMARK   11  A    between atoms: N_14  and  C_21
REMARK   12  A    between atoms: N_17  and  C_20
REMARK   13  A    between atoms: C_21  and  C_22
REMARK   14  A    between atoms: C_30  and  C_32
REMARK                            x       y       z     vdW  Elec       q    Type
REMARK                         _______ _______ _______ _____ _____    ______ ____
ROOT
ATOM      1  C   UNL     1       1.324  -2.076  -0.023  0.00  0.00    +0.209 C 
ATOM      2  O   UNL     1       0.310  -2.739  -0.109  0.00  0.00    -0.288 OA
ENDROOT
BRANCH   1   3
ATOM      3  C   UNL     1       1.247  -0.667  -0.014  0.00  0.00    +0.123 A 
ATOM      4  C   UNL     1       0.005  -0.009   0.020  0.00  0.00    +0.116 A 
ATOM      5  N   UNL     1      -0.019   1.357   0.027  0.00  0.00    -0.277 N 
ATOM      6  C   UNL     1       1.115   2.075   0.003  0.00  0.00    +0.333 A 
ATOM      7  O   UNL     1       1.040   3.288   0.010  0.00  0.00    -0.246 OA
ATOM      8  N   UNL     1       2.329   1.502  -0.030  0.00  0.00    -0.263 N 
ATOM      9  C   UNL     1       2.461   0.159  -0.040  0.00  0.00    +0.269 A 
ATOM     10  O   UNL     1       3.563  -0.357  -0.070  0.00  0.00    -0.267 OA
ATOM     11  C   UNL     1       3.527   2.346  -0.056  0.00  0.00    +0.157 C 
BRANCH   4  12
ATOM     12  N   UNL     1      -1.154  -0.721   0.045  0.00  0.00    -0.344 N 
ATOM     13  H   UNL     1      -2.121  -0.196   0.072  0.00  0.00    +0.144 HD
ATOM     14  H   UNL     1      -1.125  -1.820   0.039  0.00  0.00    +0.144 HD
ENDBRANCH   4  12
BRANCH   5  15
ATOM     15  C   UNL     1      -1.308   2.052   0.057  0.00  0.00    +0.163 C 
BRANCH  15  16
ATOM     16  C   UNL     1      -1.721   2.284   1.487  0.00  0.00    -0.028 A 
ATOM     17  C   UNL     1      -2.484   1.339   2.148  0.00  0.00    +0.005 A 
ATOM     18  C   UNL     1      -2.859   1.549   3.461  0.00  0.00    +0.000 A 
ATOM     19  C   UNL     1      -2.481   2.709   4.111  0.00  0.00    +0.000 A 
ATOM     20  C   UNL     1      -1.723   3.656   3.449  0.00  0.00    +0.000 A 
ATOM     21  C   UNL     1      -1.343   3.444   2.137  0.00  0.00    +0.005 A 
ENDBRANCH  15  16
ENDBRANCH   5  15
ENDBRANCH   1   3
BRANCH   1  22
ATOM     22  C   UNL     1       2.665  -2.757   0.074  0.00  0.00    +0.311 C 
BRANCH  22  23
ATOM     23  O   UNL     1       2.479  -4.197   0.044  0.00  0.00    -0.455 OA
BRANCH  23  24
ATOM     24  C   UNL     1       3.583  -4.956   0.122  0.00  0.00    +0.328 C 
ATOM     25  O   UNL     1       4.670  -4.434   0.212  0.00  0.00    -0.249 OA
BRANCH  24  26
ATOM     26  C   UNL     1       3.469  -6.458   0.097  0.00  0.00    +0.185 C 
BRANCH  26  27
ATOM     27  N   UNL     1       4.805  -7.052   0.194  0.00  0.00    -0.298 N 
ATOM     28  C   UNL     1       4.955  -8.297   0.688  0.00  0.00    +0.251 C 
ATOM     29  O   UNL     1       3.980  -8.929   1.052  0.00  0.00    -0.270 OA
ATOM     30  H   UNL     1       5.685  -6.481  -0.135  0.00  0.00    +0.150 HD
BRANCH  28  31
ATOM     31  C   UNL     1       6.291  -8.891   0.785  0.00  0.00    +0.074 A 
ATOM     32  C   UNL     1       6.660 -10.141   1.256  0.00  0.00    +0.021 A 
ATOM     33  C   UNL     1       7.997 -10.448   1.236  0.00  0.00    +0.008 A 
ATOM     34  C   UNL     1       8.881  -9.530   0.763  0.00  0.00    +0.046 A 
ATOM     35  S   UNL     1       7.867  -8.195   0.321  0.00  0.00    -0.092 S 
ENDBRANCH  28  31
ENDBRANCH  26  27
BRANCH  26  37
ATOM     36  C   UNL     1       2.693  -8.423  -1.237  0.00  0.00    +0.009 C 
ATOM     37  C   UNL     1       2.810  -6.898  -1.212  0.00  0.00    +0.014 C 
ATOM     38  C   UNL     1       1.415  -6.278  -1.314  0.00  0.00    +0.009 C 
ENDBRANCH  26  37
ENDBRANCH  24  26
ENDBRANCH  23  24
ENDBRANCH  22  23
ENDBRANCH   1  22
TORSDOF 11
