REMARK  Name = ZINC41046695
REMARK  5 active torsions:
REMARK  status: ('A' for Active; 'I' for Inactive)
REMARK    1  A    between atoms: C_1  and  N_2
REMARK    2  A    between atoms: C_4  and  N_15
REMARK    3  A    between atoms: C_6  and  C_7
REMARK    4  A    between atoms: C_7  and  O_9
REMARK    5  A    between atoms: O_9  and  C_10
REMARK                            x       y       z     vdW  Elec       q    Type
REMARK                         _______ _______ _______ _____ _____    ______ ____
ROOT
ATOM      1  C   UNL     1      -0.018   1.461   0.010  0.00  0.00    +0.149 C 
ATOM      2  N   UNL     1       0.002  -0.004   0.002  0.00  0.00    -0.343 N 
ATOM      3  C   UNL     1       0.008  -0.790  -1.107  0.00  0.00    +0.108 A 
ATOM      4  C   UNL     1       0.028  -2.093  -0.719  0.00  0.00    +0.043 A 
ATOM      5  C   UNL     1       0.034  -2.123   0.681  0.00  0.00    +0.057 A 
ATOM      6  C   UNL     1       0.024  -0.812   1.116  0.00  0.00    +0.129 A 
ENDROOT
BRANCH   4   7
ATOM      7  N   UNL     1       0.039  -3.212  -1.573  0.00  0.00    -0.357 N 
ATOM      8  H   UNL     1       0.033  -3.088  -2.535  0.00  0.00    +0.142 HD
ATOM      9  H   UNL     1       0.052  -4.107  -1.199  0.00  0.00    +0.142 HD
ENDBRANCH   4   7
BRANCH   6  10
ATOM     10  C   UNL     1       0.031  -0.363   2.510  0.00  0.00    +0.356 C 
ATOM     11  O   UNL     1       0.050  -1.180   3.412  0.00  0.00    -0.243 OA
BRANCH  10  12
ATOM     12  O   UNL     1       0.016   0.955   2.794  0.00  0.00    -0.457 OA
BRANCH  12  13
ATOM     13  C   UNL     1       0.024   1.321   4.175  0.00  0.00    +0.177 C 
ATOM     14  C   UNL     1      -1.422   1.506   4.681  0.00  0.00    +0.044 C 
ATOM     15  C   UNL     1      -1.331   2.701   5.663  0.00  0.00    +0.004 C 
ATOM     16  C   UNL     1      -0.311   3.637   4.968  0.00  0.00    +0.004 C 
ATOM     17  C   UNL     1       0.730   2.676   4.357  0.00  0.00    +0.044 C 
ENDBRANCH  12  13
ENDBRANCH  10  12
ENDBRANCH   6  10
TORSDOF 4
