REMARK  Name = ZINC35597355
REMARK  7 active torsions:
REMARK  status: ('A' for Active; 'I' for Inactive)
REMARK    1  A    between atoms: C_1  and  S_2
REMARK    2  A    between atoms: S_2  and  C_3
REMARK    3  A    between atoms: C_7  and  N_9
REMARK    4  A    between atoms: N_12  and  C_13
REMARK    5  A    between atoms: C_13  and  C_14
REMARK    6  A    between atoms: C_14  and  N_15
REMARK    7  A    between atoms: C_18  and  N_22
REMARK                            x       y       z     vdW  Elec       q    Type
REMARK                         _______ _______ _______ _____ _____    ______ ____
ROOT
ATOM      1  C   UNL     1       3.881  -5.382   5.766  0.00  0.00    +0.124 C 
ENDROOT
BRANCH   1   5
ATOM      2  N   UNL     1       2.007  -3.430   3.277  0.00  0.00    -0.269 N 
ATOM      3  C   UNL     1       2.762  -3.748   4.347  0.00  0.00    +0.304 C 
ATOM      4  O   UNL     1       3.175  -2.871   5.081  0.00  0.00    -0.253 OA
ATOM      5  N   UNL     1       3.060  -5.037   4.603  0.00  0.00    -0.298 N 
ATOM      6  H   UNL     1       1.613  -4.133   2.735  0.00  0.00    +0.156 HD
ATOM      7  H   UNL     1       2.731  -5.737   4.017  0.00  0.00    +0.150 HD
BRANCH   2  12
ATOM      8  C   UNL     1       2.560   0.186   2.859  0.00  0.00    +0.009 A 
ATOM      9  C   UNL     1       1.350   0.569   2.290  0.00  0.00    +0.015 A 
ATOM     10  C   UNL     1       0.368  -0.372   2.052  0.00  0.00    +0.003 A 
ATOM     11  C   UNL     1       0.584  -1.698   2.378  0.00  0.00    +0.023 A 
ATOM     12  C   UNL     1       1.790  -2.088   2.947  0.00  0.00    +0.036 A 
ATOM     13  C   UNL     1       2.781  -1.146   3.182  0.00  0.00    +0.038 A 
BRANCH   8  15
ATOM     14  C   UNL     1       3.076   2.943   2.589  0.00  0.00    +0.090 C 
ATOM     15  S   UNL     1       3.812   1.387   3.162  0.00  0.00    -0.129 S 
ENDBRANCH   8  15
ENDBRANCH   2  12
ENDBRANCH   1   5
BRANCH   1  16
ATOM     16  C   UNL     1       4.068  -6.899   5.826  0.00  0.00    +0.121 C 
BRANCH  16  17
ATOM     17  N   UNL     1       4.889  -7.244   6.989  0.00  0.00    -0.327 N 
ATOM     18  C   UNL     1       5.196  -8.570   7.253  0.00  0.00    +0.124 A 
ATOM     19  C   UNL     1       4.732  -9.583   6.415  0.00  0.00    +0.091 A 
ATOM     20  C   UNL     1       5.067 -10.895   6.723  0.00  0.00    +0.159 A 
ATOM     21  N   UNL     1       5.812 -11.138   7.798  0.00  0.00    -0.216 NA
ATOM     22  C   UNL     1       6.231 -10.153   8.567  0.00  0.00    +0.225 A 
ATOM     23  N   UNL     1       5.941  -8.895   8.307  0.00  0.00    -0.221 NA
ATOM     24  H   UNL     1       5.219  -6.545   7.575  0.00  0.00    +0.148 HD
BRANCH  20  25
ATOM     25  N   UNL     1       4.627 -11.946   5.915  0.00  0.00    -0.222 N 
ATOM     26  C   UNL     1       4.880 -13.267   6.110  0.00  0.00    +0.116 A 
ATOM     27  C   UNL     1       4.279 -13.951   5.111  0.00  0.00    +0.041 A 
ATOM     28  C   UNL     1       3.638 -13.025   4.278  0.00  0.00    +0.135 A 
ATOM     29  N   UNL     1       3.841 -11.827   4.761  0.00  0.00    -0.173 NA
ENDBRANCH  20  25
ENDBRANCH  16  17
ENDBRANCH   1  16
TORSDOF 6
