REMARK  Name = ZINC47751792
REMARK  7 active torsions:
REMARK  status: ('A' for Active; 'I' for Inactive)
REMARK    1  A    between atoms: C_3  and  C_6
REMARK    2  A    between atoms: C_6  and  N_7
REMARK    3  A    between atoms: C_8  and  C_10
REMARK    4  A    between atoms: C_10  and  N_11
REMARK    5  A    between atoms: N_14  and  C_15
REMARK    6  A    between atoms: C_15  and  C_16
REMARK    7  A    between atoms: C_16  and  N_22
REMARK                            x       y       z     vdW  Elec       q    Type
REMARK                         _______ _______ _______ _____ _____    ______ ____
ROOT
ATOM      1  N   UNL     1       8.502   3.076   7.428  0.00  0.00    -0.291 N 
ATOM      2  C   UNL     1       8.723   1.967   6.694  0.00  0.00    +0.300 C 
ATOM      3  O   UNL     1       7.801   1.220   6.428  0.00  0.00    -0.253 OA
ATOM      4  N   UNL     1       9.966   1.685   6.256  0.00  0.00    -0.301 N 
ATOM      5  H   UNL     1       9.238   3.671   7.640  0.00  0.00    +0.151 HD
ATOM      6  H   UNL     1      10.702   2.281   6.468  0.00  0.00    +0.150 HD
ENDROOT
BRANCH   1   7
ATOM      7  C   UNL     1       7.151   3.381   7.904  0.00  0.00    +0.201 C 
BRANCH   7   9
ATOM      8  N   UNL     1       6.037   5.146   9.233  0.00  0.00    -0.307 N 
ATOM      9  C   UNL     1       7.175   4.665   8.693  0.00  0.00    +0.231 C 
ATOM     10  O   UNL     1       8.218   5.265   8.843  0.00  0.00    -0.274 OA
ATOM     11  H   UNL     1       5.203   4.666   9.113  0.00  0.00    +0.149 HD
BRANCH   8  12
ATOM     12  C   UNL     1       6.061   6.394  10.000  0.00  0.00    +0.178 C 
BRANCH  12  15
ATOM     13  C   UNL     1       2.825   6.825  11.710  0.00  0.00    +0.041 A 
ATOM     14  C   UNL     1       4.139   6.308  11.659  0.00  0.00    +0.046 A 
ATOM     15  C   UNL     1       4.671   6.708  10.490  0.00  0.00    +0.122 A 
ATOM     16  O   UNL     1       3.753   7.437   9.834  0.00  0.00    -0.466 OA
ATOM     17  C   UNL     1       2.631   7.511  10.569  0.00  0.00    +0.195 A 
ENDBRANCH  12  15
ENDBRANCH   8  12
ENDBRANCH   7   9
ENDBRANCH   1   7
BRANCH   4  18
ATOM     18  C   UNL     1      10.207   0.480   5.459  0.00  0.00    +0.094 C 
BRANCH  18  19
ATOM     19  C   UNL     1      11.661   0.464   4.984  0.00  0.00    -0.050 C 
ATOM     20  C   UNL     1      12.591   0.335   6.191  0.00  0.00    -0.010 C 
ATOM     21  C   UNL     1      12.283  -0.967   6.935  0.00  0.00    -0.001 C 
ATOM     22  C   UNL     1      12.500  -2.154   5.994  0.00  0.00    -0.000 C 
ATOM     23  C   UNL     1      11.570  -2.025   4.787  0.00  0.00    -0.001 C 
ATOM     24  C   UNL     1      11.877  -0.723   4.043  0.00  0.00    -0.010 C 
BRANCH  19  25
ATOM     25  N   UNL     1      11.956   1.714   4.270  0.00  0.00    +0.384 N 
ATOM     26  C   UNL     1      13.341   1.683   3.785  0.00  0.00    -0.078 C 
ATOM     27  C   UNL     1      13.679   3.015   3.111  0.00  0.00    -0.019 C 
ATOM     28  C   UNL     1      12.729   3.241   1.932  0.00  0.00    -0.004 C 
ATOM     29  C   UNL     1      11.284   3.197   2.438  0.00  0.00    -0.019 C 
ATOM     30  C   UNL     1      11.034   1.858   3.137  0.00  0.00    -0.078 C 
ATOM     31  H   UNL     1      11.839   2.495   4.899  0.00  0.00    -0.081 HD
ENDBRANCH  19  25
ENDBRANCH  18  19
ENDBRANCH   4  18
TORSDOF 7
