REMARK  Name = ZINC13592204
REMARK  7 active torsions:
REMARK  status: ('A' for Active; 'I' for Inactive)
REMARK    1  A    between atoms: C_1  and  C_2
REMARK    2  A    between atoms: C_2  and  C_4
REMARK    3  A    between atoms: C_2  and  O_33
REMARK    4  A    between atoms: C_7  and  C_21
REMARK    5  A    between atoms: N_23  and  C_24
REMARK    6  A    between atoms: C_29  and  O_30
REMARK    7  A    between atoms: O_30  and  C_31
REMARK                            x       y       z     vdW  Elec       q    Type
REMARK                         _______ _______ _______ _____ _____    ______ ____
ROOT
ATOM      1  C   UNL     1       0.717  -0.535  -1.227  0.00  0.00    +0.084 C 
ATOM      2  C   UNL     1       0.621  -2.077  -1.344  0.00  0.00    +0.036 C 
ATOM      3  C   UNL     1       0.784  -2.288  -2.874  0.00  0.00    +0.110 C 
ATOM      4  C   UNL     1       0.070  -1.063  -3.465  0.00  0.00    +0.135 C 
ATOM      5  N   UNL     1       0.032  -0.018  -2.433  0.00  0.00    -0.294 NA
ATOM      6  C   UNL     1       0.772  -0.582  -4.706  0.00  0.00    +0.005 A 
ATOM      7  C   UNL     1       2.043  -0.110  -4.949  0.00  0.00    +0.008 A 
ATOM      8  C   UNL     1       2.409   0.265  -6.230  0.00  0.00    +0.002 A 
ATOM      9  C   UNL     1       1.497   0.164  -7.264  0.00  0.00    +0.022 A 
ATOM     10  C   UNL     1       0.222  -0.308  -7.025  0.00  0.00    +0.062 A 
ATOM     11  C   UNL     1      -0.155  -0.686  -5.737  0.00  0.00    +0.057 A 
ATOM     12  N   UNL     1      -1.366  -1.183  -5.249  0.00  0.00    -0.282 N 
ATOM     13  C   UNL     1      -1.318  -1.427  -3.926  0.00  0.00    +0.243 C 
ATOM     14  O   UNL     1      -2.219  -1.859  -3.238  0.00  0.00    -0.273 OA
ATOM     15 CL   UNL     1      -0.915  -0.430  -8.331  0.00  0.00    -0.082 Cl
ATOM     16  H   UNL     1      -0.918   0.249  -2.224  0.00  0.00    +0.124 HD
ATOM     17  H   UNL     1      -2.150  -1.333  -5.800  0.00  0.00    +0.155 HD
ENDROOT
BRANCH   3  18
ATOM     18  C   UNL     1       2.241  -2.299  -3.259  0.00  0.00    +0.223 C 
ATOM     19  O   UNL     1       3.030  -1.595  -2.666  0.00  0.00    -0.275 OA
ATOM     20  N   UNL     1       2.667  -3.092  -4.262  0.00  0.00    -0.282 N 
ATOM     21  H   UNL     1       2.025  -3.591  -4.791  0.00  0.00    +0.155 HD
BRANCH  20  22
ATOM     22  C   UNL     1       4.036  -3.194  -4.541  0.00  0.00    +0.077 A 
ATOM     23  C   UNL     1       4.963  -3.123  -3.511  0.00  0.00    +0.047 A 
ATOM     24  C   UNL     1       6.314  -3.225  -3.789  0.00  0.00    +0.043 A 
ATOM     25  C   UNL     1       6.744  -3.397  -5.093  0.00  0.00    +0.024 A 
ATOM     26  C   UNL     1       5.825  -3.468  -6.124  0.00  0.00    +0.049 A 
ATOM     27  C   UNL     1       4.470  -3.373  -5.853  0.00  0.00    +0.141 A 
ATOM     28 CL   UNL     1       7.472  -3.136  -2.500  0.00  0.00    -0.083 Cl
BRANCH  27  29
ATOM     29  O   UNL     1       3.565  -3.449  -6.865  0.00  0.00    -0.493 OA
ATOM     30  C   UNL     1       4.082  -3.634  -8.185  0.00  0.00    +0.277 C 
ENDBRANCH  27  29
ENDBRANCH  20  22
ENDBRANCH   3  18
BRANCH   1  32
ATOM     31  C   UNL     1      -0.030   1.478   0.050  0.00  0.00    +0.039 C 
ATOM     32  C   UNL     1       0.005  -0.051   0.038  0.00  0.00    +0.128 C 
BRANCH  32  33
ATOM     33  O   UNL     1      -1.331  -0.558   0.056  0.00  0.00    -0.391 OA
ATOM     34  H   UNL     1      -1.843  -0.291   0.831  0.00  0.00    +0.210 HD
ENDBRANCH  32  33
ENDBRANCH   1  32
TORSDOF 5
