REMARK  Name = ZINC21859798
REMARK  8 active torsions:
REMARK  status: ('A' for Active; 'I' for Inactive)
REMARK    1  A    between atoms: C_1  and  C_2
REMARK    2  A    between atoms: C_2  and  C_25
REMARK    3  A    between atoms: C_7  and  O_23
REMARK    4  A    between atoms: N_15  and  C_16
REMARK    5  A    between atoms: C_16  and  C_17
REMARK    6  A    between atoms: O_23  and  C_24
REMARK    7  A    between atoms: N_27  and  C_28
REMARK    8  A    between atoms: C_28  and  C_29
REMARK                            x       y       z     vdW  Elec       q    Type
REMARK                         _______ _______ _______ _____ _____    ______ ____
ROOT
ATOM      1  C   UNL     1       4.993  -2.814  -1.851  0.00  0.00    +0.043 C 
ATOM      2  C   UNL     1       3.760  -1.983  -2.210  0.00  0.00    +0.129 C 
ATOM      3  C   UNL     1       3.568  -2.004  -3.729  0.00  0.00    +0.157 C 
ATOM      4  N   UNL     1       4.594  -1.163  -4.357  0.00  0.00    -0.334 N 
ATOM      5  C   UNL     1       5.175  -1.254  -5.577  0.00  0.00    +0.053 A 
ATOM      6  C   UNL     1       5.026  -2.170  -6.618  0.00  0.00    +0.072 A 
ATOM      7  C   UNL     1       5.790  -1.960  -7.758  0.00  0.00    +0.122 A 
ATOM      8  C   UNL     1       6.670  -0.888  -7.872  0.00  0.00    +0.046 A 
ATOM      9  C   UNL     1       6.839   0.025  -6.864  0.00  0.00    +0.013 A 
ATOM     10  C   UNL     1       6.081  -0.164  -5.699  0.00  0.00    +0.001 A 
ATOM     11  C   UNL     1       6.019   0.566  -4.499  0.00  0.00    +0.041 A 
ATOM     12  C   UNL     1       5.127  -0.051  -3.696  0.00  0.00    +0.106 A 
ATOM     13  C   UNL     1       4.696   0.287  -2.328  0.00  0.00    +0.264 C 
ATOM     14  O   UNL     1       5.010   1.337  -1.800  0.00  0.00    -0.268 OA
ATOM     15  N   UNL     1       3.934  -0.632  -1.691  0.00  0.00    -0.276 N 
ENDROOT
BRANCH   2  16
ATOM     16  C   UNL     1       2.551  -2.603  -1.558  0.00  0.00    +0.238 C 
ATOM     17  O   UNL     1       2.619  -3.722  -1.094  0.00  0.00    -0.273 OA
ATOM     18  N   UNL     1       1.394  -1.915  -1.491  0.00  0.00    -0.311 N 
ATOM     19  H   UNL     1       1.354  -0.872  -1.835  0.00  0.00    +0.149 HD
BRANCH  18  20
ATOM     20  C   UNL     1       0.190  -2.558  -0.958  0.00  0.00    +0.135 C 
BRANCH  20  21
ATOM     21  C   UNL     1      -1.001  -1.609  -1.104  0.00  0.00    +0.135 C 
ATOM     22  C   UNL     1      -2.272  -2.241  -0.482  0.00  0.00    +0.035 C 
ATOM     23  C   UNL     1      -3.101  -0.970  -0.150  0.00  0.00    +0.031 C 
ATOM     24  C   UNL     1      -2.004   0.048   0.227  0.00  0.00    +0.160 C 
ATOM     25  O   UNL     1      -0.775  -0.406  -0.353  0.00  0.00    -0.375 OA
ENDBRANCH  20  21
ENDBRANCH  18  20
ENDBRANCH   2  16
BRANCH   7  26
ATOM     26  O   UNL     1       5.673  -2.828  -8.796  0.00  0.00    -0.495 OA
ATOM     27  C   UNL     1       6.479  -2.573  -9.948  0.00  0.00    +0.277 C 
ENDBRANCH   7  26
BRANCH  15  28
ATOM     28  C   UNL     1       3.269  -0.259  -0.439  0.00  0.00    +0.144 C 
BRANCH  28  29
ATOM     29  C   UNL     1       4.187  -0.546   0.721  0.00  0.00    -0.030 A 
ATOM     30  C   UNL     1       5.108   0.403   1.124  0.00  0.00    +0.005 A 
ATOM     31  C   UNL     1       5.950   0.141   2.189  0.00  0.00    +0.000 A 
ATOM     32  C   UNL     1       5.871  -1.071   2.850  0.00  0.00    +0.000 A 
ATOM     33  C   UNL     1       4.949  -2.019   2.447  0.00  0.00    +0.000 A 
ATOM     34  C   UNL     1       4.108  -1.757   1.383  0.00  0.00    +0.005 A 
ENDBRANCH  28  29
ENDBRANCH  15  28
TORSDOF 6
