REMARK  Name = ZINC55844601
REMARK  6 active torsions:
REMARK  status: ('A' for Active; 'I' for Inactive)
REMARK    1  A    between atoms: C_4  and  O_15
REMARK    2  A    between atoms: C_5  and  N_7
REMARK    3  A    between atoms: N_7  and  C_8
REMARK    4  A    between atoms: C_8  and  C_9
REMARK    5  A    between atoms: O_15  and  C_16
REMARK    6  A    between atoms: C_17  and  C_22
REMARK                            x       y       z     vdW  Elec       q    Type
REMARK                         _______ _______ _______ _____ _____    ______ ____
ROOT
ATOM      1  C   UNL     1       0.038   1.474  -0.009  0.00  0.00    +0.002 A 
ATOM      2  C   UNL     1       1.239   2.149  -0.115  0.00  0.00    +0.004 A 
ATOM      3  C   UNL     1       2.432   1.450  -0.124  0.00  0.00    +0.048 A 
ATOM      4  C   UNL     1       2.425   0.068  -0.027  0.00  0.00    +0.151 A 
ATOM      5  C   UNL     1       1.215  -0.614   0.080  0.00  0.00    +0.070 A 
ATOM      6  C   UNL     1       0.022   0.095   0.089  0.00  0.00    +0.026 A 
ENDROOT
BRANCH   5   7
ATOM      7  N   UNL     1       1.202  -2.010   0.179  0.00  0.00    -0.333 N 
ATOM      8  H   UNL     1       2.037  -2.504   0.172  0.00  0.00    +0.147 HD
BRANCH   7   9
ATOM      9  C   UNL     1      -0.071  -2.724   0.291  0.00  0.00    +0.198 C 
BRANCH   9  10
ATOM     10  C   UNL     1       0.190  -4.206   0.382  0.00  0.00    +0.237 C 
ATOM     11  O   UNL     1       1.328  -4.623   0.356  0.00  0.00    -0.274 OA
ATOM     12  N   UNL     1      -0.841  -5.066   0.493  0.00  0.00    -0.239 N 
ATOM     13  C   UNL     1      -0.607  -6.391   0.575  0.00  0.00    +0.303 C 
ATOM     14  O   UNL     1       0.534  -6.810   0.548  0.00  0.00    -0.253 OA
ATOM     15  N   UNL     1      -1.638  -7.252   0.686  0.00  0.00    -0.313 N 
ATOM     16  H   UNL     1      -1.752  -4.733   0.514  0.00  0.00    +0.159 HD
ATOM     17  H   UNL     1      -2.549  -6.918   0.707  0.00  0.00    +0.146 HD
ATOM     18  H   UNL     1      -1.470  -8.206   0.744  0.00  0.00    +0.146 HD
ENDBRANCH   9  10
ENDBRANCH   7   9
ENDBRANCH   5   7
BRANCH   4  19
ATOM     19  O   UNL     1       3.598  -0.622  -0.036  0.00  0.00    -0.435 OA
BRANCH  19  20
ATOM     20  C   UNL     1       4.042  -1.105  -1.221  0.00  0.00    +0.238 A 
ATOM     21  C   UNL     1       5.208  -1.885  -1.263  0.00  0.00    +0.114 A 
ATOM     22  C   UNL     1       5.648  -2.374  -2.498  0.00  0.00    +0.026 A 
ATOM     23  C   UNL     1       4.910  -2.064  -3.628  0.00  0.00    +0.021 A 
ATOM     24  C   UNL     1       3.771  -1.290  -3.505  0.00  0.00    +0.115 A 
ATOM     25  N   UNL     1       3.372  -0.843  -2.330  0.00  0.00    -0.220 NA
BRANCH  21  26
ATOM     26  C   UNL     1       5.935  -2.175  -0.064  0.00  0.00    +0.105 C 
ATOM     27  N   UNL     1       6.512  -2.405   0.888  0.00  0.00    -0.191 NA
ENDBRANCH  21  26
ENDBRANCH  19  20
ENDBRANCH   4  19
TORSDOF 6
