REMARK  Name = ZINC51927580
REMARK  6 active torsions:
REMARK  status: ('A' for Active; 'I' for Inactive)
REMARK    1  A    between atoms: C_1  and  C_2
REMARK    2  A    between atoms: C_3  and  C_19
REMARK    3  A    between atoms: N_4  and  C_7
REMARK    4  A    between atoms: C_7  and  C_8
REMARK    5  A    between atoms: C_7  and  C_9
REMARK    6  A    between atoms: C_7  and  C_16
REMARK                            x       y       z     vdW  Elec       q    Type
REMARK                         _______ _______ _______ _____ _____    ______ ____
ROOT
ATOM      1  C   UNL     1      -0.053  -3.180  -1.347  0.00  0.00    +0.171 C 
ATOM      2  C   UNL     1      -1.406  -3.047  -2.049  0.00  0.00    +0.052 C 
ENDROOT
BRANCH   1   6
ATOM      3  C   UNL     1      -0.487   0.653   1.864  0.00  0.00    +0.065 C 
ATOM      4  C   UNL     1       0.033  -0.298   0.817  0.00  0.00    +0.033 A 
ATOM      5  C   UNL     1      -0.601  -1.394   0.359  0.00  0.00    +0.037 A 
ATOM      6  N   UNL     1       0.219  -1.963  -0.578  0.00  0.00    -0.315 N 
ATOM      7  C   UNL     1       1.326  -1.194  -0.660  0.00  0.00    +0.175 A 
ATOM      8  N   UNL     1       1.205  -0.197   0.173  0.00  0.00    -0.350 N 
ATOM      9  C   UNL     1      -1.952  -1.899   0.795  0.00  0.00    +0.065 C 
ATOM     10  H   UNL     1       1.861   0.505   0.307  0.00  0.00    +0.166 HD
ENDBRANCH   1   6
BRANCH   1  11
ATOM     11  C   UNL     1      -0.084  -4.366  -0.418  0.00  0.00    +0.003 A 
ATOM     12  C   UNL     1       0.024  -4.177   0.947  0.00  0.00    +0.007 A 
ATOM     13  C   UNL     1      -0.004  -5.265   1.799  0.00  0.00    +0.000 A 
ATOM     14  C   UNL     1      -0.140  -6.542   1.287  0.00  0.00    +0.001 A 
ATOM     15  C   UNL     1      -0.248  -6.731  -0.078  0.00  0.00    +0.015 A 
ATOM     16  C   UNL     1      -0.226  -5.643  -0.931  0.00  0.00    +0.024 A 
ATOM     17 BR   UNL     1      -0.381  -5.900  -2.798  0.00  0.00    -0.050 Br
ENDBRANCH   1  11
BRANCH   1  18
ATOM     18  C   UNL     1       1.030  -3.376  -2.377  0.00  0.00    +0.386 C 
ATOM     19  O   UNL     1       2.190  -3.504  -2.025  0.00  0.00    -0.243 OA
ATOM     20  O   UNL     1       0.745  -3.406  -3.562  0.00  0.00    -0.243 OA
ENDBRANCH   1  18
TORSDOF 3
