REMARK  Name = ZINC58156511
REMARK  7 active torsions:
REMARK  status: ('A' for Active; 'I' for Inactive)
REMARK    1  A    between atoms: C_1  and  C_2
REMARK    2  A    between atoms: C_5  and  C_8
REMARK    3  A    between atoms: N_13  and  C_15
REMARK    4  A    between atoms: C_15  and  N_16
REMARK    5  A    between atoms: C_26  and  C_28
REMARK    6  A    between atoms: C_28  and  O_30
REMARK    7  A    between atoms: O_30  and  C_31
REMARK                            x       y       z     vdW  Elec       q    Type
REMARK                         _______ _______ _______ _____ _____    ______ ____
ROOT
ATOM      1  C   UNL     1       0.340  -9.377   1.313  0.00  0.00    +0.160 A 
ATOM      2  N   UNL     1       0.884 -10.417   0.586  0.00  0.00    -0.317 N 
ATOM      3  H   UNL     1       1.187 -11.265   0.946  0.00  0.00    +0.169 HD
ATOM      4  C   UNL     1       0.921 -10.052  -0.711  0.00  0.00    +0.177 A 
ATOM      5  S   UNL     1       1.508 -10.997  -2.012  0.00  0.00    -0.011 S 
ATOM      6  N   UNL     1       0.410  -8.806  -0.799  0.00  0.00    -0.226 N 
ATOM      7  N   UNL     1       0.046  -8.407   0.494  0.00  0.00    -0.150 NA
ENDROOT
BRANCH   1  12
ATOM      8  C   UNL     1      -0.513  -9.344   7.005  0.00  0.00    +0.044 C 
ATOM      9  C   UNL     1      -0.290  -9.352   5.515  0.00  0.00    -0.050 A 
ATOM     10  C   UNL     1      -0.647  -8.251   4.759  0.00  0.00    +0.004 A 
ATOM     11  C   UNL     1      -0.445  -8.253   3.394  0.00  0.00    +0.012 A 
ATOM     12  C   UNL     1       0.121  -9.368   2.777  0.00  0.00    +0.019 A 
ATOM     13  C   UNL     1       0.479 -10.476   3.545  0.00  0.00    +0.012 A 
ATOM     14  C   UNL     1       0.277 -10.460   4.910  0.00  0.00    +0.004 A 
ENDBRANCH   1  12
BRANCH   6  15
ATOM     15  C   UNL     1       0.258  -8.017  -2.024  0.00  0.00    +0.234 C 
BRANCH  15  16
ATOM     16  N   UNL     1      -1.156  -7.998  -2.422  0.00  0.00    -0.267 NA
ATOM     17  C   UNL     1      -1.492  -9.178  -3.211  0.00  0.00    +0.062 C 
ATOM     18  C   UNL     1      -1.980 -10.405  -2.469  0.00  0.00    +0.019 C 
ATOM     19  C   UNL     1      -2.229 -11.505  -3.514  0.00  0.00    +0.002 C 
ATOM     20  C   UNL     1      -3.227 -11.049  -4.574  0.00  0.00    +0.000 C 
ATOM     21  C   UNL     1      -2.785  -9.735  -5.236  0.00  0.00    +0.005 C 
ATOM     22  C   UNL     1      -2.657  -8.703  -4.122  0.00  0.00    +0.008 C 
ATOM     23  C   UNL     1      -2.116  -7.337  -4.570  0.00  0.00    +0.035 C 
ATOM     24  C   UNL     1      -1.456  -6.812  -3.265  0.00  0.00    +0.168 C 
BRANCH  24  25
ATOM     25  C   UNL     1      -0.181  -6.079  -3.594  0.00  0.00    +0.324 C 
ATOM     26  O   UNL     1       0.782  -6.691  -3.993  0.00  0.00    -0.249 OA
BRANCH  25  27
ATOM     27  O   UNL     1      -0.115  -4.747  -3.444  0.00  0.00    -0.467 OA
ATOM     28  C   UNL     1       1.125  -4.118  -3.774  0.00  0.00    +0.280 C 
ENDBRANCH  25  27
ENDBRANCH  24  25
ENDBRANCH  15  16
ENDBRANCH   6  15
TORSDOF 5
