REMARK  Name = ZINC39529014
REMARK  9 active torsions:
REMARK  status: ('A' for Active; 'I' for Inactive)
REMARK    1  A    between atoms: C_1  and  C_2
REMARK    2  A    between atoms: C_2  and  C_3
REMARK    3  A    between atoms: C_3  and  C_4
REMARK    4  A    between atoms: C_6  and  C_27
REMARK    5  A    between atoms: C_9  and  N_10
REMARK    6  A    between atoms: C_14  and  S_17
REMARK    7  A    between atoms: S_17  and  O_20
REMARK    8  A    between atoms: O_20  and  C_21
REMARK    9  A    between atoms: C_32  and  O_33
REMARK                            x       y       z     vdW  Elec       q    Type
REMARK                         _______ _______ _______ _____ _____    ______ ____
ROOT
ATOM      1  N   UNL     1      -1.267  -2.179   2.855  0.00  0.00    -0.331 N 
ATOM      2  C   UNL     1      -2.412  -1.729   3.661  0.00  0.00    +0.086 C 
ATOM      3  C   UNL     1      -2.317  -0.209   3.833  0.00  0.00    -0.061 C 
ATOM      4  N   UNL     1      -1.005   0.137   4.396  0.00  0.00    +0.398 N 
ATOM      5  C   UNL     1       0.057  -0.220   3.447  0.00  0.00    +0.133 C 
ATOM      6  C   UNL     1       0.079  -1.745   3.259  0.00  0.00    +0.115 C 
ATOM      7  H   UNL     1      -0.971   1.128   4.580  0.00  0.00    -0.083 HD
ATOM      8  H   UNL     1      -0.867  -0.368   5.259  0.00  0.00    -0.083 HD
ENDROOT
BRANCH   1  14
ATOM      9  C   UNL     1      -1.648  -2.436   0.487  0.00  0.00    -0.026 A 
ATOM     10  C   UNL     1      -1.826  -3.245  -0.616  0.00  0.00    +0.014 A 
ATOM     11  C   UNL     1      -1.814  -4.631  -0.470  0.00  0.00    -0.014 A 
ATOM     12  C   UNL     1      -1.623  -5.196   0.790  0.00  0.00    +0.010 A 
ATOM     13  C   UNL     1      -1.446  -4.383   1.889  0.00  0.00    +0.024 A 
ATOM     14  C   UNL     1      -1.452  -3.001   1.741  0.00  0.00    +0.033 A 
BRANCH  11  15
ATOM     15  C   UNL     1      -2.006  -5.504  -1.654  0.00  0.00    +0.024 A 
ATOM     16  C   UNL     1      -3.070  -5.279  -2.524  0.00  0.00    +0.012 A 
ATOM     17  C   UNL     1      -3.244  -6.094  -3.624  0.00  0.00    +0.001 A 
ATOM     18  C   UNL     1      -2.364  -7.135  -3.866  0.00  0.00    +0.004 A 
ATOM     19  C   UNL     1      -1.306  -7.367  -3.009  0.00  0.00    +0.046 A 
ATOM     20  C   UNL     1      -1.116  -6.553  -1.904  0.00  0.00    +0.125 A 
BRANCH  20  21
ATOM     21  O   UNL     1      -0.072  -6.777  -1.064  0.00  0.00    -0.506 OA
ATOM     22  H   UNL     1      -0.274  -7.384  -0.339  0.00  0.00    +0.292 HD
ENDBRANCH  20  21
ENDBRANCH  11  15
BRANCH   9  23
ATOM     23  C   UNL     1      -1.660  -0.937   0.330  0.00  0.00    +0.037 C 
BRANCH  23  25
ATOM     24  C   UNL     1      -0.237   1.093   0.014  0.00  0.00    +0.004 C 
ATOM     25  C   UNL     1      -0.225  -0.429   0.173  0.00  0.00    +0.001 C 
ENDBRANCH  23  25
ENDBRANCH   9  23
ENDBRANCH   1  14
BRANCH   5  26
ATOM     26  S   UNL     1       1.658   0.331   4.096  0.00  0.00    +0.109 S 
ATOM     27  O   UNL     1       1.908  -0.270   5.359  0.00  0.00    -0.138 OA
ATOM     28  O   UNL     1       2.641   0.294   3.070  0.00  0.00    -0.138 OA
BRANCH  26  29
ATOM     29  O   UNL     1       1.469   1.810   4.400  0.00  0.00    -0.347 OA
BRANCH  29  30
ATOM     30  C   UNL     1       1.477   2.606   3.298  0.00  0.00    +0.156 A 
ATOM     31  C   UNL     1       2.681   3.037   2.761  0.00  0.00    +0.048 A 
ATOM     32  C   UNL     1       2.687   3.846   1.641  0.00  0.00    +0.004 A 
ATOM     33  C   UNL     1       1.493   4.226   1.056  0.00  0.00    +0.000 A 
ATOM     34  C   UNL     1       0.291   3.798   1.589  0.00  0.00    +0.004 A 
ATOM     35  C   UNL     1       0.281   2.985   2.706  0.00  0.00    +0.048 A 
ENDBRANCH  29  30
ENDBRANCH  26  29
ENDBRANCH   5  26
TORSDOF 8
