REMARK  Name = ZINC59619515
REMARK  4 active torsions:
REMARK  status: ('A' for Active; 'I' for Inactive)
REMARK    1  A    between atoms: C_12  and  C_14
REMARK    2  A    between atoms: N_21  and  C_22
REMARK    3  A    between atoms: C_22  and  C_23
REMARK    4  A    between atoms: C_23  and  N_24
REMARK                            x       y       z     vdW  Elec       q    Type
REMARK                         _______ _______ _______ _____ _____    ______ ____
ROOT
ATOM      1  C   UNL     1      -0.016   1.337   0.009  0.00  0.00    +0.033 C 
ATOM      2  C   UNL     1       0.002  -0.004   0.002  0.00  0.00    +0.031 C 
ATOM      3  C   UNL     1      -1.248  -0.784   0.004  0.00  0.00    +0.090 C 
ATOM      4  C   UNL     1      -1.182  -2.118   0.207  0.00  0.00    +0.249 C 
ATOM      5  O   UNL     1      -2.320  -2.851   0.244  0.00  0.00    -0.270 OA
ATOM      6  N   UNL     1       0.039  -2.738   0.376  0.00  0.00    -0.219 N 
ATOM      7  C   UNL     1       1.196  -2.006   0.452  0.00  0.00    +0.198 C 
ATOM      8  N   UNL     1       1.214  -0.716  -0.013  0.00  0.00    -0.287 N 
ATOM      9  N   UNL     1       2.268  -2.534   1.006  0.00  0.00    -0.186 NA
ATOM     10  C   UNL     1       2.231  -3.771   1.532  0.00  0.00    +0.193 C 
ATOM     11  N   UNL     1       1.228  -4.580   1.327  0.00  0.00    -0.339 N 
ATOM     12  C   UNL     1       0.124  -4.202   0.440  0.00  0.00    +0.183 C 
ATOM     13  N   UNL     1       3.287  -4.197   2.313  0.00  0.00    -0.317 N 
ATOM     14  H   UNL     1       3.275  -5.087   2.700  0.00  0.00    +0.149 HD
ATOM     15  H   UNL     1       1.213  -5.445   1.767  0.00  0.00    +0.164 HD
ATOM     16  H   UNL     1       2.032  -0.308  -0.338  0.00  0.00    +0.155 HD
ENDROOT
BRANCH  12  17
ATOM     17  C   UNL     1       0.380  -4.761  -0.961  0.00  0.00    +0.034 C 
ATOM     18  C   UNL     1      -0.775  -4.368  -1.891  0.00  0.00    +0.011 C 
ATOM     19  C   UNL     1      -0.410  -4.783  -3.318  0.00  0.00    +0.027 C 
ATOM     20  C   UNL     1       0.058  -6.209  -3.337  0.00  0.00    -0.031 C 
ATOM     21  C   UNL     1       0.438  -6.862  -2.286  0.00  0.00    -0.031 C 
ATOM     22  C   UNL     1       0.459  -6.287  -0.899  0.00  0.00    +0.034 C 
ENDBRANCH  12  17
BRANCH  13  23
ATOM     23  C   UNL     1       4.424  -3.307   2.557  0.00  0.00    +0.086 C 
BRANCH  23  24
ATOM     24  C   UNL     1       5.447  -4.018   3.445  0.00  0.00    -0.060 C 
BRANCH  24  25
ATOM     25  N   UNL     1       6.587  -3.125   3.690  0.00  0.00    +0.381 N 
ATOM     26  C   UNL     1       7.279  -2.858   2.423  0.00  0.00    -0.079 C 
ATOM     27  C   UNL     1       8.418  -1.865   2.659  0.00  0.00    -0.019 C 
ATOM     28  C   UNL     1       9.407  -2.459   3.667  0.00  0.00    -0.004 C 
ATOM     29  C   UNL     1       8.659  -2.802   4.958  0.00  0.00    -0.019 C 
ATOM     30  C   UNL     1       7.510  -3.761   4.638  0.00  0.00    -0.079 C 
ATOM     31  H   UNL     1       6.255  -2.255   4.079  0.00  0.00    -0.082 HD
ENDBRANCH  24  25
ENDBRANCH  23  24
ENDBRANCH  13  23
TORSDOF 4
