REMARK  Name = ZINC00033140
REMARK  9 active torsions:
REMARK  status: ('A' for Active; 'I' for Inactive)
REMARK    1  A    between atoms: C_1  and  C_2
REMARK    2  A    between atoms: C_2  and  O_3
REMARK    3  A    between atoms: O_3  and  C_4
REMARK    4  A    between atoms: C_7  and  C_13
REMARK    5  A    between atoms: C_8  and  O_10
REMARK    6  A    between atoms: O_10  and  C_11
REMARK    7  A    between atoms: C_11  and  C_12
REMARK    8  A    between atoms: N_14  and  N_15
REMARK    9  A    between atoms: C_16  and  C_18
REMARK                            x       y       z     vdW  Elec       q    Type
REMARK                         _______ _______ _______ _____ _____    ______ ____
ROOT
ATOM      1  C   UNL     1       4.948   4.027  -0.025  0.00  0.00    +0.142 C 
ATOM      2  N   UNL     1       5.003   5.324  -0.018  0.00  0.00    -0.187 NA
ENDROOT
BRANCH   1   6
ATOM      3  C   UNL     1       1.185   2.058   0.002  0.00  0.00    +0.124 A 
ATOM      4  C   UNL     1       2.359   1.314  -0.013  0.00  0.00    +0.046 A 
ATOM      5  C   UNL     1       3.581   1.948  -0.022  0.00  0.00    +0.016 A 
ATOM      6  C   UNL     1       3.643   3.345  -0.015  0.00  0.00    +0.036 A 
ATOM      7  C   UNL     1       2.457   4.093  -0.000  0.00  0.00    +0.133 A 
ATOM      8  C   UNL     1       1.235   3.444   0.003  0.00  0.00    +0.092 A 
BRANCH   3   9
ATOM      9  O   UNL     1      -0.017   1.425   0.010  0.00  0.00    -0.492 OA
BRANCH   9  11
ATOM     10  C   UNL     1      -1.433  -0.534   0.013  0.00  0.00    +0.048 C 
ATOM     11  C   UNL     1       0.002  -0.004   0.002  0.00  0.00    +0.225 C 
ENDBRANCH   9  11
ENDBRANCH   3   9
BRANCH   7  12
ATOM     12  O   UNL     1       2.508   5.450   0.005  0.00  0.00    -0.491 OA
BRANCH  12  13
ATOM     13  C   UNL     1       1.260   6.146   0.021  0.00  0.00    +0.226 C 
ATOM     14  C   UNL     1       1.518   7.654   0.025  0.00  0.00    +0.048 C 
ENDBRANCH  12  13
ENDBRANCH   7  12
ENDBRANCH   1   6
BRANCH   2  15
ATOM     15  N   UNL     1       6.244   5.974  -0.027  0.00  0.00    -0.203 N 
ATOM     16  C   UNL     1       6.301   7.320  -0.021  0.00  0.00    +0.263 C 
ATOM     17  O   UNL     1       5.274   7.972  -0.008  0.00  0.00    -0.268 OA
ATOM     18  H   UNL     1       7.063   5.454  -0.038  0.00  0.00    +0.178 HD
BRANCH  16  19
ATOM     19  C   UNL     1       7.610   8.005  -0.030  0.00  0.00    +0.040 A 
ATOM     20  C   UNL     1       8.791   7.260  -0.040  0.00  0.00    +0.013 A 
ATOM     21  C   UNL     1      10.010   7.905  -0.054  0.00  0.00    +0.002 A 
ATOM     22  C   UNL     1      10.066   9.287  -0.048  0.00  0.00    +0.020 A 
ATOM     23  C   UNL     1       8.899  10.033  -0.033  0.00  0.00    +0.042 A 
ATOM     24  C   UNL     1       7.672   9.399  -0.024  0.00  0.00    +0.033 A 
ATOM     25 CL   UNL     1       8.979  11.767  -0.024  0.00  0.00    -0.084 Cl
ENDBRANCH  16  19
ENDBRANCH   2  15
TORSDOF 7
