REMARK  Name = ZINC28249803
REMARK  11 active torsions:
REMARK  status: ('A' for Active; 'I' for Inactive)
REMARK    1  A    between atoms: C_1  and  C_2
REMARK    2  A    between atoms: C_5  and  N_9
REMARK    3  A    between atoms: C_6  and  C_8
REMARK    4  A    between atoms: C_10  and  C_12
REMARK    5  A    between atoms: C_14  and  C_35
REMARK    6  A    between atoms: C_16  and  C_24
REMARK    7  A    between atoms: C_18  and  C_22
REMARK    8  A    between atoms: C_18  and  O_23
REMARK    9  A    between atoms: N_26  and  C_27
REMARK   10  A    between atoms: C_30  and  C_34
REMARK   11  A    between atoms: C_32  and  C_33
REMARK                            x       y       z     vdW  Elec       q    Type
REMARK                         _______ _______ _______ _____ _____    ______ ____
ROOT
ATOM      1  C   UNL     1      -3.220   8.116  -0.711  0.00  0.00    +0.149 C 
ATOM      2  C   UNL     1      -2.046   8.489   0.197  0.00  0.00    +0.054 C 
ATOM      3  C   UNL     1      -0.871   7.548  -0.076  0.00  0.00    +0.115 C 
ATOM      4  C   UNL     1      -0.381   7.736  -1.512  0.00  0.00    +0.082 C 
ATOM      5  C   UNL     1      -1.493   7.334  -2.487  0.00  0.00    +0.110 C 
ATOM      6  C   UNL     1      -2.739   8.121  -2.145  0.00  0.00    +0.148 C 
ATOM      7  O   UNL     1      -3.334   8.739  -2.995  0.00  0.00    -0.296 OA
ATOM      8  C   UNL     1      -0.011   9.204  -1.737  0.00  0.00    +0.042 C 
ENDROOT
BRANCH   2   9
ATOM      9  C   UNL     1      -2.467   8.361   1.638  0.00  0.00    -0.024 A 
ATOM     10  C   UNL     1      -2.706   9.494   2.403  0.00  0.00    +0.007 A 
ATOM     11  C   UNL     1      -3.092   9.328   3.724  0.00  0.00    +0.020 A 
ATOM     12  C   UNL     1      -3.225   8.050   4.232  0.00  0.00    +0.111 A 
ATOM     13  N   UNL     1      -2.990   6.995   3.475  0.00  0.00    -0.263 NA
ATOM     14  C   UNL     1      -2.627   7.115   2.213  0.00  0.00    +0.114 A 
ENDBRANCH   2   9
BRANCH   1  16
ATOM     15  N   UNL     1      -3.894   5.813  -1.313  0.00  0.00    -0.285 N 
ATOM     16  C   UNL     1      -3.722   6.741  -0.351  0.00  0.00    +0.228 C 
ATOM     17  O   UNL     1      -3.971   6.470   0.805  0.00  0.00    -0.275 OA
ATOM     18  H   UNL     1      -3.577   6.026  -2.345  0.00  0.00    +0.155 HD
BRANCH  15  23
ATOM     19  C   UNL     1      -6.254   0.813  -0.043  0.00  0.00    +0.044 C 
ATOM     20  C   UNL     1      -5.627   2.141  -0.381  0.00  0.00    -0.050 A 
ATOM     21  C   UNL     1      -5.801   3.221   0.466  0.00  0.00    +0.005 A 
ATOM     22  C   UNL     1      -5.222   4.438   0.163  0.00  0.00    +0.024 A 
ATOM     23  C   UNL     1      -4.476   4.580  -1.000  0.00  0.00    +0.036 A 
ATOM     24  C   UNL     1      -4.304   3.494  -1.848  0.00  0.00    -0.029 A 
ATOM     25  C   UNL     1      -4.880   2.278  -1.536  0.00  0.00    +0.008 A 
ATOM     26  C   UNL     1      -3.490   3.642  -3.107  0.00  0.00    +0.045 C 
ENDBRANCH  15  23
ENDBRANCH   1  16
BRANCH   3  27
ATOM     27  C   UNL     1      -1.316   6.122   0.119  0.00  0.00    +0.224 C 
ATOM     28  O   UNL     1      -1.949   5.560  -0.750  0.00  0.00    -0.275 OA
ATOM     29  N   UNL     1      -1.010   5.470   1.258  0.00  0.00    -0.285 N 
ATOM     30  H   UNL     1      -0.510   6.003   2.080  0.00  0.00    +0.155 HD
BRANCH  29  31
ATOM     31  C   UNL     1      -1.329   4.114   1.396  0.00  0.00    +0.036 A 
ATOM     32  C   UNL     1      -1.960   3.439   0.360  0.00  0.00    +0.024 A 
ATOM     33  C   UNL     1      -2.269   2.100   0.497  0.00  0.00    +0.005 A 
ATOM     34  C   UNL     1      -1.959   1.434   1.668  0.00  0.00    -0.050 A 
ATOM     35  C   UNL     1      -1.330   2.103   2.702  0.00  0.00    +0.008 A 
ATOM     36  C   UNL     1      -1.014   3.441   2.569  0.00  0.00    -0.029 A 
ATOM     37  C   UNL     1      -0.329   4.170   3.696  0.00  0.00    +0.045 C 
ATOM     38  C   UNL     1      -2.302  -0.026   1.817  0.00  0.00    +0.044 C 
ENDBRANCH  29  31
ENDBRANCH   3  27
BRANCH   4  39
ATOM     39  O   UNL     1       0.768   6.915  -1.736  0.00  0.00    -0.388 OA
ATOM     40  H   UNL     1       1.263   6.917  -2.718  0.00  0.00    +0.210 HD
ENDBRANCH   4  39
TORSDOF 6
