REMARK  Name = ZINC67204409
REMARK  6 active torsions:
REMARK  status: ('A' for Active; 'I' for Inactive)
REMARK    1  A    between atoms: C_1  and  N_2
REMARK    2  A    between atoms: N_2  and  C_3
REMARK    3  A    between atoms: N_2  and  C_4
REMARK    4  A    between atoms: C_15  and  C_17
REMARK    5  A    between atoms: C_22  and  C_23
REMARK    6  A    between atoms: C_23  and  N_24
REMARK                            x       y       z     vdW  Elec       q    Type
REMARK                         _______ _______ _______ _____ _____    ______ ____
ROOT
ATOM      1  C   UNL     1       1.107  -0.343   1.035  0.00  0.00    -0.047 C 
ATOM      2  C   UNL     1       0.383   0.227   2.255  0.00  0.00    +0.023 C 
ATOM      3  C   UNL     1       0.830  -0.476   3.509  0.00  0.00    -0.027 A 
ATOM      4  C   UNL     1       0.642   0.149   4.731  0.00  0.00    +0.005 A 
ATOM      5  C   UNL     1       1.038  -0.472   5.899  0.00  0.00    +0.000 A 
ATOM      6  C   UNL     1       1.627  -1.723   5.857  0.00  0.00    +0.002 A 
ATOM      7  C   UNL     1       1.819  -2.352   4.644  0.00  0.00    +0.024 A 
ATOM      8  C   UNL     1       1.421  -1.729   3.466  0.00  0.00    +0.040 A 
ATOM      9  N   UNL     1       1.633  -2.381   2.244  0.00  0.00    -0.269 N 
ATOM     10  C   UNL     1       0.964  -1.871   1.040  0.00  0.00    +0.099 C 
ATOM     11  C   UNL     1       2.439  -3.458   2.173  0.00  0.00    +0.251 C 
ATOM     12  O   UNL     1       3.064  -3.815   3.153  0.00  0.00    -0.270 OA
ENDROOT
BRANCH  11  13
ATOM     13  C   UNL     1       2.563  -4.207   0.904  0.00  0.00    +0.042 A 
ATOM     14  C   UNL     1       3.004  -3.559  -0.251  0.00  0.00    +0.013 A 
ATOM     15  C   UNL     1       3.118  -4.263  -1.432  0.00  0.00    +0.001 A 
ATOM     16  C   UNL     1       2.796  -5.608  -1.473  0.00  0.00    +0.000 A 
ATOM     17  C   UNL     1       2.359  -6.256  -0.331  0.00  0.00    +0.006 A 
ATOM     18  C   UNL     1       2.246  -5.565   0.858  0.00  0.00    -0.017 A 
BRANCH  18  19
ATOM     19  C   UNL     1       1.775  -6.274   2.101  0.00  0.00    +0.153 C 
BRANCH  19  20
ATOM     20  N   UNL     1       0.328  -6.100   2.244  0.00  0.00    -0.220 N 
ATOM     21  C   UNL     1      -0.250  -5.151   3.007  0.00  0.00    +0.240 C 
ATOM     22  O   UNL     1       0.309  -4.312   3.679  0.00  0.00    -0.273 OA
ATOM     23  C   UNL     1      -1.744  -5.351   2.848  0.00  0.00    +0.202 C 
ATOM     24  N   UNL     1      -1.844  -6.497   1.928  0.00  0.00    -0.290 N 
ATOM     25  C   UNL     1      -0.585  -6.861   1.628  0.00  0.00    +0.309 C 
ATOM     26  O   UNL     1      -0.306  -7.780   0.883  0.00  0.00    -0.252 OA
ATOM     27  H   UNL     1      -2.660  -6.907   1.600  0.00  0.00    +0.151 HD
ENDBRANCH  19  20
ENDBRANCH  18  19
ENDBRANCH  11  13
BRANCH   1  29
ATOM     28  C   UNL     1       0.642   1.666  -0.191  0.00  0.00    -0.096 C 
ATOM     29  N   UNL     1       0.510   0.203  -0.191  0.00  0.00    +0.379 N 
ATOM     30  C   UNL     1       1.203  -0.351  -1.362  0.00  0.00    -0.096 C 
ATOM     31  H   UNL     1      -0.467  -0.046  -0.230  0.00  0.00    -0.082 HD
ENDBRANCH   1  29
TORSDOF 4
