REMARK  Name = ZINC24833783
REMARK  3 active torsions:
REMARK  status: ('A' for Active; 'I' for Inactive)
REMARK    1  A    between atoms: C_10  and  C_12
REMARK    2  A    between atoms: N_14  and  N_15
REMARK    3  A    between atoms: C_16  and  C_18
REMARK                            x       y       z     vdW  Elec       q    Type
REMARK                         _______ _______ _______ _____ _____    ______ ____
ROOT
ATOM      1  N   UNL     1      -1.278   7.445   0.282  0.00  0.00    -0.229 N 
ATOM      2  C   UNL     1      -1.327   6.116   0.501  0.00  0.00    +0.281 C 
ATOM      3  O   UNL     1      -2.395   5.574   0.712  0.00  0.00    -0.267 OA
ATOM      4  H   UNL     1      -0.312   7.935   0.091  0.00  0.00    +0.173 HD
ENDROOT
BRANCH   2   5
ATOM      5  C   UNL     1      -0.085   5.319   0.485  0.00  0.00    +0.155 A 
ATOM      6  C   UNL     1      -0.129   3.867   0.722  0.00  0.00    +0.020 A 
ATOM      7  C   UNL     1      -1.313   3.179   0.969  0.00  0.00    +0.011 A 
ATOM      8  C   UNL     1      -1.273   1.817   1.179  0.00  0.00    +0.001 A 
ATOM      9  C   UNL     1      -0.067   1.129   1.155  0.00  0.00    +0.001 A 
ATOM     10  C   UNL     1       1.117   1.791   0.911  0.00  0.00    +0.014 A 
ATOM     11  C   UNL     1       1.098   3.165   0.692  0.00  0.00    +0.050 A 
ATOM     12  C   UNL     1       2.312   3.948   0.425  0.00  0.00    +0.272 A 
ATOM     13  O   UNL     1       3.404   3.410   0.385  0.00  0.00    -0.266 OA
ATOM     14  N   UNL     1       2.190   5.276   0.227  0.00  0.00    -0.242 N 
ATOM     15  H   UNL     1       3.082   5.887   0.025  0.00  0.00    +0.192 HD
ATOM     16  N   UNL     1       1.070   5.895   0.258  0.00  0.00    -0.166 NA
ENDBRANCH   2   5
BRANCH   1  19
ATOM     17  C   UNL     1      -2.407   9.531   0.078  0.00  0.00    +0.237 C 
ATOM     18  O   UNL     1      -1.335  10.086  -0.041  0.00  0.00    -0.274 OA
ATOM     19  N   UNL     1      -2.457   8.202   0.297  0.00  0.00    -0.234 N 
ATOM     20  H   UNL     1      -3.422   7.712   0.488  0.00  0.00    +0.173 HD
BRANCH  17  30
ATOM     21  C   UNL     1      -4.768  10.590  -4.148  0.00  0.00    +0.000 A 
ATOM     22  C   UNL     1      -4.289   9.407  -3.615  0.00  0.00    +0.000 A 
ATOM     23  C   UNL     1      -3.944   9.347  -2.281  0.00  0.00    +0.004 A 
ATOM     24  C   UNL     1      -4.073  10.465  -1.467  0.00  0.00    -0.032 A 
ATOM     25  C   UNL     1      -4.545  11.644  -1.998  0.00  0.00    -0.043 A 
ATOM     26  C   UNL     1      -4.894  11.702  -3.341  0.00  0.00    +0.004 A 
ATOM     27  C   UNL     1      -4.703  12.897  -1.177  0.00  0.00    +0.035 C 
ATOM     28  C   UNL     1      -4.698  12.567   0.314  0.00  0.00    +0.006 C 
ATOM     29  C   UNL     1      -3.469  11.701   0.613  0.00  0.00    +0.018 C 
ATOM     30  C   UNL     1      -3.683  10.327  -0.019  0.00  0.00    +0.107 C 
ENDBRANCH  17  30
ENDBRANCH   1  19
TORSDOF 3
