REMARK  Name = ZINC58569714
REMARK  6 active torsions:
REMARK  status: ('A' for Active; 'I' for Inactive)
REMARK    1  A    between atoms: C_3  and  C_11
REMARK    2  A    between atoms: C_5  and  N_7
REMARK    3  A    between atoms: C_11  and  N_12
REMARK    4  A    between atoms: C_13  and  C_15
REMARK    5  A    between atoms: C_17  and  N_27
REMARK    6  A    between atoms: C_20  and  N_21
REMARK                            x       y       z     vdW  Elec       q    Type
REMARK                         _______ _______ _______ _____ _____    ______ ____
ROOT
ATOM      1  N   UNL     1       4.278   2.440   0.892  0.00  0.00    -0.307 N 
ATOM      2  C   UNL     1       5.439   3.121   0.957  0.00  0.00    +0.246 C 
ATOM      3  O   UNL     1       5.965   3.526  -0.063  0.00  0.00    -0.270 OA
ATOM      4  H   UNL     1       3.859   2.117   1.705  0.00  0.00    +0.149 HD
ENDROOT
BRANCH   2   5
ATOM      5  C   UNL     1       6.073   3.376   2.263  0.00  0.00    +0.060 A 
ATOM      6  C   UNL     1       5.476   2.908   3.437  0.00  0.00    +0.047 A 
ATOM      7  C   UNL     1       6.073   3.149   4.655  0.00  0.00    +0.127 A 
ATOM      8  C   UNL     1       7.264   3.854   4.724  0.00  0.00    +0.034 A 
ATOM      9  C   UNL     1       7.866   4.323   3.574  0.00  0.00    +0.026 A 
ATOM     10  C   UNL     1       7.282   4.084   2.336  0.00  0.00    +0.042 A 
BRANCH  10  11
ATOM     11  N   UNL     1       7.889   4.550   1.177  0.00  0.00    -0.329 N 
ATOM     12  C   UNL     1       7.579   5.888   0.655  0.00  0.00    +0.105 C 
ATOM     13  C   UNL     1       8.889   6.657   0.462  0.00  0.00    +0.019 C 
ATOM     14  C   UNL     1       9.831   5.839  -0.425  0.00  0.00    +0.003 C 
ATOM     15  C   UNL     1      10.149   4.508   0.259  0.00  0.00    +0.019 C 
ATOM     16  C   UNL     1       8.858   3.716   0.453  0.00  0.00    +0.105 C 
ENDBRANCH  10  11
BRANCH   7  17
ATOM     17  N   UNL     1       5.438   2.652   5.897  0.00  0.00    +0.056 N 
ATOM     18  O   UNL     1       4.399   2.037   5.840  0.00  0.00    -0.126 OA
ATOM     19  O   UNL     1       5.960   2.862   6.967  0.00  0.00    -0.126 OA
ENDBRANCH   7  17
ENDBRANCH   2   5
BRANCH   1  20
ATOM     20  C   UNL     1       3.649   2.187  -0.407  0.00  0.00    +0.140 C 
BRANCH  20  23
ATOM     21  C   UNL     1       0.005   1.379   0.170  0.00  0.00    +0.002 A 
ATOM     22  C   UNL     1       1.179   2.086  -0.016  0.00  0.00    +0.005 A 
ATOM     23  C   UNL     1       2.372   1.413  -0.204  0.00  0.00    -0.029 A 
ATOM     24  C   UNL     1       2.395   0.032  -0.206  0.00  0.00    +0.028 A 
ATOM     25  C   UNL     1       1.218  -0.680  -0.019  0.00  0.00    +0.035 A 
ATOM     26  C   UNL     1       0.021  -0.002   0.169  0.00  0.00    +0.023 A 
BRANCH  25  27
ATOM     27  N   UNL     1       1.237  -2.080  -0.021  0.00  0.00    -0.270 N 
ATOM     28  C   UNL     1       2.311  -2.739   0.458  0.00  0.00    +0.301 C 
ATOM     29  O   UNL     1       3.220  -2.123   0.980  0.00  0.00    -0.253 OA
ATOM     30  N   UNL     1       2.376  -4.082   0.358  0.00  0.00    -0.313 N 
ATOM     31  H   UNL     1       0.479  -2.575  -0.367  0.00  0.00    +0.156 HD
ATOM     32  H   UNL     1       1.651  -4.573  -0.058  0.00  0.00    +0.146 HD
ATOM     33  H   UNL     1       3.149  -4.557   0.703  0.00  0.00    +0.146 HD
ENDBRANCH  25  27
ENDBRANCH  20  23
ENDBRANCH   1  20
TORSDOF 6
