REMARK  Name = ZINC31625156
REMARK  3 active torsions:
REMARK  status: ('A' for Active; 'I' for Inactive)
REMARK    1  A    between atoms: C_1  and  C_2
REMARK    2  A    between atoms: C_9  and  C_13
REMARK    3  A    between atoms: C_13  and  N_14
REMARK                            x       y       z     vdW  Elec       q    Type
REMARK                         _______ _______ _______ _____ _____    ______ ____
ROOT
ATOM      1  C   UNL     1       2.383  -4.189  -0.043  0.00  0.00    +0.173 C 
ENDROOT
BRANCH   1   2
ATOM      2  N   UNL     1       1.807  -4.679   1.211  0.00  0.00    -0.218 N 
ATOM      3  C   UNL     1       2.525  -4.949   2.321  0.00  0.00    +0.247 C 
ATOM      4  O   UNL     1       3.724  -4.837   2.465  0.00  0.00    -0.273 OA
ATOM      5  C   UNL     1       1.521  -5.419   3.348  0.00  0.00    +0.113 C 
ATOM      6  C   UNL     1       1.833  -6.848   3.777  0.00  0.00    +0.035 C 
ATOM      7  C   UNL     1       0.784  -7.319   4.788  0.00  0.00    +0.003 C 
ATOM      8  C   UNL     1       0.794  -6.389   6.003  0.00  0.00    +0.000 C 
ATOM      9  C   UNL     1       0.459  -4.963   5.560  0.00  0.00    +0.003 C 
ATOM     10  C   UNL     1       1.507  -4.484   4.552  0.00  0.00    +0.035 C 
ATOM     11  N   UNL     1       0.235  -5.364   2.640  0.00  0.00    -0.285 N 
ATOM     12  C   UNL     1       0.503  -4.920   1.397  0.00  0.00    +0.310 C 
ATOM     13  O   UNL     1      -0.343  -4.755   0.541  0.00  0.00    -0.252 OA
ATOM     14  H   UNL     1      -0.690  -5.660   3.156  0.00  0.00    +0.151 HD
ENDBRANCH   1   2
BRANCH   1  23
ATOM     15  C   UNL     1      -1.289  -0.781   0.010  0.00  0.00    +0.047 C 
ATOM     16  C   UNL     1       0.002  -0.004   0.002  0.00  0.00    -0.008 A 
ATOM     17  C   UNL     1      -0.016   1.359   0.009  0.00  0.00    +0.008 A 
ATOM     18  C   UNL     1       1.194   2.067   0.002  0.00  0.00    +0.019 A 
ATOM     19  C   UNL     1       2.370   1.401  -0.013  0.00  0.00    +0.096 A 
ATOM     20  N   UNL     1       2.400   0.039  -0.021  0.00  0.00    -0.268 N 
ATOM     21  C   UNL     1       1.236  -0.679  -0.013  0.00  0.00    +0.143 A 
ATOM     22  N   UNL     1       1.256  -2.011  -0.021  0.00  0.00    -0.232 NA
ATOM     23  C   UNL     1       2.397  -2.682  -0.035  0.00  0.00    +0.067 A 
ATOM     24  C   UNL     1       3.600  -2.003  -0.043  0.00  0.00    +0.095 A 
ATOM     25  C   UNL     1       3.587  -0.603  -0.036  0.00  0.00    +0.259 A 
ATOM     26  O   UNL     1       4.633   0.026  -0.043  0.00  0.00    -0.267 OA
ENDBRANCH   1  23
TORSDOF 2
