REMARK  Name = ZINC04030391
REMARK  6 active torsions:
REMARK  status: ('A' for Active; 'I' for Inactive)
REMARK    1  A    between atoms: C_1  and  C_2
REMARK    2  A    between atoms: C_3  and  C_27
REMARK    3  A    between atoms: C_4  and  C_21
REMARK    4  A    between atoms: C_10  and  S_12
REMARK    5  A    between atoms: S_12  and  C_13
REMARK    6  A    between atoms: C_13  and  C_14
REMARK                            x       y       z     vdW  Elec       q    Type
REMARK                         _______ _______ _______ _____ _____    ______ ____
ROOT
ATOM      1  C   UNL     1       0.509   1.294  -0.230  0.00  0.00    +0.064 C 
ATOM      2  C   UNL     1       0.309  -0.194  -0.109  0.00  0.00    +0.026 C 
ATOM      3  C   UNL     1      -0.963  -0.696  -0.127  0.00  0.00    +0.061 C 
ATOM      4  C   UNL     1      -1.117  -2.202  -0.003  0.00  0.00    +0.184 C 
ATOM      5  N   UNL     1       0.127  -2.969   0.124  0.00  0.00    -0.186 N 
ATOM      6  C   UNL     1       1.327  -2.297   0.124  0.00  0.00    +0.217 C 
ATOM      7  N   UNL     1       1.369  -0.977   0.005  0.00  0.00    -0.330 N 
ATOM      8  N   UNL     1       2.299  -3.210   0.250  0.00  0.00    -0.190 NA
ATOM      9  C   UNL     1       1.782  -4.423   0.331  0.00  0.00    +0.197 C 
ATOM     10  N   UNL     1       0.418  -4.330   0.257  0.00  0.00    -0.118 NA
ATOM     11  H   UNL     1       2.242  -0.554   0.007  0.00  0.00    +0.168 HD
ENDROOT
BRANCH   4  12
ATOM     12  C   UNL     1      -1.850  -2.701  -1.221  0.00  0.00    +0.068 A 
ATOM     13  C   UNL     1      -1.243  -3.622  -2.054  0.00  0.00    +0.025 A 
ATOM     14  C   UNL     1      -1.925  -4.075  -3.172  0.00  0.00    +0.003 A 
ATOM     15  C   UNL     1      -3.199  -3.582  -3.412  0.00  0.00    +0.020 A 
ATOM     16  C   UNL     1      -3.741  -2.662  -2.535  0.00  0.00    +0.111 A 
ATOM     17  N   UNL     1      -3.065  -2.258  -1.478  0.00  0.00    -0.258 NA
ENDBRANCH   4  12
BRANCH   3  18
ATOM     18  C   UNL     1      -2.081   0.146  -0.254  0.00  0.00    +0.241 C 
ATOM     19  O   UNL     1      -2.781   0.381   0.716  0.00  0.00    -0.271 OA
ATOM     20  N   UNL     1      -2.380   0.695  -1.448  0.00  0.00    -0.325 N 
ATOM     21  H   UNL     1      -1.867   0.452  -2.235  0.00  0.00    +0.145 HD
ATOM     22  H   UNL     1      -3.107   1.332  -1.521  0.00  0.00    +0.145 HD
ENDBRANCH   3  18
BRANCH   9  23
ATOM     23  S   UNL     1       2.698  -5.918   0.506  0.00  0.00    -0.082 S 
BRANCH  23  24
ATOM     24  C   UNL     1       4.427  -5.372   0.542  0.00  0.00    +0.115 C 
BRANCH  24  25
ATOM     25  C   UNL     1       5.329  -6.569   0.691  0.00  0.00    -0.002 A 
ATOM     26  C   UNL     1       5.681  -7.018   1.950  0.00  0.00    +0.007 A 
ATOM     27  C   UNL     1       6.509  -8.117   2.086  0.00  0.00    +0.000 A 
ATOM     28  C   UNL     1       6.986  -8.768   0.963  0.00  0.00    +0.003 A 
ATOM     29  C   UNL     1       6.636  -8.321  -0.296  0.00  0.00    +0.038 A 
ATOM     30  C   UNL     1       5.802  -7.223  -0.434  0.00  0.00    +0.127 A 
ATOM     31  F   UNL     1       5.455  -6.788  -1.665  0.00  0.00    -0.205 F 
ENDBRANCH  24  25
ENDBRANCH  23  24
ENDBRANCH   9  23
TORSDOF 5
