REMARK  Name = ZINC35252676
REMARK  8 active torsions:
REMARK  status: ('A' for Active; 'I' for Inactive)
REMARK    1  A    between atoms: C_1  and  C_2
REMARK    2  A    between atoms: C_4  and  C_8
REMARK    3  A    between atoms: C_5  and  C_7
REMARK    4  A    between atoms: C_8  and  C_10
REMARK    5  A    between atoms: C_8  and  N_11
REMARK    6  A    between atoms: N_11  and  S_12
REMARK    7  A    between atoms: S_12  and  C_15
REMARK    8  A    between atoms: C_17  and  C_20
REMARK                            x       y       z     vdW  Elec       q    Type
REMARK                         _______ _______ _______ _____ _____    ______ ____
ROOT
ATOM      1  N   UNL     1      -3.108  -2.603  -0.582  0.00  0.00    -0.182 NA
ATOM      2  H   UNL     1      -3.287  -1.662  -0.430  0.00  0.00    +0.149 HD
ENDROOT
BRANCH   1   3
ATOM      3  S   UNL     1      -4.155  -3.507  -1.492  0.00  0.00    +0.065 S 
ATOM      4  O   UNL     1      -5.212  -2.639  -1.878  0.00  0.00    -0.153 OA
ATOM      5  O   UNL     1      -3.365  -4.213  -2.439  0.00  0.00    -0.153 OA
BRANCH   3   6
ATOM      6  C   UNL     1      -4.862  -4.718  -0.424  0.00  0.00    +0.143 A 
ATOM      7  C   UNL     1      -5.983  -4.628   0.317  0.00  0.00    +0.051 A 
ATOM      8  C   UNL     1      -6.313  -5.795   1.100  0.00  0.00    +0.072 A 
ATOM      9  C   UNL     1      -5.453  -6.869   1.007  0.00  0.00    +0.062 A 
ATOM     10  S   UNL     1      -4.272  -6.358  -0.069  0.00  0.00    -0.076 S 
BRANCH   8  11
ATOM     11  C   UNL     1      -7.506  -5.836   1.954  0.00  0.00    +0.387 C 
ATOM     12  O   UNL     1      -8.249  -4.866   2.014  0.00  0.00    -0.241 OA
ATOM     13  O   UNL     1      -7.758  -6.842   2.605  0.00  0.00    -0.241 OA
ENDBRANCH   8  11
ENDBRANCH   3   6
ENDBRANCH   1   3
BRANCH   1  14
ATOM     14  C   UNL     1      -1.912  -3.224  -0.008  0.00  0.00    +0.104 C 
ATOM     15  C   UNL     1      -2.206  -3.663   1.428  0.00  0.00    +0.031 C 
BRANCH  14  19
ATOM     16  C   UNL     1      -0.018   1.503   0.010  0.00  0.00    +0.051 C 
ATOM     17  C   UNL     1       0.002  -0.004   0.002  0.00  0.00    -0.013 A 
ATOM     18  C   UNL     1      -1.039  -0.872   0.002  0.00  0.00    +0.016 A 
ATOM     19  C   UNL     1      -0.780  -2.230  -0.007  0.00  0.00    -0.019 A 
ATOM     20  C   UNL     1       0.507  -2.653  -0.016  0.00  0.00    -0.008 A 
ATOM     21  S   UNL     1       1.404  -1.109  -0.018  0.00  0.00    -0.098 S 
ATOM     22  C   UNL     1       1.043  -4.062  -0.027  0.00  0.00    +0.052 C 
ENDBRANCH  14  19
ENDBRANCH   1  14
TORSDOF 5
