REMARK  Name = ZINC07473724
REMARK  9 active torsions:
REMARK  status: ('A' for Active; 'I' for Inactive)
REMARK    1  A    between atoms: C_1  and  C_2
REMARK    2  A    between atoms: C_2  and  C_3
REMARK    3  A    between atoms: C_3  and  N_4
REMARK    4  A    between atoms: C_5  and  C_7
REMARK    5  A    between atoms: C_7  and  C_9
REMARK    6  A    between atoms: C_7  and  N_10
REMARK    7  A    between atoms: C_11  and  C_13
REMARK    8  A    between atoms: C_13  and  N_14
REMARK    9  A    between atoms: C_22  and  C_24
REMARK                            x       y       z     vdW  Elec       q    Type
REMARK                         _______ _______ _______ _____ _____    ______ ____
ROOT
ATOM      1  C   UNL     1       3.407  -6.353   4.621  0.00  0.00    +0.213 C 
ENDROOT
BRANCH   1   2
ATOM      2  N   UNL     1       3.950  -7.687   4.354  0.00  0.00    -0.215 N 
ATOM      3  C   UNL     1       3.284  -8.837   4.587  0.00  0.00    +0.247 C 
ATOM      4  O   UNL     1       2.166  -8.959   5.039  0.00  0.00    -0.273 OA
ATOM      5  C   UNL     1       4.226  -9.941   4.164  0.00  0.00    +0.115 C 
ATOM      6  C   UNL     1       3.613 -10.757   3.031  0.00  0.00    +0.035 C 
ATOM      7  C   UNL     1       2.345 -11.454   3.530  0.00  0.00    +0.003 C 
ATOM      8  C   UNL     1       2.697 -12.368   4.706  0.00  0.00    +0.000 C 
ATOM      9  C   UNL     1       3.291 -11.534   5.843  0.00  0.00    +0.006 C 
ATOM     10  C   UNL     1       4.562 -10.836   5.352  0.00  0.00    +0.018 C 
ATOM     11  C   UNL     1       5.146  -9.985   6.482  0.00  0.00    +0.010 C 
ATOM     12  N   UNL     1       5.423  -9.230   3.699  0.00  0.00    -0.285 N 
ATOM     13  C   UNL     1       5.166  -7.916   3.843  0.00  0.00    +0.310 C 
ATOM     14  O   UNL     1       5.951  -7.037   3.546  0.00  0.00    -0.252 OA
ATOM     15  H   UNL     1       6.237  -9.628   3.353  0.00  0.00    +0.151 HD
ENDBRANCH   1   2
BRANCH   1  17
ATOM     16  N   UNL     1       2.093  -4.639   3.414  0.00  0.00    -0.303 N 
ATOM     17  C   UNL     1       2.678  -5.853   3.400  0.00  0.00    +0.232 C 
ATOM     18  O   UNL     1       2.618  -6.544   2.405  0.00  0.00    -0.274 OA
ATOM     19  H   UNL     1       2.141  -4.087   4.209  0.00  0.00    +0.149 HD
BRANCH  16  20
ATOM     20  C   UNL     1       1.385  -4.154   2.227  0.00  0.00    +0.156 C 
ATOM     21  C   UNL     1      -0.051  -4.684   2.238  0.00  0.00    +0.038 C 
BRANCH  20  23
ATOM     22  N   UNL     1       0.762  -1.976   1.234  0.00  0.00    -0.314 N 
ATOM     23  C   UNL     1       1.364  -2.647   2.235  0.00  0.00    +0.233 C 
ATOM     24  O   UNL     1       1.890  -2.038   3.143  0.00  0.00    -0.274 OA
ATOM     25  H   UNL     1       0.342  -2.462   0.507  0.00  0.00    +0.149 HD
BRANCH  22  26
ATOM     26  C   UNL     1       0.742  -0.511   1.242  0.00  0.00    +0.104 C 
BRANCH  26  28
ATOM     27  C   UNL     1      -0.019   1.526   0.010  0.00  0.00    +0.005 C 
ATOM     28  C   UNL     1       0.002  -0.004   0.002  0.00  0.00    +0.015 C 
ENDBRANCH  26  28
ENDBRANCH  22  26
ENDBRANCH  20  23
ENDBRANCH  16  20
ENDBRANCH   1  17
TORSDOF 6
