REMARK  Name = ZINC32876456
REMARK  7 active torsions:
REMARK  status: ('A' for Active; 'I' for Inactive)
REMARK    1  A    between atoms: C_1  and  C_2
REMARK    2  A    between atoms: C_4  and  C_24
REMARK    3  A    between atoms: N_5  and  C_12
REMARK    4  A    between atoms: C_8  and  C_9
REMARK    5  A    between atoms: C_12  and  C_13
REMARK    6  A    between atoms: N_15  and  C_16
REMARK    7  A    between atoms: C_21  and  C_22
REMARK                            x       y       z     vdW  Elec       q    Type
REMARK                         _______ _______ _______ _____ _____    ______ ____
ROOT
ATOM      1  C   UNL     1      -3.466   3.080   0.065  0.00  0.00    +0.045 C 
ATOM      2  C   UNL     1      -3.344   1.578   0.058  0.00  0.00    -0.031 A 
ATOM      3  C   UNL     1      -2.114   0.967   0.301  0.00  0.00    +0.025 A 
ATOM      4  C   UNL     1      -2.011  -0.387   0.287  0.00  0.00    +0.020 A 
ATOM      5  N   UNL     1      -3.090  -1.170   0.046  0.00  0.00    -0.303 N 
ATOM      6  C   UNL     1      -4.301  -0.632  -0.189  0.00  0.00    +0.264 A 
ATOM      7  O   UNL     1      -5.260  -1.353  -0.405  0.00  0.00    -0.267 OA
ATOM      8  C   UNL     1      -4.458   0.779  -0.186  0.00  0.00    +0.104 A 
ATOM      9  C   UNL     1      -0.673  -1.030   0.545  0.00  0.00    +0.063 C 
ENDROOT
BRANCH   8  10
ATOM     10  C   UNL     1      -5.774   1.386  -0.440  0.00  0.00    +0.247 C 
ATOM     11  O   UNL     1      -5.876   2.593  -0.543  0.00  0.00    -0.270 OA
ATOM     12  N   UNL     1      -6.865   0.604  -0.560  0.00  0.00    -0.325 N 
ATOM     13  H   UNL     1      -7.848   1.058  -0.751  0.00  0.00    +0.145 HD
ATOM     14  H   UNL     1      -6.772  -0.488  -0.467  0.00  0.00    +0.145 HD
ENDBRANCH   8  10
BRANCH   5  15
ATOM     15  C   UNL     1      -2.935  -2.627   0.040  0.00  0.00    +0.221 C 
BRANCH  15  16
ATOM     16  C   UNL     1      -3.170  -3.163   1.429  0.00  0.00    +0.237 C 
ATOM     17  O   UNL     1      -3.440  -2.402   2.335  0.00  0.00    -0.274 OA
ATOM     18  N   UNL     1      -3.081  -4.487   1.665  0.00  0.00    -0.284 N 
ATOM     19  H   UNL     1      -2.939  -5.186   0.828  0.00  0.00    +0.155 HD
BRANCH  18  20
ATOM     20  C   UNL     1      -3.168  -4.971   2.975  0.00  0.00    +0.036 A 
ATOM     21  C   UNL     1      -2.952  -4.117   4.049  0.00  0.00    +0.024 A 
ATOM     22  C   UNL     1      -3.039  -4.598   5.340  0.00  0.00    +0.017 A 
ATOM     23  C   UNL     1      -3.341  -5.930   5.565  0.00  0.00    +0.018 A 
ATOM     24  C   UNL     1      -3.557  -6.783   4.498  0.00  0.00    +0.020 A 
ATOM     25  C   UNL     1      -3.477  -6.306   3.204  0.00  0.00    -0.028 A 
ATOM     26  C   UNL     1      -3.718  -7.234   2.041  0.00  0.00    +0.046 C 
ATOM     27 BR   UNL     1      -3.458  -6.585   7.335  0.00  0.00    -0.050 Br
ENDBRANCH  18  20
ENDBRANCH  15  16
ENDBRANCH   5  15
TORSDOF 4
