REMARK  Name = ZINC46011039
REMARK  10 active torsions:
REMARK  status: ('A' for Active; 'I' for Inactive)
REMARK    1  A    between atoms: C_1  and  C_2
REMARK    2  A    between atoms: C_2  and  C_4
REMARK    3  A    between atoms: C_2  and  N_14
REMARK    4  A    between atoms: C_8  and  O_10
REMARK    5  A    between atoms: O_10  and  C_11
REMARK    6  A    between atoms: C_11  and  C_12
REMARK    7  A    between atoms: C_11  and  C_13
REMARK    8  A    between atoms: N_17  and  C_18
REMARK    9  A    between atoms: C_23  and  C_24
REMARK   10  A    between atoms: C_24  and  C_25
REMARK                            x       y       z     vdW  Elec       q    Type
REMARK                         _______ _______ _______ _____ _____    ______ ____
ROOT
ATOM      1  N   UNL     1      -0.720  -0.287   0.686  0.00  0.00    -0.293 N 
ATOM      2  C   UNL     1      -1.385  -0.397  -0.482  0.00  0.00    +0.304 C 
ATOM      3  O   UNL     1      -0.821  -0.143  -1.528  0.00  0.00    -0.252 OA
ATOM      4  N   UNL     1      -2.674  -0.789  -0.489  0.00  0.00    -0.269 N 
ATOM      5  H   UNL     1      -1.170  -0.490   1.521  0.00  0.00    +0.151 HD
ATOM      6  H   UNL     1      -3.143  -0.931   0.348  0.00  0.00    +0.156 HD
ENDROOT
BRANCH   4   7
ATOM      7  C   UNL     1      -3.337  -0.992  -1.705  0.00  0.00    +0.038 A 
ATOM      8  C   UNL     1      -3.043  -0.190  -2.800  0.00  0.00    +0.023 A 
ATOM      9  C   UNL     1      -3.698  -0.392  -3.998  0.00  0.00    +0.002 A 
ATOM     10  C   UNL     1      -4.647  -1.393  -4.109  0.00  0.00    +0.000 A 
ATOM     11  C   UNL     1      -4.942  -2.193  -3.020  0.00  0.00    +0.006 A 
ATOM     12  C   UNL     1      -4.286  -1.999  -1.821  0.00  0.00    -0.017 A 
BRANCH  12  13
ATOM     13  C   UNL     1      -4.604  -2.875  -0.637  0.00  0.00    +0.132 C 
BRANCH  13  14
ATOM     14  C   UNL     1      -5.638  -2.199   0.226  0.00  0.00    +0.215 C 
ATOM     15  O   UNL     1      -6.074  -1.112  -0.090  0.00  0.00    -0.276 OA
ATOM     16  N   UNL     1      -6.078  -2.802   1.348  0.00  0.00    -0.329 N 
ATOM     17  H   UNL     1      -5.729  -3.671   1.600  0.00  0.00    +0.145 HD
ATOM     18  H   UNL     1      -6.744  -2.366   1.903  0.00  0.00    +0.145 HD
ENDBRANCH  13  14
ENDBRANCH  12  13
ENDBRANCH   4   7
BRANCH   1  20
ATOM     19  C   UNL     1       0.750   1.667   0.680  0.00  0.00    +0.033 C 
ATOM     20  C   UNL     1       0.681   0.139   0.694  0.00  0.00    +0.102 C 
BRANCH  20  21
ATOM     21  C   UNL     1       1.358  -0.383   1.935  0.00  0.00    -0.024 A 
ATOM     22  C   UNL     1       0.683  -0.381   3.143  0.00  0.00    +0.006 A 
ATOM     23  C   UNL     1       1.301  -0.859   4.283  0.00  0.00    +0.004 A 
ATOM     24  C   UNL     1       2.594  -1.339   4.220  0.00  0.00    +0.045 A 
ATOM     25  C   UNL     1       3.273  -1.343   3.010  0.00  0.00    +0.121 A 
ATOM     26  C   UNL     1       2.649  -0.868   1.866  0.00  0.00    +0.051 A 
BRANCH  25  27
ATOM     27  O   UNL     1       4.546  -1.815   2.946  0.00  0.00    -0.489 OA
BRANCH  27  28
ATOM     28  C   UNL     1       5.136  -1.913   1.648  0.00  0.00    +0.167 C 
ATOM     29  C   UNL     1       5.933  -0.641   1.353  0.00  0.00    +0.051 C 
ATOM     30  C   UNL     1       6.072  -3.123   1.603  0.00  0.00    +0.051 C 
ENDBRANCH  27  28
ENDBRANCH  25  27
ENDBRANCH  20  21
ENDBRANCH   1  20
TORSDOF 7
