REMARK  Name = ZINC63808365
REMARK  2 active torsions:
REMARK  status: ('A' for Active; 'I' for Inactive)
REMARK    1  A    between atoms: C_1  and  C_2
REMARK    2  A    between atoms: C_6  and  C_23
REMARK                            x       y       z     vdW  Elec       q    Type
REMARK                         _______ _______ _______ _____ _____    ______ ____
ROOT
ATOM      1  C   UNL     1      -0.019   1.526   0.010  0.00  0.00    +0.026 C 
ATOM      2  C   UNL     1       0.002  -0.004   0.002  0.00  0.00    +0.077 C 
ATOM      3  C   UNL     1      -1.422  -0.572   0.086  0.00  0.00    +0.055 C 
ATOM      4  C   UNL     1      -2.113  -0.844  -1.240  0.00  0.00    +0.042 C 
ATOM      5  C   UNL     1      -3.470  -1.484  -0.908  0.00  0.00    +0.104 C 
ATOM      6  C   UNL     1      -3.383  -2.452   0.233  0.00  0.00    +0.215 C 
ATOM      7  O   UNL     1      -4.364  -3.124   0.474  0.00  0.00    -0.276 OA
ATOM      8  N   UNL     1      -2.297  -2.633   1.012  0.00  0.00    -0.295 N 
ATOM      9  C   UNL     1      -1.071  -1.968   0.680  0.00  0.00    +0.183 C 
ATOM     10  N   UNL     1      -0.069  -1.653   1.674  0.00  0.00    -0.228 N 
ATOM     11  N   UNL     1       0.624  -0.535   1.249  0.00  0.00    -0.234 NA
ATOM     12  C   UNL     1       0.159  -2.356   2.857  0.00  0.00    +0.157 A 
ATOM     13  C   UNL     1       1.175  -1.934   3.737  0.00  0.00    +0.052 A 
ATOM     14  C   UNL     1       1.395  -2.619   4.890  0.00  0.00    +0.075 A 
ATOM     15  C   UNL     1       0.601  -3.745   5.186  0.00  0.00    +0.265 A 
ATOM     16  O   UNL     1       0.784  -4.373   6.217  0.00  0.00    -0.266 OA
ATOM     17  N   UNL     1      -0.364  -4.124   4.324  0.00  0.00    -0.241 N 
ATOM     18  N   UNL     1      -0.578  -3.401   3.144  0.00  0.00    -0.155 NA
ATOM     19  H   UNL     1      -2.345  -3.201   1.797  0.00  0.00    +0.151 HD
ATOM     20  H   UNL     1       0.649   0.171   1.970  0.00  0.00    +0.145 HD
ATOM     21  H   UNL     1      -0.913  -4.898   4.523  0.00  0.00    +0.192 HD
ENDROOT
BRANCH   4  22
ATOM     22  C   UNL     1      -2.318   0.448  -1.988  0.00  0.00    +0.039 A 
ATOM     23  C   UNL     1      -1.771   0.620  -3.205  0.00  0.00    +0.203 A 
ATOM     24  O   UNL     1      -1.919   1.743  -3.915  0.00  0.00    -0.462 OA
ATOM     25  C   UNL     1      -2.632   2.795  -3.463  0.00  0.00    +0.138 A 
ATOM     26  C   UNL     1      -2.767   3.949  -4.226  0.00  0.00    +0.047 A 
ATOM     27  C   UNL     1      -3.502   5.010  -3.743  0.00  0.00    +0.004 A 
ATOM     28  C   UNL     1      -4.111   4.942  -2.498  0.00  0.00    +0.001 A 
ATOM     29  C   UNL     1      -3.989   3.808  -1.726  0.00  0.00    +0.015 A 
ATOM     30  C   UNL     1      -3.249   2.727  -2.204  0.00  0.00    +0.064 A 
ATOM     31  C   UNL     1      -3.096   1.489  -1.416  0.00  0.00    +0.196 A 
ATOM     32  O   UNL     1      -3.611   1.367  -0.318  0.00  0.00    -0.287 OA
ENDBRANCH   4  22
TORSDOF 1
