REMARK  Name = ZINC48779260
REMARK  4 active torsions:
REMARK  status: ('A' for Active; 'I' for Inactive)
REMARK    1  A    between atoms: C_1  and  C_2
REMARK    2  A    between atoms: C_6  and  C_7
REMARK    3  A    between atoms: N_9  and  N_10
REMARK    4  A    between atoms: C_11  and  C_13
REMARK                            x       y       z     vdW  Elec       q    Type
REMARK                         _______ _______ _______ _____ _____    ______ ____
ROOT
ATOM      1  C   UNL     1       0.031  -0.395   2.494  0.00  0.00    +0.296 C 
ATOM      2  O   UNL     1       0.017   0.792   2.767  0.00  0.00    -0.265 OA
ATOM      3  N   UNL     1       0.053  -1.312   3.481  0.00  0.00    -0.228 N 
ATOM      4  H   UNL     1       0.064  -2.258   3.264  0.00  0.00    +0.173 HD
ENDROOT
BRANCH   1  10
ATOM      5  C   UNL     1      -0.018   1.503   0.010  0.00  0.00    +0.048 C 
ATOM      6  C   UNL     1       0.002  -0.004   0.002  0.00  0.00    +0.001 A 
ATOM      7  C   UNL     1       0.009  -0.835  -1.128  0.00  0.00    +0.061 A 
ATOM      8  C   UNL     1       0.028  -2.113  -0.683  0.00  0.00    +0.171 A 
ATOM      9  O   UNL     1       0.033  -2.102   0.656  0.00  0.00    -0.443 OA
ATOM     10  C   UNL     1       0.024  -0.825   1.094  0.00  0.00    +0.195 A 
ATOM     11 BR   UNL     1       0.044  -3.658  -1.772  0.00  0.00    -0.008 Br
ENDBRANCH   1  10
BRANCH   3  12
ATOM     12  N   UNL     1       0.060  -0.901   4.821  0.00  0.00    -0.232 N 
ATOM     13  C   UNL     1       0.082  -1.819   5.807  0.00  0.00    +0.258 C 
ATOM     14  O   UNL     1       0.095  -3.001   5.536  0.00  0.00    -0.271 OA
ATOM     15  H   UNL     1       0.049   0.044   5.038  0.00  0.00    +0.173 HD
BRANCH  13  16
ATOM     16  C   UNL     1       0.089  -1.376   7.248  0.00  0.00    +0.205 C 
ATOM     17  C   UNL     1       1.400  -0.622   7.557  0.00  0.00    +0.043 C 
ATOM     18  C   UNL     1       1.742  -1.126   8.986  0.00  0.00    +0.031 C 
ATOM     19  C   UNL     1       1.222  -2.584   8.915  0.00  0.00    +0.161 C 
ATOM     20  O   UNL     1       0.033  -2.520   8.108  0.00  0.00    -0.367 OA
ENDBRANCH  13  16
ENDBRANCH   3  12
TORSDOF 3
