REMARK  Name = ZINC48006297
REMARK  4 active torsions:
REMARK  status: ('A' for Active; 'I' for Inactive)
REMARK    1  A    between atoms: C_6  and  C_23
REMARK    2  A    between atoms: C_7  and  N_9
REMARK    3  A    between atoms: C_10  and  C_12
REMARK    4  A    between atoms: C_17  and  C_20
REMARK                            x       y       z     vdW  Elec       q    Type
REMARK                         _______ _______ _______ _____ _____    ______ ____
ROOT
ATOM      1  N   UNL     1       1.754  -3.316   3.485  0.00  0.00    -0.271 N 
ATOM      2  C   UNL     1       2.804  -3.523   4.305  0.00  0.00    +0.304 C 
ATOM      3  O   UNL     1       3.668  -2.676   4.410  0.00  0.00    -0.265 OA
ATOM      4  H   UNL     1       1.064  -3.992   3.401  0.00  0.00    +0.156 HD
ENDROOT
BRANCH   1  11
ATOM      5  C   UNL     1      -0.005   1.637   0.145  0.00  0.00    +0.005 C 
ATOM      6  C   UNL     1       1.462   1.953  -0.162  0.00  0.00    +0.005 C 
ATOM      7  C   UNL     1       2.305   1.632   1.081  0.00  0.00    +0.043 C 
ATOM      8  C   UNL     1       1.915   0.275   1.580  0.00  0.00    -0.004 A 
ATOM      9  C   UNL     1       0.815  -0.436   1.242  0.00  0.00    -0.018 A 
ATOM     10  C   UNL     1       0.672  -1.736   1.874  0.00  0.00    +0.084 A 
ATOM     11  C   UNL     1       1.662  -2.138   2.763  0.00  0.00    +0.090 A 
ATOM     12  S   UNL     1       2.782  -0.750   2.736  0.00  0.00    -0.077 S 
ATOM     13  C   UNL     1      -0.200   0.124   0.249  0.00  0.00    +0.037 C 
BRANCH  10  14
ATOM     14  C   UNL     1      -0.453  -2.576   1.590  0.00  0.00    +0.102 C 
ATOM     15  N   UNL     1      -1.345  -3.243   1.365  0.00  0.00    -0.191 NA
ENDBRANCH  10  14
ENDBRANCH   1  11
BRANCH   2  16
ATOM     16  C   UNL     1       2.904  -4.792   5.084  0.00  0.00    +0.302 C 
ATOM     17  O   UNL     1       2.109  -5.688   4.889  0.00  0.00    -0.265 OA
ATOM     18  N   UNL     1       3.877  -4.943   6.004  0.00  0.00    -0.294 N 
ATOM     19  C   UNL     1       4.112  -6.248   6.638  0.00  0.00    +0.109 C 
ATOM     20  C   UNL     1       4.075  -6.071   8.159  0.00  0.00    +0.032 C 
ATOM     21  C   UNL     1       5.074  -4.985   8.567  0.00  0.00    +0.078 C 
ATOM     22  C   UNL     1       4.679  -3.657   7.916  0.00  0.00    +0.032 C 
ATOM     23  C   UNL     1       4.727  -3.808   6.388  0.00  0.00    +0.109 C 
BRANCH  21  24
ATOM     24  C   UNL     1       5.064  -4.832  10.066  0.00  0.00    +0.214 C 
ATOM     25  O   UNL     1       4.332  -5.524  10.742  0.00  0.00    -0.276 OA
ATOM     26  N   UNL     1       5.870  -3.928  10.656  0.00  0.00    -0.329 N 
ATOM     27  H   UNL     1       6.456  -3.375  10.116  0.00  0.00    +0.145 HD
ATOM     28  H   UNL     1       5.865  -3.829  11.621  0.00  0.00    +0.145 HD
ENDBRANCH  21  24
ENDBRANCH   2  16
TORSDOF 4
