REMARK  Name = ZINC38106561
REMARK  3 active torsions:
REMARK  status: ('A' for Active; 'I' for Inactive)
REMARK    1  A    between atoms: C_7  and  N_12
REMARK    2  A    between atoms: N_12  and  S_13
REMARK    3  A    between atoms: S_13  and  C_16
REMARK                            x       y       z     vdW  Elec       q    Type
REMARK                         _______ _______ _______ _____ _____    ______ ____
ROOT
ATOM      1  N   UNL     1      -0.048  -2.624   0.725  0.00  0.00    -0.183 NA
ATOM      2  H   UNL     1      -0.088  -2.411   1.670  0.00  0.00    +0.149 HD
ENDROOT
BRANCH   1   9
ATOM      3  C   UNL     1       0.507   1.379   0.324  0.00  0.00    +0.000 A 
ATOM      4  C   UNL     1       1.778   1.925   0.355  0.00  0.00    +0.001 A 
ATOM      5  C   UNL     1       2.875   1.095   0.278  0.00  0.00    +0.015 A 
ATOM      6  C   UNL     1       2.713  -0.286   0.163  0.00  0.00    +0.013 A 
ATOM      7  C   UNL     1       1.445  -0.834   0.117  0.00  0.00    -0.015 A 
ATOM      8  C   UNL     1       0.344   0.016   0.208  0.00  0.00    +0.006 A 
ATOM      9  C   UNL     1       1.153  -2.296  -0.049  0.00  0.00    +0.108 C 
ATOM     10  C   UNL     1       2.284  -3.200   0.408  0.00  0.00    +0.036 C 
ATOM     11  C   UNL     1       3.533  -2.907  -0.435  0.00  0.00    +0.076 C 
ATOM     12  S   UNL     1       4.166  -1.286   0.090  0.00  0.00    -0.125 S 
ENDBRANCH   1   9
BRANCH   1  13
ATOM     13  S   UNL     1      -1.334  -3.358  -0.015  0.00  0.00    +0.059 S 
ATOM     14  O   UNL     1      -2.319  -3.561   0.989  0.00  0.00    -0.153 OA
ATOM     15  O   UNL     1      -1.596  -2.620  -1.201  0.00  0.00    -0.153 OA
BRANCH  13  16
ATOM     16  C   UNL     1      -0.799  -4.957  -0.526  0.00  0.00    +0.110 A 
ATOM     17  C   UNL     1      -0.232  -5.150  -1.777  0.00  0.00    +0.048 A 
ATOM     18  C   UNL     1       0.176  -6.418  -2.144  0.00  0.00    +0.114 A 
ATOM     19  N   UNL     1       0.032  -7.438  -1.320  0.00  0.00    -0.243 NA
ATOM     20  C   UNL     1      -0.503  -7.292  -0.122  0.00  0.00    +0.131 A 
ATOM     21  C   UNL     1      -0.929  -6.051   0.315  0.00  0.00    +0.068 A 
ATOM     22 CL   UNL     1      -0.667  -8.672   0.918  0.00  0.00    -0.062 Cl
ENDBRANCH  13  16
ENDBRANCH   1  13
TORSDOF 3
