REMARK  Name = ZINC39665909
REMARK  9 active torsions:
REMARK  status: ('A' for Active; 'I' for Inactive)
REMARK    1  A    between atoms: C_1  and  C_2
REMARK    2  A    between atoms: C_5  and  O_8
REMARK    3  A    between atoms: O_8  and  C_9
REMARK    4  A    between atoms: C_9  and  C_11
REMARK    5  A    between atoms: C_9  and  C_12
REMARK    6  A    between atoms: C_12  and  N_13
REMARK    7  A    between atoms: C_14  and  C_16
REMARK    8  A    between atoms: C_27  and  C_29
REMARK    9  A    between atoms: C_34  and  C_35
REMARK                            x       y       z     vdW  Elec       q    Type
REMARK                         _______ _______ _______ _____ _____    ______ ____
ROOT
ATOM      1  C   UNL     1      -4.407  -6.830   0.186  0.00  0.00    +0.100 C 
ATOM      2  C   UNL     1      -4.832  -5.869   1.319  0.00  0.00    +0.121 C 
ATOM      3  N   UNL     1      -6.175  -6.344   1.728  0.00  0.00    -0.296 N 
ATOM      4  C   UNL     1      -6.073  -7.823   1.680  0.00  0.00    +0.115 C 
ATOM      5  C   UNL     1      -5.223  -8.111   0.427  0.00  0.00    -0.004 C 
ATOM      6  C   UNL     1      -4.290  -9.291   0.682  0.00  0.00    -0.010 C 
ATOM      7  C   UNL     1      -5.123 -10.564   0.861  0.00  0.00    -0.082 C 
ATOM      8  N   UNL     1      -5.925 -10.800  -0.346  0.00  0.00    +0.379 N 
ATOM      9  C   UNL     1      -6.883  -9.704  -0.532  0.00  0.00    -0.082 C 
ATOM     10  C   UNL     1      -6.125  -8.395  -0.770  0.00  0.00    -0.010 C 
ATOM     11  C   UNL     1      -7.246  -5.601   2.067  0.00  0.00    +0.247 C 
ATOM     12  O   UNL     1      -8.311  -6.139   2.300  0.00  0.00    -0.270 OA
ATOM     13  H   UNL     1      -5.315 -10.852  -1.148  0.00  0.00    -0.086 HD
ATOM     14  H   UNL     1      -6.425 -11.671  -0.250  0.00  0.00    -0.086 HD
ENDROOT
BRANCH  11  15
ATOM     15  C   UNL     1      -7.127  -4.130   2.156  0.00  0.00    +0.040 A 
ATOM     16  C   UNL     1      -5.960  -3.550   2.657  0.00  0.00    +0.013 A 
ATOM     17  C   UNL     1      -5.854  -2.177   2.737  0.00  0.00    +0.001 A 
ATOM     18  C   UNL     1      -6.903  -1.375   2.323  0.00  0.00    +0.000 A 
ATOM     19  C   UNL     1      -8.062  -1.942   1.825  0.00  0.00    +0.004 A 
ATOM     20  C   UNL     1      -8.178  -3.314   1.734  0.00  0.00    -0.038 A 
ATOM     21  C   UNL     1      -9.439  -3.931   1.187  0.00  0.00    +0.044 C 
ENDBRANCH  11  15
BRANCH   1  23
ATOM     22  N   UNL     1      -2.232  -7.401  -0.846  0.00  0.00    -0.312 N 
ATOM     23  C   UNL     1      -2.931  -7.123   0.273  0.00  0.00    +0.218 C 
ATOM     24  O   UNL     1      -2.373  -7.110   1.349  0.00  0.00    -0.275 OA
ATOM     25  H   UNL     1      -2.679  -7.412  -1.707  0.00  0.00    +0.149 HD
BRANCH  22  26
ATOM     26  C   UNL     1      -0.798  -7.686  -0.761  0.00  0.00    +0.148 C 
BRANCH  26  27
ATOM     27  C   UNL     1      -0.250  -7.966  -2.162  0.00  0.00    +0.187 C 
ATOM     28  C   UNL     1       1.248  -8.264  -2.073  0.00  0.00    +0.053 C 
BRANCH  27  29
ATOM     29  O   UNL     1      -0.927  -9.093  -2.722  0.00  0.00    -0.488 OA
BRANCH  29  34
ATOM     30  C   UNL     1      -1.035  -9.478  -8.340  0.00  0.00    +0.044 C 
ATOM     31  C   UNL     1      -1.007  -9.374  -6.837  0.00  0.00    -0.050 A 
ATOM     32  C   UNL     1      -0.417  -8.280  -6.231  0.00  0.00    +0.007 A 
ATOM     33  C   UNL     1      -0.389  -8.184  -4.854  0.00  0.00    +0.046 A 
ATOM     34  C   UNL     1      -0.954  -9.185  -4.077  0.00  0.00    +0.121 A 
ATOM     35  C   UNL     1      -1.546 -10.282  -4.688  0.00  0.00    +0.046 A 
ATOM     36  C   UNL     1      -1.575 -10.371  -6.066  0.00  0.00    +0.007 A 
ENDBRANCH  29  34
ENDBRANCH  27  29
ENDBRANCH  26  27
ENDBRANCH  22  26
ENDBRANCH   1  23
TORSDOF 6
