REMARK  Name = ZINC33343267
REMARK  8 active torsions:
REMARK  status: ('A' for Active; 'I' for Inactive)
REMARK    1  A    between atoms: C_1  and  C_2
REMARK    2  A    between atoms: C_4  and  C_17
REMARK    3  A    between atoms: C_5  and  C_16
REMARK    4  A    between atoms: N_6  and  C_7
REMARK    5  A    between atoms: C_10  and  N_13
REMARK    6  A    between atoms: N_13  and  C_14
REMARK    7  A    between atoms: N_13  and  C_15
REMARK    8  A    between atoms: N_24  and  C_27
REMARK                            x       y       z     vdW  Elec       q    Type
REMARK                         _______ _______ _______ _____ _____    ______ ____
ROOT
ATOM      1  C   UNL     1       1.260  -4.698  -1.506  0.00  0.00    +0.028 C 
ATOM      2  C   UNL     1       0.706  -4.821  -2.775  0.00  0.00    +0.102 C 
ATOM      3  C   UNL     1       0.938  -6.013  -3.601  0.00  0.00    +0.276 C 
ATOM      4  O   UNL     1       1.701  -7.030  -3.148  0.00  0.00    -0.268 OA
ATOM      5  N   UNL     1       0.381  -6.068  -4.800  0.00  0.00    -0.123 NA
ATOM      6  C   UNL     1      -0.376  -5.082  -5.273  0.00  0.00    +0.340 C 
ATOM      7  O   UNL     1      -0.855  -5.206  -6.386  0.00  0.00    -0.250 OA
ATOM      8  N   UNL     1      -0.641  -3.958  -4.590  0.00  0.00    -0.188 N 
ATOM      9  C   UNL     1      -0.146  -3.763  -3.349  0.00  0.00    +0.264 C 
ATOM     10  O   UNL     1      -0.391  -2.746  -2.727  0.00  0.00    -0.269 OA
ENDROOT
BRANCH   1  14
ATOM     11  C   UNL     1       1.353   0.233  -0.431  0.00  0.00    +0.064 C 
ATOM     12  C   UNL     1       1.216  -1.266  -0.343  0.00  0.00    +0.022 A 
ATOM     13  C   UNL     1       1.417  -2.125  -1.355  0.00  0.00    +0.031 A 
ATOM     14  C   UNL     1       1.172  -3.470  -0.813  0.00  0.00    -0.003 A 
ATOM     15  C   UNL     1       0.834  -3.284   0.522  0.00  0.00    +0.028 A 
ATOM     16  N   UNL     1       0.873  -1.965   0.781  0.00  0.00    -0.317 N 
ATOM     17  C   UNL     1       0.492  -4.371   1.508  0.00  0.00    +0.064 C 
BRANCH  16  18
ATOM     18  C   UNL     1       0.596  -1.387   2.029  0.00  0.00    +0.047 A 
ATOM     19  C   UNL     1       1.429  -1.638   3.111  0.00  0.00    +0.028 A 
ATOM     20  C   UNL     1       1.156  -1.070   4.339  0.00  0.00    +0.025 A 
ATOM     21  C   UNL     1       0.048  -0.246   4.492  0.00  0.00    +0.029 A 
ATOM     22  C   UNL     1      -0.785   0.006   3.409  0.00  0.00    +0.025 A 
ATOM     23  C   UNL     1      -0.509  -0.559   2.180  0.00  0.00    +0.028 A 
BRANCH  21  24
ATOM     24  N   UNL     1      -0.229   0.330   5.736  0.00  0.00    -0.336 N 
ATOM     25  C   UNL     1       0.717   0.170   6.843  0.00  0.00    +0.129 C 
ATOM     26  C   UNL     1      -1.464   1.093   5.931  0.00  0.00    +0.129 C 
ENDBRANCH  21  24
ENDBRANCH  16  18
ENDBRANCH   1  14
BRANCH   8  27
ATOM     27  C   UNL     1      -1.450  -2.972  -5.172  0.00  0.00    +0.046 A 
ATOM     28  C   UNL     1      -0.910  -1.739  -5.509  0.00  0.00    +0.027 A 
ATOM     29  C   UNL     1      -1.708  -0.769  -6.082  0.00  0.00    +0.040 A 
ATOM     30  C   UNL     1      -3.048  -1.027  -6.322  0.00  0.00    +0.124 A 
ATOM     31  C   UNL     1      -3.589  -2.256  -5.988  0.00  0.00    +0.040 A 
ATOM     32  C   UNL     1      -2.792  -3.231  -5.418  0.00  0.00    +0.027 A 
ATOM     33  F   UNL     1      -3.828  -0.077  -6.883  0.00  0.00    -0.205 F 
ENDBRANCH   8  27
TORSDOF 4
