REMARK  Name = ZINC38675383
REMARK  6 active torsions:
REMARK  status: ('A' for Active; 'I' for Inactive)
REMARK    1  A    between atoms: C_1  and  N_2
REMARK    2  A    between atoms: C_6  and  C_7
REMARK    3  A    between atoms: C_7  and  C_9
REMARK    4  A    between atoms: C_7  and  N_21
REMARK    5  A    between atoms: C_9  and  N_10
REMARK    6  A    between atoms: N_13  and  C_14
REMARK                            x       y       z     vdW  Elec       q    Type
REMARK                         _______ _______ _______ _____ _____    ______ ____
ROOT
ATOM      1  C   UNL     1      -0.835   0.550   3.032  0.00  0.00    +0.096 C 
ENDROOT
BRANCH   1   2
ATOM      2  N   UNL     1      -1.944  -0.302   3.469  0.00  0.00    -0.300 N 
ATOM      3  C   UNL     1      -3.090   0.257   3.908  0.00  0.00    +0.304 C 
ATOM      4  O   UNL     1      -3.202   1.467   3.942  0.00  0.00    -0.253 OA
ATOM      5  N   UNL     1      -4.110  -0.527   4.310  0.00  0.00    -0.269 N 
ATOM      6  H   UNL     1      -1.854  -1.267   3.442  0.00  0.00    +0.150 HD
ATOM      7  H   UNL     1      -3.995  -1.489   4.354  0.00  0.00    +0.156 HD
BRANCH   5   8
ATOM      8  C   UNL     1      -5.336   0.049   4.665  0.00  0.00    +0.035 A 
ATOM      9  C   UNL     1      -6.099  -0.512   5.681  0.00  0.00    +0.025 A 
ATOM     10  C   UNL     1      -7.308   0.057   6.029  0.00  0.00    +0.022 A 
ATOM     11  C   UNL     1      -7.760   1.185   5.367  0.00  0.00    +0.041 A 
ATOM     12  C   UNL     1      -7.001   1.746   4.354  0.00  0.00    +0.022 A 
ATOM     13  C   UNL     1      -5.788   1.184   4.006  0.00  0.00    +0.025 A 
ATOM     14 CL   UNL     1      -9.280   1.899   5.807  0.00  0.00    -0.084 Cl
ENDBRANCH   5   8
ENDBRANCH   1   2
BRANCH   1  15
ATOM     15  C   UNL     1       0.290  -0.325   2.474  0.00  0.00    -0.003 C 
BRANCH  15  21
ATOM     16  C   UNL     1      -0.625   0.987  -0.182  0.00  0.00    +0.148 C 
ATOM     17  N   UNL     1      -0.596  -0.454   0.079  0.00  0.00    -0.355 N 
ATOM     18  C   UNL     1      -0.958  -1.428  -0.803  0.00  0.00    +0.085 A 
ATOM     19  C   UNL     1      -0.795  -2.624  -0.202  0.00  0.00    +0.019 A 
ATOM     20  C   UNL     1      -0.313  -2.379   1.100  0.00  0.00    +0.021 A 
ATOM     21  C   UNL     1      -0.196  -1.043   1.242  0.00  0.00    +0.006 A 
ENDBRANCH  15  21
BRANCH  15  22
ATOM     22  N   UNL     1       0.693  -1.309   3.488  0.00  0.00    +0.386 N 
ATOM     23  C   UNL     1       1.894  -2.053   3.030  0.00  0.00    -0.078 C 
ATOM     24  C   UNL     1       2.502  -2.591   4.349  0.00  0.00    -0.020 C 
ATOM     25  C   UNL     1       2.256  -1.431   5.341  0.00  0.00    -0.020 C 
ATOM     26  C   UNL     1       1.095  -0.622   4.734  0.00  0.00    -0.078 C 
ATOM     27  H   UNL     1      -0.065  -1.949   3.672  0.00  0.00    -0.081 HD
ENDBRANCH  15  22
ENDBRANCH   1  15
TORSDOF 5
