REMARK  Name = ZINC45648473
REMARK  3 active torsions:
REMARK  status: ('A' for Active; 'I' for Inactive)
REMARK    1  A    between atoms: C_3  and  C_8
REMARK    2  A    between atoms: C_8  and  N_9
REMARK    3  A    between atoms: C_16  and  C_19
REMARK                            x       y       z     vdW  Elec       q    Type
REMARK                         _______ _______ _______ _____ _____    ______ ____
ROOT
ATOM      1  N   UNL     1       4.264   1.392  -2.415  0.00  0.00    -0.299 N 
ATOM      2  C   UNL     1       5.499   1.816  -2.748  0.00  0.00    +0.302 C 
ATOM      3  O   UNL     1       6.000   2.754  -2.158  0.00  0.00    -0.253 OA
ATOM      4  N   UNL     1       6.179   1.201  -3.736  0.00  0.00    -0.280 N 
ATOM      5  C   UNL     1       7.572   1.566  -4.038  0.00  0.00    +0.137 C 
ATOM      6  C   UNL     1       7.687   1.829  -5.544  0.00  0.00    +0.180 C 
ATOM      7  O   UNL     1       7.155   0.711  -6.259  0.00  0.00    -0.362 OA
ATOM      8  C   UNL     1       5.764   0.476  -6.025  0.00  0.00    +0.248 C 
ATOM      9  C   UNL     1       5.552   0.140  -4.540  0.00  0.00    +0.152 C 
ATOM     10  H   UNL     1       3.835   0.692  -2.932  0.00  0.00    +0.150 HD
ENDROOT
BRANCH   8  11
ATOM     11  C   UNL     1       5.300  -0.680  -6.873  0.00  0.00    +0.386 C 
ATOM     12  O   UNL     1       6.104  -1.309  -7.540  0.00  0.00    -0.243 OA
ATOM     13  O   UNL     1       4.120  -0.987  -6.892  0.00  0.00    -0.243 OA
ENDBRANCH   8  11
BRANCH   1  14
ATOM     14  C   UNL     1       3.569   1.988  -1.271  0.00  0.00    +0.109 C 
BRANCH  14  17
ATOM     15  C   UNL     1      -0.013   1.487   0.020  0.00  0.00    +0.027 C 
ATOM     16  C   UNL     1       1.415   2.038   0.006  0.00  0.00    +0.009 C 
ATOM     17  C   UNL     1       2.196   1.333  -1.111  0.00  0.00    +0.010 C 
ATOM     18  C   UNL     1       2.365  -0.139  -0.728  0.00  0.00    +0.032 C 
ATOM     19  C   UNL     1       1.045  -0.721  -0.315  0.00  0.00    -0.031 C 
ATOM     20  C   UNL     1       0.012  -0.014   0.015  0.00  0.00    -0.031 C 
ENDBRANCH  14  17
ENDBRANCH   1  14
TORSDOF 3
