REMARK  Name = ZINC02908849
REMARK  5 active torsions:
REMARK  status: ('A' for Active; 'I' for Inactive)
REMARK    1  A    between atoms: C_2  and  C_3
REMARK    2  A    between atoms: C_3  and  N_4
REMARK    3  A    between atoms: N_4  and  S_5
REMARK    4  A    between atoms: S_5  and  C_8
REMARK    5  A    between atoms: C_11  and  N_14
REMARK                            x       y       z     vdW  Elec       q    Type
REMARK                         _______ _______ _______ _____ _____    ______ ____
ROOT
ATOM      1  C   UNL     1      -4.022  -2.184  -1.281  0.00  0.00    +0.105 A 
ATOM      2  C   UNL     1      -4.716  -1.866  -0.129  0.00  0.00    +0.030 A 
ATOM      3  C   UNL     1      -5.966  -1.284  -0.213  0.00  0.00    +0.026 A 
ATOM      4  C   UNL     1      -6.525  -1.018  -1.456  0.00  0.00    +0.045 A 
ATOM      5  C   UNL     1      -5.825  -1.339  -2.611  0.00  0.00    +0.026 A 
ATOM      6  C   UNL     1      -4.573  -1.916  -2.521  0.00  0.00    +0.030 A 
ENDROOT
BRANCH   4   7
ATOM      7  N   UNL     1      -7.793  -0.428  -1.544  0.00  0.00    -0.202 N 
ATOM      8  C   UNL     1      -8.544  -0.077  -0.485  0.00  0.00    +0.258 C 
ATOM      9  O   UNL     1      -8.236  -0.219   0.681  0.00  0.00    -0.269 OA
ATOM     10  C   UNL     1      -9.808   0.510  -0.978  0.00  0.00    +0.050 A 
ATOM     11  C   UNL     1     -10.935   1.036  -0.366  0.00  0.00    +0.014 A 
ATOM     12  C   UNL     1     -11.976   1.519  -1.142  0.00  0.00    +0.001 A 
ATOM     13  C   UNL     1     -11.898   1.481  -2.522  0.00  0.00    +0.001 A 
ATOM     14  C   UNL     1     -10.777   0.959  -3.148  0.00  0.00    +0.014 A 
ATOM     15  C   UNL     1      -9.728   0.471  -2.385  0.00  0.00    +0.050 A 
ATOM     16  C   UNL     1      -8.416  -0.133  -2.699  0.00  0.00    +0.258 C 
ATOM     17  O   UNL     1      -7.976  -0.333  -3.813  0.00  0.00    -0.269 OA
ENDBRANCH   4   7
BRANCH   1  18
ATOM     18  S   UNL     1      -2.428  -2.927  -1.170  0.00  0.00    +0.059 S 
ATOM     19  O   UNL     1      -2.218  -3.622  -2.392  0.00  0.00    -0.153 OA
ATOM     20  O   UNL     1      -2.369  -3.575   0.093  0.00  0.00    -0.153 OA
BRANCH  18  21
ATOM     21  N   UNL     1      -1.318  -1.700  -1.126  0.00  0.00    -0.186 NA
ATOM     22  H   UNL     1      -0.684  -1.593  -1.852  0.00  0.00    +0.148 HD
BRANCH  21  23
ATOM     23  C   UNL     1      -1.293  -0.775   0.010  0.00  0.00    +0.132 C 
BRANCH  23  25
ATOM     24  C   UNL     1      -0.016   1.306   0.009  0.00  0.00    +0.005 C 
ATOM     25  C   UNL     1       0.002  -0.004   0.002  0.00  0.00    -0.018 C 
ENDBRANCH  23  25
ENDBRANCH  21  23
ENDBRANCH  18  21
ENDBRANCH   1  18
TORSDOF 5
