REMARK  Name = ZINC39323262
REMARK  3 active torsions:
REMARK  status: ('A' for Active; 'I' for Inactive)
REMARK    1  A    between atoms: C_10  and  C_21
REMARK    2  A    between atoms: C_12  and  C_19
REMARK    3  A    between atoms: C_13  and  N_18
REMARK                            x       y       z     vdW  Elec       q    Type
REMARK                         _______ _______ _______ _____ _____    ______ ____
ROOT
ATOM      1  C   UNL     1       0.485   1.542   0.231  0.00  0.00    +0.001 A 
ATOM      2  C   UNL     1       1.719   2.183   0.161  0.00  0.00    +0.002 A 
ATOM      3  C   UNL     1       2.885   1.485   0.061  0.00  0.00    +0.024 A 
ATOM      4  C   UNL     1       2.863   0.081   0.029  0.00  0.00    +0.044 A 
ATOM      5  N   UNL     1       4.008  -0.604  -0.081  0.00  0.00    -0.284 N 
ATOM      6  C   UNL     1       4.079  -1.920  -0.100  0.00  0.00    +0.229 C 
ATOM      7  O   UNL     1       5.159  -2.471  -0.206  0.00  0.00    -0.275 OA
ATOM      8  C   UNL     1       2.816  -2.745   0.012  0.00  0.00    +0.154 C 
ATOM      9  C   UNL     1       2.713  -3.594  -1.260  0.00  0.00    +0.089 C 
ATOM     10  C   UNL     1       1.354  -4.233  -1.336  0.00  0.00    +0.095 C 
ATOM     11  C   UNL     1       0.281  -3.756  -0.668  0.00  0.00    +0.198 C 
ATOM     12  O   UNL     1       0.365  -2.670   0.137  0.00  0.00    -0.444 OA
ATOM     13  C   UNL     1       1.508  -1.979   0.117  0.00  0.00    +0.129 C 
ATOM     14  C   UNL     1       1.561  -0.594   0.111  0.00  0.00    +0.035 A 
ATOM     15  C   UNL     1       0.390   0.185   0.206  0.00  0.00    +0.013 A 
ATOM     16  H   UNL     1       4.835  -0.102  -0.152  0.00  0.00    +0.155 HD
ENDROOT
BRANCH   9  17
ATOM     17  C   UNL     1       2.920  -2.715  -2.466  0.00  0.00    +0.032 A 
ATOM     18  C   UNL     1       4.080  -2.827  -3.214  0.00  0.00    +0.130 A 
ATOM     19  C   UNL     1       4.269  -2.018  -4.322  0.00  0.00    +0.039 A 
ATOM     20  C   UNL     1       3.301  -1.100  -4.682  0.00  0.00    +0.006 A 
ATOM     21  C   UNL     1       2.143  -0.987  -3.936  0.00  0.00    +0.039 A 
ATOM     22  C   UNL     1       1.949  -1.798  -2.831  0.00  0.00    +0.130 A 
ATOM     23  F   UNL     1       0.814  -1.692  -2.106  0.00  0.00    -0.205 F 
ATOM     24  F   UNL     1       5.027  -3.724  -2.862  0.00  0.00    -0.205 F 
ENDBRANCH   9  17
BRANCH  11  25
ATOM     25  N   UNL     1      -0.929  -4.389  -0.809  0.00  0.00    -0.328 N 
ATOM     26  H   UNL     1      -1.004  -5.168  -1.382  0.00  0.00    +0.145 HD
ATOM     27  H   UNL     1      -1.708  -4.058  -0.336  0.00  0.00    +0.145 HD
ENDBRANCH  11  25
BRANCH  10  28
ATOM     28  C   UNL     1       1.190  -5.398  -2.152  0.00  0.00    +0.100 C 
ATOM     29  N   UNL     1       1.060  -6.322  -2.800  0.00  0.00    -0.191 NA
ENDBRANCH  10  28
TORSDOF 3
