REMARK  Name = ZINC24587999
REMARK  7 active torsions:
REMARK  status: ('A' for Active; 'I' for Inactive)
REMARK    1  A    between atoms: C_1  and  C_2
REMARK    2  A    between atoms: C_2  and  C_3
REMARK    3  A    between atoms: C_2  and  C_4
REMARK    4  A    between atoms: C_4  and  C_5
REMARK    5  A    between atoms: N_7  and  N_8
REMARK    6  A    between atoms: C_9  and  C_11
REMARK    7  A    between atoms: C_11  and  N_12
REMARK                            x       y       z     vdW  Elec       q    Type
REMARK                         _______ _______ _______ _____ _____    ______ ____
ROOT
ATOM      1  N   UNL     1       0.218   5.121   1.144  0.00  0.00    -0.215 N 
ATOM      2  C   UNL     1       1.173   4.188   1.351  0.00  0.00    +0.251 C 
ATOM      3  O   UNL     1       1.710   3.904   2.400  0.00  0.00    -0.272 OA
ATOM      4  C   UNL     1       1.427   3.575  -0.002  0.00  0.00    +0.138 C 
ATOM      5  C   UNL     1       2.889   3.756  -0.429  0.00  0.00    +0.045 C 
ATOM      6  C   UNL     1       3.521   2.410  -0.006  0.00  0.00    +0.038 C 
ATOM      7  C   UNL     1       2.378   1.416  -0.009  0.00  0.00    -0.042 A 
ATOM      8  C   UNL     1       1.169   2.092   0.002  0.00  0.00    -0.012 A 
ATOM      9  C   UNL     1      -0.017   1.377   0.010  0.00  0.00    +0.006 A 
ATOM     10  C   UNL     1       0.002  -0.004   0.002  0.00  0.00    +0.000 A 
ATOM     11  C   UNL     1       1.209  -0.678  -0.013  0.00  0.00    +0.000 A 
ATOM     12  C   UNL     1       2.394   0.033  -0.018  0.00  0.00    +0.004 A 
ATOM     13  N   UNL     1       0.516   4.281  -0.904  0.00  0.00    -0.281 N 
ATOM     14  C   UNL     1      -0.153   5.170  -0.142  0.00  0.00    +0.310 C 
ATOM     15  O   UNL     1      -0.997   5.930  -0.574  0.00  0.00    -0.252 OA
ATOM     16  H   UNL     1       0.494   4.026  -1.974  0.00  0.00    +0.152 HD
ENDROOT
BRANCH   1  17
ATOM     17  C   UNL     1      -0.342   5.973   2.196  0.00  0.00    +0.215 C 
BRANCH  17  19
ATOM     18  N   UNL     1      -2.220   5.895   3.805  0.00  0.00    -0.233 N 
ATOM     19  C   UNL     1      -1.539   5.293   2.809  0.00  0.00    +0.247 C 
ATOM     20  O   UNL     1      -1.889   4.204   2.407  0.00  0.00    -0.273 OA
ATOM     21  H   UNL     1      -1.901   6.883   4.169  0.00  0.00    +0.173 HD
BRANCH  18  24
ATOM     22  C   UNL     1      -4.013   5.865   5.370  0.00  0.00    +0.229 C 
ATOM     23  O   UNL     1      -3.662   6.954   5.772  0.00  0.00    -0.274 OA
ATOM     24  N   UNL     1      -3.332   5.263   4.375  0.00  0.00    -0.234 N 
ATOM     25  H   UNL     1      -3.650   4.275   4.010  0.00  0.00    +0.173 HD
BRANCH  22  26
ATOM     26  C   UNL     1      -5.210   5.185   5.983  0.00  0.00    +0.100 C 
BRANCH  26  28
ATOM     27  C   UNL     1      -7.081   5.444   7.619  0.00  0.00    +0.008 C 
ATOM     28  C   UNL     1      -5.795   6.075   7.082  0.00  0.00    -0.008 C 
ATOM     29  C   UNL     1      -4.781   6.213   8.219  0.00  0.00    +0.008 C 
ENDBRANCH  26  28
ENDBRANCH  22  26
ENDBRANCH  18  24
ENDBRANCH  17  19
ENDBRANCH   1  17
TORSDOF 5
