REMARK  Name = ZINC05720940
REMARK  3 active torsions:
REMARK  status: ('A' for Active; 'I' for Inactive)
REMARK    1  A    between atoms: C_1  and  O_2
REMARK    2  A    between atoms: O_2  and  C_3
REMARK    3  A    between atoms: N_13  and  N_14
REMARK                            x       y       z     vdW  Elec       q    Type
REMARK                         _______ _______ _______ _____ _____    ______ ____
ROOT
ATOM      1  N   UNL     1      -2.493   3.649   0.045  0.00  0.00    -0.220 N 
ATOM      2  C   UNL     1      -1.259   3.027   0.030  0.00  0.00    +0.150 A 
ATOM      3  C   UNL     1      -0.096   3.720   0.470  0.00  0.00    +0.052 A 
ATOM      4  C   UNL     1       0.018   5.088   0.977  0.00  0.00    -0.025 A 
ATOM      5  C   UNL     1       1.250   5.508   1.332  0.00  0.00    -0.004 A 
ATOM      6  S   UNL     1       2.317   4.128   1.018  0.00  0.00    -0.073 S 
ATOM      7  C   UNL     1       1.105   2.985   0.410  0.00  0.00    +0.114 A 
ATOM      8  N   UNL     1       1.131   1.741  -0.028  0.00  0.00    -0.228 NA
ATOM      9  C   UNL     1       0.020   1.151  -0.422  0.00  0.00    +0.224 A 
ATOM     10  N   UNL     1      -1.141   1.780  -0.398  0.00  0.00    -0.219 NA
ATOM     11  C   UNL     1       1.628   6.852   1.875  0.00  0.00    +0.043 C 
ATOM     12  C   UNL     1       0.464   7.822   1.625  0.00  0.00    +0.005 C 
ATOM     13  C   UNL     1      -0.839   7.149   2.067  0.00  0.00    +0.005 C 
ATOM     14  C   UNL     1      -1.189   6.013   1.105  0.00  0.00    +0.037 C 
ATOM     15  H   UNL     1      -2.549   4.614   0.124  0.00  0.00    +0.176 HD
ENDROOT
BRANCH   1  26
ATOM     16  C   UNL     1      -8.407   1.216  -0.337  0.00  0.00    +0.120 A 
ATOM     17  C   UNL     1      -7.184   0.607  -0.587  0.00  0.00    +0.046 A 
ATOM     18  C   UNL     1      -6.020   1.339  -0.492  0.00  0.00    +0.013 A 
ATOM     19  C   UNL     1      -6.075   2.691  -0.151  0.00  0.00    +0.001 A 
ATOM     20  C   UNL     1      -7.303   3.303   0.104  0.00  0.00    -0.035 A 
ATOM     21  C   UNL     1      -8.463   2.558   0.007  0.00  0.00    +0.050 A 
ATOM     22  C   UNL     1      -7.398   4.758   0.475  0.00  0.00    +0.036 C 
ATOM     23  C   UNL     1      -6.084   5.266   1.063  0.00  0.00    +0.011 C 
ATOM     24  C   UNL     1      -4.941   4.976   0.082  0.00  0.00    +0.058 C 
ATOM     25  C   UNL     1      -4.823   3.470  -0.041  0.00  0.00    +0.067 C 
ATOM     26  N   UNL     1      -3.664   2.886  -0.055  0.00  0.00    -0.185 NA
BRANCH  16  28
ATOM     27  C   UNL     1      -9.425  -0.885  -0.788  0.00  0.00    +0.277 C 
ATOM     28  O   UNL     1      -9.554   0.493  -0.429  0.00  0.00    -0.495 OA
ENDBRANCH  16  28
ENDBRANCH   1  26
TORSDOF 2
