REMARK  Name = ZINC62789276
REMARK  5 active torsions:
REMARK  status: ('A' for Active; 'I' for Inactive)
REMARK    1  A    between atoms: C_1  and  C_2
REMARK    2  A    between atoms: C_2  and  N_3
REMARK    3  A    between atoms: C_9  and  S_10
REMARK    4  A    between atoms: S_10  and  C_11
REMARK    5  A    between atoms: C_16  and  C_17
REMARK                            x       y       z     vdW  Elec       q    Type
REMARK                         _______ _______ _______ _____ _____    ______ ____
ROOT
ATOM      1  C   UNL     1       4.808  -1.063  -0.650  0.00  0.00    +0.027 A 
ATOM      2  C   UNL     1       4.957  -1.382  -1.994  0.00  0.00    +0.035 A 
ATOM      3  C   UNL     1       6.218  -1.573  -2.524  0.00  0.00    +0.042 A 
ATOM      4  C   UNL     1       7.343  -1.449  -1.720  0.00  0.00    +0.021 A 
ATOM      5  C   UNL     1       7.213  -1.133  -0.386  0.00  0.00    +0.014 A 
ATOM      6  C   UNL     1       5.944  -0.930   0.162  0.00  0.00    +0.026 A 
ATOM      7 CL   UNL     1       6.397  -1.972  -4.204  0.00  0.00    -0.084 Cl
ENDROOT
BRANCH   6   8
ATOM      8  C   UNL     1       5.800  -0.586   1.589  0.00  0.00    +0.095 C 
ATOM      9  N   UNL     1       6.319  -1.383   2.524  0.00  0.00    -0.387 N 
ATOM     10  N   UNL     1       5.150   0.523   1.945  0.00  0.00    -0.345 N 
ATOM     11  H   UNL     1       6.289  -1.120   3.457  0.00  0.00    +0.157 HD
ATOM     12  H   UNL     1       4.772   1.103   1.265  0.00  0.00    +0.144 HD
ATOM     13  H   UNL     1       5.055   0.750   2.883  0.00  0.00    +0.144 HD
ATOM     14  H   UNL     1       6.728  -2.225   2.270  0.00  0.00    +0.157 HD
ENDBRANCH   6   8
BRANCH   1  15
ATOM     15  S   UNL     1       3.200  -0.819   0.029  0.00  0.00    -0.049 S 
BRANCH  15  22
ATOM     16  N   UNL     1       1.798  -2.531   1.740  0.00  0.00    -0.271 N 
ATOM     17  C   UNL     1       1.917  -3.766   2.267  0.00  0.00    +0.345 A 
ATOM     18  O   UNL     1       1.124  -4.308   3.017  0.00  0.00    -0.245 OA
ATOM     19  N   UNL     1       3.072  -4.294   1.813  0.00  0.00    -0.226 N 
ATOM     20  H   UNL     1       3.424  -5.173   2.023  0.00  0.00    +0.194 HD
ATOM     21  N   UNL     1       3.671  -3.337   0.981  0.00  0.00    -0.144 NA
ATOM     22  C   UNL     1       2.895  -2.293   0.943  0.00  0.00    +0.197 A 
BRANCH  16  24
ATOM     23  C   UNL     1      -0.399  -1.836   0.921  0.00  0.00    +0.027 C 
ATOM     24  C   UNL     1       0.689  -1.603   1.972  0.00  0.00    +0.125 C 
ENDBRANCH  16  24
ENDBRANCH  15  22
ENDBRANCH   1  15
TORSDOF 4
