REMARK  Name = ZINC00989392
REMARK  9 active torsions:
REMARK  status: ('A' for Active; 'I' for Inactive)
REMARK    1  A    between atoms: C_1  and  C_2
REMARK    2  A    between atoms: C_2  and  O_3
REMARK    3  A    between atoms: O_3  and  C_4
REMARK    4  A    between atoms: C_4  and  C_6
REMARK    5  A    between atoms: C_6  and  N_7
REMARK    6  A    between atoms: C_17  and  C_30
REMARK    7  A    between atoms: C_18  and  N_29
REMARK    8  A    between atoms: C_25  and  C_27
REMARK    9  A    between atoms: C_25  and  C_28
REMARK                            x       y       z     vdW  Elec       q    Type
REMARK                         _______ _______ _______ _____ _____    ______ ____
ROOT
ATOM      1  N   UNL     1      -0.795  -3.388   0.259  0.00  0.00    -0.259 N 
ATOM      2  C   UNL     1       0.172  -3.426   1.248  0.00  0.00    +0.042 A 
ATOM      3  C   UNL     1       0.130  -4.030   2.505  0.00  0.00    +0.024 A 
ATOM      4  C   UNL     1       1.256  -3.908   3.305  0.00  0.00    +0.002 A 
ATOM      5  C   UNL     1       2.378  -3.221   2.888  0.00  0.00    +0.000 A 
ATOM      6  C   UNL     1       2.432  -2.614   1.637  0.00  0.00    +0.007 A 
ATOM      7  C   UNL     1       1.317  -2.733   0.836  0.00  0.00    -0.001 A 
ATOM      8  C   UNL     1       1.026  -2.223  -0.541  0.00  0.00    +0.144 C 
ATOM      9  C   UNL     1      -0.382  -2.702  -0.828  0.00  0.00    +0.241 C 
ATOM     10  O   UNL     1      -1.018  -2.506  -1.841  0.00  0.00    -0.274 OA
ATOM     11  C   UNL     1       1.981  -2.804  -1.543  0.00  0.00    +0.110 C 
ATOM     12  C   UNL     1       2.977  -2.039  -2.058  0.00  0.00    +0.199 C 
ATOM     13  O   UNL     1       3.137  -0.760  -1.687  0.00  0.00    -0.445 OA
ATOM     14  C   UNL     1       2.106  -0.079  -1.152  0.00  0.00    +0.116 C 
ATOM     15  C   UNL     1       1.070  -0.717  -0.575  0.00  0.00    +0.058 C 
ATOM     16  C   UNL     1       0.002  -0.004   0.002  0.00  0.00    +0.165 C 
ATOM     17  O   UNL     1      -0.921  -0.615   0.503  0.00  0.00    -0.292 OA
ATOM     18  C   UNL     1      -0.018   1.500   0.010  0.00  0.00    +0.086 C 
ATOM     19  C   UNL     1       1.424   2.016  -0.001  0.00  0.00    -0.021 C 
ATOM     20  C   UNL     1       2.140   1.430  -1.219  0.00  0.00    +0.081 C 
ATOM     21  C   UNL     1       1.423   3.543  -0.091  0.00  0.00    +0.012 C 
ATOM     22  C   UNL     1       2.139   1.573   1.278  0.00  0.00    +0.012 C 
ENDROOT
BRANCH  12  23
ATOM     23  N   UNL     1       3.837  -2.586  -2.977  0.00  0.00    -0.328 N 
ATOM     24  H   UNL     1       3.730  -3.510  -3.252  0.00  0.00    +0.145 HD
ATOM     25  H   UNL     1       4.552  -2.048  -3.352  0.00  0.00    +0.145 HD
ENDBRANCH  12  23
BRANCH  11  26
ATOM     26  C   UNL     1       1.842  -4.168  -1.955  0.00  0.00    +0.102 C 
ATOM     27  N   UNL     1       1.731  -5.250  -2.283  0.00  0.00    -0.191 NA
ENDBRANCH  11  26
BRANCH   1  28
ATOM     28  C   UNL     1      -2.112  -4.019   0.376  0.00  0.00    +0.234 C 
BRANCH  28  29
ATOM     29  C   UNL     1      -3.087  -3.038   0.975  0.00  0.00    +0.325 C 
ATOM     30  O   UNL     1      -2.720  -1.926   1.272  0.00  0.00    -0.249 OA
BRANCH  29  31
ATOM     31  O   UNL     1      -4.364  -3.400   1.177  0.00  0.00    -0.464 OA
BRANCH  31  33
ATOM     32  C   UNL     1      -6.650  -2.994   1.911  0.00  0.00    +0.048 C 
ATOM     33  C   UNL     1      -5.247  -2.404   1.757  0.00  0.00    +0.229 C 
ENDBRANCH  31  33
ENDBRANCH  29  31
ENDBRANCH  28  29
ENDBRANCH   1  28
TORSDOF 6
