REMARK  Name = ZINC54753985
REMARK  10 active torsions:
REMARK  status: ('A' for Active; 'I' for Inactive)
REMARK    1  A    between atoms: C_1  and  C_2
REMARK    2  A    between atoms: C_2  and  C_3
REMARK    3  A    between atoms: C_2  and  N_4
REMARK    4  A    between atoms: N_7  and  C_8
REMARK    5  A    between atoms: C_11  and  C_14
REMARK    6  A    between atoms: C_14  and  N_15
REMARK    7  A    between atoms: N_18  and  C_19
REMARK    8  A    between atoms: C_19  and  C_20
REMARK    9  A    between atoms: C_20  and  C_21
REMARK   10  A    between atoms: N_23  and  C_24
REMARK                            x       y       z     vdW  Elec       q    Type
REMARK                         _______ _______ _______ _____ _____    ______ ____
ROOT
ATOM      1  N   UNL     1      -2.816  -3.344   8.176  0.00  0.00    -0.295 N 
ATOM      2  C   UNL     1      -3.565  -3.782   9.207  0.00  0.00    +0.300 C 
ATOM      3  O   UNL     1      -3.843  -3.030  10.121  0.00  0.00    -0.253 OA
ATOM      4  N   UNL     1      -4.007  -5.056   9.226  0.00  0.00    -0.299 N 
ATOM      5  H   UNL     1      -2.595  -3.944   7.447  0.00  0.00    +0.151 HD
ATOM      6  H   UNL     1      -3.785  -5.656   8.497  0.00  0.00    +0.150 HD
ENDROOT
BRANCH   1   7
ATOM      7  C   UNL     1      -2.337  -1.960   8.156  0.00  0.00    +0.141 C 
BRANCH   7  11
ATOM      8  C   UNL     1      -0.047  -1.296   4.609  0.00  0.00    +0.035 A 
ATOM      9  C   UNL     1      -1.416  -1.067   4.606  0.00  0.00    +0.023 A 
ATOM     10  C   UNL     1      -2.154  -1.282   5.754  0.00  0.00    +0.007 A 
ATOM     11  C   UNL     1      -1.529  -1.726   6.905  0.00  0.00    -0.030 A 
ATOM     12  C   UNL     1      -0.165  -1.954   6.912  0.00  0.00    +0.007 A 
ATOM     13  C   UNL     1       0.577  -1.747   5.766  0.00  0.00    +0.023 A 
BRANCH   8  17
ATOM     14  N   UNL     1       2.411  -1.733   1.996  0.00  0.00    -0.297 N 
ATOM     15  C   UNL     1       1.747  -1.883   3.159  0.00  0.00    +0.304 C 
ATOM     16  O   UNL     1       2.089  -2.741   3.949  0.00  0.00    -0.253 OA
ATOM     17  N   UNL     1       0.703  -1.080   3.447  0.00  0.00    -0.269 N 
ATOM     18  H   UNL     1       2.138  -1.048   1.366  0.00  0.00    +0.151 HD
ATOM     19  H   UNL     1       0.471  -0.352   2.849  0.00  0.00    +0.156 HD
BRANCH  14  21
ATOM     20  C   UNL     1       3.033  -3.903   1.055  0.00  0.00    +0.027 C 
ATOM     21  C   UNL     1       3.546  -2.606   1.683  0.00  0.00    +0.068 C 
ATOM     22  C   UNL     1       4.478  -1.896   0.700  0.00  0.00    +0.027 C 
ENDBRANCH  14  21
ENDBRANCH   8  17
ENDBRANCH   7  11
ENDBRANCH   1   7
BRANCH   4  23
ATOM     23  C   UNL     1      -4.821  -5.533  10.346  0.00  0.00    +0.115 C 
BRANCH  23  24
ATOM     24  C   UNL     1      -5.187  -7.001  10.122  0.00  0.00    +0.114 C 
BRANCH  24  25
ATOM     25  C   UNL     1      -6.024  -7.492  11.275  0.00  0.00    +0.215 C 
ATOM     26  O   UNL     1      -6.301  -6.741  12.186  0.00  0.00    -0.276 OA
ATOM     27  N   UNL     1      -6.465  -8.765  11.293  0.00  0.00    -0.312 N 
ATOM     28  H   UNL     1      -6.244  -9.366  10.565  0.00  0.00    +0.149 HD
BRANCH  27  29
ATOM     29  C   UNL     1      -7.279  -9.242  12.414  0.00  0.00    +0.073 C 
ATOM     30  C   UNL     1      -6.369  -9.771  13.541  0.00  0.00    +0.022 C 
ATOM     31  C   UNL     1      -7.134 -10.993  14.106  0.00  0.00    +0.002 C 
ATOM     32  C   UNL     1      -7.745 -11.632  12.834  0.00  0.00    +0.002 C 
ATOM     33  C   UNL     1      -8.154 -10.425  11.964  0.00  0.00    +0.022 C 
ENDBRANCH  27  29
ENDBRANCH  24  25
ENDBRANCH  23  24
ENDBRANCH   4  23
TORSDOF 8
