REMARK  Name = ZINC22060735
REMARK  12 active torsions:
REMARK  status: ('A' for Active; 'I' for Inactive)
REMARK    1  A    between atoms: C_1  and  N_2
REMARK    2  A    between atoms: N_2  and  C_3
REMARK    3  A    between atoms: N_2  and  C_4
REMARK    4  A    between atoms: C_4  and  C_5
REMARK    5  A    between atoms: C_5  and  C_6
REMARK    6  A    between atoms: C_6  and  N_7
REMARK    7  A    between atoms: C_20  and  O_22
REMARK    8  A    between atoms: O_22  and  C_23
REMARK    9  A    between atoms: C_25  and  O_39
REMARK   10  A    between atoms: C_27  and  O_38
REMARK   11  A    between atoms: C_29  and  O_37
REMARK   12  A    between atoms: C_31  and  C_34
REMARK                            x       y       z     vdW  Elec       q    Type
REMARK                         _______ _______ _______ _____ _____    ______ ____
ROOT
ATOM      1  N   UNL     1       2.367   3.828  -0.043  0.00  0.00    -0.300 N 
ATOM      2  C   UNL     1       1.148   3.159   0.003  0.00  0.00    +0.037 A 
ATOM      3  C   UNL     1      -0.056   3.851   0.030  0.00  0.00    +0.024 A 
ATOM      4  C   UNL     1      -1.242   3.139   0.039  0.00  0.00    +0.002 A 
ATOM      5  C   UNL     1      -1.217   1.756   0.017  0.00  0.00    +0.000 A 
ATOM      6  C   UNL     1      -0.013   1.076   0.008  0.00  0.00    +0.005 A 
ATOM      7  C   UNL     1       1.175   1.790   0.000  0.00  0.00    -0.026 A 
ATOM      8  C   UNL     1       2.488   1.065   0.011  0.00  0.00    +0.042 C 
ATOM      9  C   UNL     1       3.212   1.212   1.325  0.00  0.00    +0.042 C 
ATOM     10  C   UNL     1       3.672   2.615   1.633  0.00  0.00    -0.022 A 
ATOM     11  C   UNL     1       3.307   3.772   0.983  0.00  0.00    +0.037 A 
ATOM     12  C   UNL     1       3.860   4.998   1.369  0.00  0.00    +0.027 A 
ATOM     13  C   UNL     1       4.751   5.075   2.415  0.00  0.00    +0.047 A 
ATOM     14  C   UNL     1       5.104   3.917   3.091  0.00  0.00    +0.124 A 
ATOM     15  C   UNL     1       4.571   2.706   2.700  0.00  0.00    +0.051 A 
ENDROOT
BRANCH   1  16
ATOM     16  C   UNL     1       2.677   4.630  -1.229  0.00  0.00    +0.109 C 
BRANCH  16  17
ATOM     17  C   UNL     1       3.393   3.757  -2.262  0.00  0.00    +0.001 C 
BRANCH  17  18
ATOM     18  C   UNL     1       3.717   4.595  -3.500  0.00  0.00    -0.078 C 
BRANCH  18  20
ATOM     19  C   UNL     1       4.522   4.455  -5.780  0.00  0.00    -0.097 C 
ATOM     20  N   UNL     1       4.405   3.758  -4.492  0.00  0.00    +0.376 N 
ATOM     21  C   UNL     1       5.724   3.336  -4.000  0.00  0.00    -0.097 C 
ATOM     22  H   UNL     1       3.799   2.854  -4.650  0.00  0.00    -0.083 HD
ENDBRANCH  18  20
ENDBRANCH  17  18
ENDBRANCH  16  17
ENDBRANCH   1  16
BRANCH  14  23
ATOM     23  O   UNL     1       5.972   3.975   4.136  0.00  0.00    -0.461 OA
BRANCH  23  24
ATOM     24  C   UNL     1       6.483   5.263   4.484  0.00  0.00    +0.340 C 
ATOM     25  C   UNL     1       7.338   5.148   5.749  0.00  0.00    +0.214 C 
ATOM     26  C   UNL     1       7.931   6.521   6.081  0.00  0.00    +0.180 C 
ATOM     27  C   UNL     1       8.737   7.021   4.878  0.00  0.00    +0.186 C 
ATOM     28  C   UNL     1       7.828   7.064   3.647  0.00  0.00    +0.266 C 
ATOM     29  O   UNL     1       7.285   5.763   3.412  0.00  0.00    -0.322 OA
BRANCH  28  30
ATOM     30  C   UNL     1       8.628   7.499   2.447  0.00  0.00    +0.387 C 
ATOM     31  O   UNL     1       8.799   6.736   1.526  0.00  0.00    -0.243 OA
ATOM     32  O   UNL     1       9.151   8.735   2.401  0.00  0.00    -0.243 OA
ENDBRANCH  28  30
BRANCH  27  33
ATOM     33  O   UNL     1       9.831   6.135   4.634  0.00  0.00    -0.386 OA
ATOM     34  H   UNL     1      10.525   6.333   3.804  0.00  0.00    +0.210 HD
ENDBRANCH  27  33
BRANCH  26  35
ATOM     35  O   UNL     1       8.790   6.408   7.218  0.00  0.00    -0.386 OA
ATOM     36  H   UNL     1       9.309   7.297   7.606  0.00  0.00    +0.210 HD
ENDBRANCH  26  35
BRANCH  25  37
ATOM     37  O   UNL     1       6.525   4.702   6.836  0.00  0.00    -0.383 OA
ATOM     38  H   UNL     1       6.969   4.560   7.833  0.00  0.00    +0.210 HD
ENDBRANCH  25  37
ENDBRANCH  23  24
ENDBRANCH  14  23
TORSDOF 10
