REMARK  Name = ZINC21148264
REMARK  12 active torsions:
REMARK  status: ('A' for Active; 'I' for Inactive)
REMARK    1  A    between atoms: C_1  and  C_2
REMARK    2  A    between atoms: C_5  and  C_8
REMARK    3  A    between atoms: C_8  and  N_9
REMARK    4  A    between atoms: C_10  and  C_12
REMARK    5  A    between atoms: C_12  and  O_13
REMARK    6  A    between atoms: O_13  and  C_14
REMARK    7  A    between atoms: C_14  and  C_16
REMARK    8  A    between atoms: C_16  and  C_17
REMARK    9  A    between atoms: C_17  and  C_19
REMARK   10  A    between atoms: C_17  and  N_32
REMARK   11  A    between atoms: C_23  and  O_25
REMARK   12  A    between atoms: O_25  and  C_26
REMARK                            x       y       z     vdW  Elec       q    Type
REMARK                         _______ _______ _______ _____ _____    ______ ____
ROOT
ATOM      1  C   UNL     1       5.685 -10.247   0.044  0.00  0.00    +0.115 C 
ENDROOT
BRANCH   1   2
ATOM      2  N   UNL     1       6.354  -9.749  -1.161  0.00  0.00    -0.292 N 
ATOM      3  C   UNL     1       7.689  -9.568  -1.165  0.00  0.00    +0.298 C 
ATOM      4  O   UNL     1       8.351  -9.902  -0.201  0.00  0.00    -0.253 OA
ATOM      5  N   UNL     1       8.291  -9.016  -2.237  0.00  0.00    -0.313 N 
ATOM      6  H   UNL     1       5.835  -9.551  -1.957  0.00  0.00    +0.151 HD
ATOM      7  H   UNL     1       7.763  -8.749  -3.006  0.00  0.00    +0.146 HD
ATOM      8  H   UNL     1       9.252  -8.886  -2.240  0.00  0.00    +0.146 HD
ENDBRANCH   1   2
BRANCH   1   9
ATOM      9  C   UNL     1       5.834 -11.745   0.118  0.00  0.00    -0.023 A 
ATOM     10  C   UNL     1       6.179 -12.346   1.315  0.00  0.00    +0.006 A 
ATOM     11  C   UNL     1       6.316 -13.720   1.387  0.00  0.00    +0.004 A 
ATOM     12  C   UNL     1       6.108 -14.496   0.263  0.00  0.00    +0.046 A 
ATOM     13  C   UNL     1       5.762 -13.895  -0.939  0.00  0.00    +0.129 A 
ATOM     14  C   UNL     1       5.620 -12.516  -1.007  0.00  0.00    +0.051 A 
BRANCH  13  15
ATOM     15  O   UNL     1       5.557 -14.656  -2.046  0.00  0.00    -0.456 OA
BRANCH  15  16
ATOM     16  C   UNL     1       5.346 -14.020  -3.227  0.00  0.00    +0.128 A 
ATOM     17  C   UNL     1       6.372 -13.298  -3.821  0.00  0.00    +0.046 A 
ATOM     18  C   UNL     1       6.154 -12.652  -5.022  0.00  0.00    +0.004 A 
ATOM     19  C   UNL     1       4.915 -12.723  -5.633  0.00  0.00    +0.000 A 
ATOM     20  C   UNL     1       3.891 -13.441  -5.043  0.00  0.00    +0.004 A 
ATOM     21  C   UNL     1       4.106 -14.095  -3.845  0.00  0.00    +0.046 A 
ENDBRANCH  15  16
ENDBRANCH  13  15
ENDBRANCH   1   9
BRANCH   1  22
ATOM     22  C   UNL     1       4.200  -9.884  -0.010  0.00  0.00    +0.147 C 
BRANCH  22  23
ATOM     23  C   UNL     1       4.047  -8.386   0.039  0.00  0.00    +0.310 C 
ATOM     24  O   UNL     1       5.026  -7.680   0.110  0.00  0.00    -0.251 OA
BRANCH  23  25
ATOM     25  O   UNL     1       2.824  -7.834   0.004  0.00  0.00    -0.455 OA
BRANCH  25  26
ATOM     26  C   UNL     1       2.753  -6.408   0.054  0.00  0.00    +0.327 C 
BRANCH  26  28
ATOM     27  N   UNL     1       1.000  -4.663   0.040  0.00  0.00    -0.308 N 
ATOM     28  C   UNL     1       1.311  -5.974   0.005  0.00  0.00    +0.251 C 
ATOM     29  O   UNL     1       0.430  -6.805  -0.066  0.00  0.00    -0.272 OA
ATOM     30  H   UNL     1       1.704  -3.999   0.096  0.00  0.00    +0.149 HD
BRANCH  27  31
ATOM     31  C   UNL     1      -0.403  -4.242  -0.008  0.00  0.00    +0.139 C 
BRANCH  31  36
ATOM     32  C   UNL     1      -0.691   1.526   0.194  0.00  0.00    +0.044 C 
ATOM     33  C   UNL     1      -0.616   0.022   0.141  0.00  0.00    -0.050 A 
ATOM     34  C   UNL     1      -0.526  -0.623  -1.078  0.00  0.00    +0.003 A 
ATOM     35  C   UNL     1      -0.457  -2.003  -1.126  0.00  0.00    +0.005 A 
ATOM     36  C   UNL     1      -0.477  -2.737   0.044  0.00  0.00    -0.030 A 
ATOM     37  C   UNL     1      -0.566  -2.092   1.264  0.00  0.00    +0.005 A 
ATOM     38  C   UNL     1      -0.631  -0.712   1.312  0.00  0.00    +0.003 A 
ENDBRANCH  31  36
ENDBRANCH  27  31
ENDBRANCH  26  28
ENDBRANCH  25  26
ENDBRANCH  23  25
ENDBRANCH  22  23
ENDBRANCH   1  22
TORSDOF 11
