REMARK  Name = ZINC39681411
REMARK  8 active torsions:
REMARK  status: ('A' for Active; 'I' for Inactive)
REMARK    1  A    between atoms: C_1  and  C_2
REMARK    2  A    between atoms: C_4  and  C_8
REMARK    3  A    between atoms: N_6  and  C_7
REMARK    4  A    between atoms: C_12  and  C_21
REMARK    5  A    between atoms: N_23  and  C_24
REMARK    6  A    between atoms: C_24  and  C_25
REMARK    7  A    between atoms: C_25  and  O_26
REMARK    8  A    between atoms: O_26  and  C_27
REMARK                            x       y       z     vdW  Elec       q    Type
REMARK                         _______ _______ _______ _____ _____    ______ ____
ROOT
ATOM      1  C   UNL     1       0.078  -3.478  -1.513  0.00  0.00    +0.267 C 
ATOM      2  O   UNL     1       0.017  -3.447  -2.727  0.00  0.00    -0.268 OA
ATOM      3  N   UNL     1       0.063  -4.661  -0.867  0.00  0.00    -0.295 N 
ATOM      4  C   UNL     1       0.122  -4.898   0.595  0.00  0.00    +0.121 C 
ATOM      5  C   UNL     1      -0.861  -6.065   0.841  0.00  0.00    +0.100 C 
ATOM      6  C   UNL     1      -0.946  -6.797  -0.509  0.00  0.00    -0.004 C 
ATOM      7  C   UNL     1      -0.023  -6.018  -1.458  0.00  0.00    +0.115 C 
ATOM      8  C   UNL     1      -0.460  -8.236  -0.362  0.00  0.00    -0.010 C 
ATOM      9  C   UNL     1      -0.609  -8.960  -1.703  0.00  0.00    -0.082 C 
ATOM     10  N   UNL     1      -2.016  -8.938  -2.120  0.00  0.00    +0.379 N 
ATOM     11  C   UNL     1      -2.449  -7.554  -2.349  0.00  0.00    -0.082 C 
ATOM     12  C   UNL     1      -2.378  -6.771  -1.035  0.00  0.00    -0.010 C 
ATOM     13  H   UNL     1      -2.122  -9.467  -2.972  0.00  0.00    -0.086 HD
ATOM     14  H   UNL     1      -2.586  -9.351  -1.397  0.00  0.00    -0.086 HD
ENDROOT
BRANCH   1  18
ATOM     15  C   UNL     1       0.345   1.421  -0.242  0.00  0.00    +0.065 C 
ATOM     16  C   UNL     1       0.284  -0.084  -0.209  0.00  0.00    +0.037 A 
ATOM     17  C   UNL     1       0.196  -0.908  -1.279  0.00  0.00    +0.057 A 
ATOM     18  C   UNL     1       0.170  -2.219  -0.746  0.00  0.00    +0.147 A 
ATOM     19  N   UNL     1       0.241  -2.102   0.565  0.00  0.00    -0.167 NA
ATOM     20  N   UNL     1       0.314  -0.863   0.894  0.00  0.00    -0.271 N 
ATOM     21  C   UNL     1       0.410  -0.365   2.269  0.00  0.00    +0.172 C 
ENDBRANCH   1  18
BRANCH   5  22
ATOM     22  C   UNL     1      -0.325  -6.986   1.907  0.00  0.00    +0.218 C 
ATOM     23  O   UNL     1       0.872  -7.122   2.045  0.00  0.00    -0.275 OA
ATOM     24  N   UNL     1      -1.177  -7.658   2.706  0.00  0.00    -0.312 N 
ATOM     25  H   UNL     1      -2.135  -7.549   2.596  0.00  0.00    +0.149 HD
BRANCH  24  26
ATOM     26  C   UNL     1      -0.657  -8.553   3.743  0.00  0.00    +0.145 C 
BRANCH  26  27
ATOM     27  C   UNL     1      -1.824  -9.187   4.503  0.00  0.00    +0.248 C 
BRANCH  27  28
ATOM     28  O   UNL     1      -2.569 -10.025   3.618  0.00  0.00    -0.489 OA
BRANCH  28  29
ATOM     29  C   UNL     1      -3.648 -10.668   4.139  0.00  0.00    +0.139 A 
ATOM     30  C   UNL     1      -3.985 -10.490   5.473  0.00  0.00    +0.047 A 
ATOM     31  C   UNL     1      -5.082 -11.144   6.000  0.00  0.00    +0.004 A 
ATOM     32  C   UNL     1      -5.844 -11.976   5.200  0.00  0.00    +0.002 A 
ATOM     33  C   UNL     1      -5.510 -12.155   3.870  0.00  0.00    +0.023 A 
ATOM     34  C   UNL     1      -4.417 -11.499   3.336  0.00  0.00    +0.083 A 
ATOM     35 CL   UNL     1      -4.003 -11.719   1.665  0.00  0.00    -0.080 Cl
ENDBRANCH  28  29
ENDBRANCH  27  28
ENDBRANCH  26  27
ENDBRANCH  24  26
ENDBRANCH   5  22
TORSDOF 6
