REMARK  Name = ZINC61547836
REMARK  8 active torsions:
REMARK  status: ('A' for Active; 'I' for Inactive)
REMARK    1  A    between atoms: N_4  and  C_6
REMARK    2  A    between atoms: C_6  and  C_7
REMARK    3  A    between atoms: C_7  and  C_8
REMARK    4  A    between atoms: C_8  and  N_9
REMARK    5  A    between atoms: C_10  and  C_12
REMARK    6  A    between atoms: C_12  and  C_13
REMARK    7  A    between atoms: C_13  and  N_14
REMARK    8  A    between atoms: N_17  and  C_18
REMARK                            x       y       z     vdW  Elec       q    Type
REMARK                         _______ _______ _______ _____ _____    ______ ____
ROOT
ATOM      1  N   UNL     1      -0.641  -9.992   0.240  0.00  0.00    -0.299 N 
ATOM      2  C   UNL     1      -0.595 -11.223   0.788  0.00  0.00    +0.300 C 
ATOM      3  O   UNL     1       0.001 -11.400   1.833  0.00  0.00    -0.253 OA
ATOM      4  N   UNL     1      -1.208 -12.256   0.178  0.00  0.00    -0.294 N 
ATOM      5  H   UNL     1      -1.117  -9.851  -0.593  0.00  0.00    +0.150 HD
ATOM      6  H   UNL     1      -1.683 -12.114  -0.655  0.00  0.00    +0.151 HD
ENDROOT
BRANCH   4   7
ATOM      7  C   UNL     1      -1.157 -13.594   0.774  0.00  0.00    +0.037 C 
ATOM      8  C   UNL     1       0.300 -14.045   0.890  0.00  0.00    +0.029 C 
ATOM      9  C   UNL     1       0.353 -15.442   1.512  0.00  0.00    -0.008 C 
ATOM     10  C   UNL     1      -0.416 -16.424   0.627  0.00  0.00    +0.007 C 
ATOM     11  C   UNL     1      -1.873 -15.973   0.511  0.00  0.00    -0.008 C 
ATOM     12  C   UNL     1      -1.926 -14.576  -0.111  0.00  0.00    +0.029 C 
ATOM     13  C   UNL     1      -2.508 -15.936   1.902  0.00  0.00    +0.007 C 
ATOM     14  C   UNL     1      -1.739 -14.953   2.788  0.00  0.00    -0.008 C 
ATOM     15  C   UNL     1      -0.281 -15.405   2.904  0.00  0.00    +0.007 C 
ATOM     16  C   UNL     1      -1.792 -13.556   2.166  0.00  0.00    +0.029 C 
ENDBRANCH   4   7
BRANCH   1  17
ATOM     17  C   UNL     1       0.025  -8.869   0.904  0.00  0.00    +0.115 C 
BRANCH  17  18
ATOM     18  C   UNL     1      -0.179  -7.596   0.080  0.00  0.00    +0.114 C 
BRANCH  18  20
ATOM     19  N   UNL     1       0.460  -5.210   0.214  0.00  0.00    -0.315 N 
ATOM     20  C   UNL     1       0.506  -6.441   0.762  0.00  0.00    +0.215 C 
ATOM     21  O   UNL     1       1.101  -6.618   1.805  0.00  0.00    -0.276 OA
ATOM     22  H   UNL     1      -0.016  -5.068  -0.619  0.00  0.00    +0.149 HD
BRANCH  19  23
ATOM     23  C   UNL     1       1.126  -4.087   0.878  0.00  0.00    +0.102 C 
BRANCH  23  24
ATOM     24  C   UNL     1       0.921  -2.814   0.054  0.00  0.00    +0.000 C 
BRANCH  24  25
ATOM     25  C   UNL     1       1.618  -1.641   0.747  0.00  0.00    -0.077 C 
BRANCH  25  29
ATOM     26  C   UNL     1      -0.019   1.536   0.011  0.00  0.00    -0.020 C 
ATOM     27  C   UNL     1       1.468   1.960  -0.001  0.00  0.00    -0.020 C 
ATOM     28  C   UNL     1       2.191   0.705   0.550  0.00  0.00    -0.079 C 
ATOM     29  N   UNL     1       1.421  -0.418  -0.044  0.00  0.00    +0.380 N 
ATOM     30  C   UNL     1       0.002  -0.004   0.002  0.00  0.00    -0.079 C 
ATOM     31  H   UNL     1       1.708  -0.571  -0.999  0.00  0.00    -0.082 HD
ENDBRANCH  25  29
ENDBRANCH  24  25
ENDBRANCH  23  24
ENDBRANCH  19  23
ENDBRANCH  18  20
ENDBRANCH  17  18
ENDBRANCH   1  17
TORSDOF 8
