REMARK  Name = ZINC13629980
REMARK  8 active torsions:
REMARK  status: ('A' for Active; 'I' for Inactive)
REMARK    1  A    between atoms: C_1  and  C_2
REMARK    2  A    between atoms: C_3  and  C_9
REMARK    3  A    between atoms: C_4  and  C_8
REMARK    4  A    between atoms: N_5  and  C_7
REMARK    5  A    between atoms: C_16  and  C_18
REMARK    6  A    between atoms: C_18  and  O_19
REMARK    7  A    between atoms: C_21  and  N_25
REMARK    8  A    between atoms: C_22  and  C_23
REMARK                            x       y       z     vdW  Elec       q    Type
REMARK                         _______ _______ _______ _____ _____    ______ ____
ROOT
ATOM      1  C   UNL     1       1.262   2.142   0.002  0.00  0.00    +0.138 C 
ATOM      2  C   UNL     1       2.413   1.271  -0.432  0.00  0.00    +0.164 A 
ATOM      3  C   UNL     1       2.301  -0.073  -0.415  0.00  0.00    +0.215 A 
ATOM      4  C   UNL     1       3.409  -0.865  -0.829  0.00  0.00    +0.228 A 
ATOM      5  O   UNL     1       3.344  -2.085  -0.825  0.00  0.00    -0.284 OA
ATOM      6  C   UNL     1       4.590  -0.202  -1.245  0.00  0.00    +0.098 A 
ATOM      7  C   UNL     1       4.617   1.146  -1.232  0.00  0.00    +0.134 A 
ATOM      8  O   UNL     1       3.555   1.853  -0.836  0.00  0.00    -0.457 OA
ATOM      9  O   UNL     1       1.160  -0.686  -0.013  0.00  0.00    -0.434 OA
ATOM     10  C   UNL     1       0.002  -0.004   0.002  0.00  0.00    +0.199 C 
ATOM     11  C   UNL     1      -0.016   1.352   0.009  0.00  0.00    +0.101 C 
ENDROOT
BRANCH   1  14
ATOM     12  C   UNL     1       1.647   0.397   2.618  0.00  0.00    +0.068 C 
ATOM     13  C   UNL     1       1.700   1.901   2.543  0.00  0.00    +0.064 A 
ATOM     14  C   UNL     1       1.530   2.670   1.387  0.00  0.00    +0.012 A 
ATOM     15  C   UNL     1       1.644   3.973   1.734  0.00  0.00    +0.040 A 
ATOM     16  N   UNL     1       1.883   4.026   3.061  0.00  0.00    -0.271 N 
ATOM     17  N   UNL     1       1.918   2.712   3.546  0.00  0.00    -0.176 NA
ATOM     18  C   UNL     1       2.072   5.243   3.855  0.00  0.00    +0.172 C 
ATOM     19  C   UNL     1       1.524   5.154   0.805  0.00  0.00    +0.065 C 
ENDBRANCH   1  14
BRANCH  10  20
ATOM     20  N   UNL     1      -1.185  -0.693   0.010  0.00  0.00    -0.328 N 
ATOM     21  H   UNL     1      -2.026  -0.210   0.021  0.00  0.00    +0.145 HD
ATOM     22  H   UNL     1      -1.183  -1.663   0.005  0.00  0.00    +0.145 HD
ENDBRANCH  10  20
BRANCH  11  23
ATOM     23  C   UNL     1      -1.272   2.040   0.019  0.00  0.00    +0.101 C 
ATOM     24  N   UNL     1      -2.268   2.587   0.027  0.00  0.00    -0.191 NA
ENDBRANCH  11  23
BRANCH   7  25
ATOM     25  C   UNL     1       5.865   1.867  -1.672  0.00  0.00    +0.230 C 
BRANCH  25  26
ATOM     26  O   UNL     1       5.802   2.116  -3.078  0.00  0.00    -0.387 OA
ATOM     27  H   UNL     1       6.574   2.578  -3.431  0.00  0.00    +0.210 HD
ENDBRANCH  25  26
ENDBRANCH   7  25
TORSDOF 5
