REMARK  Name = ZINC15070889
REMARK  9 active torsions:
REMARK  status: ('A' for Active; 'I' for Inactive)
REMARK    1  A    between atoms: C_1  and  C_2
REMARK    2  A    between atoms: C_2  and  C_3
REMARK    3  A    between atoms: C_2  and  C_4
REMARK    4  A    between atoms: C_4  and  N_5
REMARK    5  A    between atoms: C_6  and  C_8
REMARK    6  A    between atoms: C_12  and  C_17
REMARK    7  A    between atoms: C_17  and  O_28
REMARK    8  A    between atoms: C_22  and  C_23
REMARK    9  A    between atoms: C_22  and  N_57
REMARK                            x       y       z     vdW  Elec       q    Type
REMARK                         _______ _______ _______ _____ _____    ______ ____
ROOT
ATOM      1  C   UNL     1       1.445  -4.282   0.761  0.00  0.00    +0.190 A 
ATOM      2  C   UNL     1       1.987  -3.080   1.083  0.00  0.00    +0.063 A 
ATOM      3  C   UNL     1       1.061  -2.069   0.573  0.00  0.00    +0.021 A 
ATOM      4  C   UNL     1       1.046  -0.672   0.577  0.00  0.00    +0.018 A 
ATOM      5  C   UNL     1       0.002  -0.004   0.002  0.00  0.00    -0.015 A 
ATOM      6  C   UNL     1      -1.038  -0.705  -0.594  0.00  0.00    +0.010 A 
ATOM      7  C   UNL     1      -1.039  -2.082  -0.613  0.00  0.00    +0.047 A 
ATOM      8  C   UNL     1       0.010  -2.784  -0.030  0.00  0.00    +0.136 A 
ATOM      9  O   UNL     1       0.280  -4.096   0.105  0.00  0.00    -0.450 OA
ENDROOT
BRANCH   5  10
ATOM     10  C   UNL     1      -0.018   1.503   0.010  0.00  0.00    +0.088 C 
ATOM     11  C   UNL     1      -0.738   1.998   1.268  0.00  0.00    +0.021 C 
ATOM     12  C   UNL     1      -0.810   3.526   1.240  0.00  0.00    -0.075 C 
ATOM     13  C   UNL     1      -0.832   3.539  -1.183  0.00  0.00    -0.075 C 
ATOM     14  C   UNL     1      -0.761   2.011  -1.228  0.00  0.00    +0.021 C 
ATOM     15  N   UNL     1      -1.558   3.950   0.037  0.00  0.00    +0.383 N 
ATOM     16  H   UNL     1      -2.481   3.500   0.043  0.00  0.00    -0.081 HD
BRANCH  10  17
ATOM     17  O   UNL     1       1.322   1.999   0.000  0.00  0.00    -0.384 OA
ATOM     18  H   UNL     1       1.851   1.717   0.759  0.00  0.00    +0.211 HD
ENDBRANCH  10  17
BRANCH  15  19
ATOM     19  C   UNL     1      -1.739   5.417   0.047  0.00  0.00    -0.036 C 
BRANCH  19  20
ATOM     20  C   UNL     1      -2.231   5.845   1.406  0.00  0.00    -0.027 A 
ATOM     21  C   UNL     1      -1.514   6.222   2.493  0.00  0.00    +0.009 A 
ATOM     22  C   UNL     1      -2.185   6.582   3.646  0.00  0.00    +0.008 A 
ATOM     23  C   UNL     1      -3.540   6.535   3.660  0.00  0.00    +0.045 A 
ATOM     24  S   UNL     1      -3.907   5.978   2.004  0.00  0.00    -0.103 S 
ENDBRANCH  19  20
ENDBRANCH  15  19
ENDBRANCH   5  10
BRANCH   1  26
ATOM     25  N   UNL     1       1.407  -6.722   0.709  0.00  0.00    -0.309 N 
ATOM     26  C   UNL     1       2.037  -5.589   1.079  0.00  0.00    +0.279 C 
ATOM     27  O   UNL     1       3.095  -5.649   1.677  0.00  0.00    -0.267 OA
ATOM     28  H   UNL     1       0.564  -6.675   0.233  0.00  0.00    +0.149 HD
BRANCH  25  29
ATOM     29  C   UNL     1       1.998  -8.025   1.026  0.00  0.00    +0.107 C 
BRANCH  29  31
ATOM     30  C   UNL     1       1.042  -9.077  -1.029  0.00  0.00    +0.009 C 
ATOM     31  C   UNL     1       1.090  -9.138   0.499  0.00  0.00    -0.000 C 
ATOM     32  C   UNL     1       1.641 -10.496   0.938  0.00  0.00    +0.009 C 
ENDBRANCH  29  31
ENDBRANCH  25  29
ENDBRANCH   1  26
TORSDOF 7
