REMARK  Name = ZINC64291226
REMARK  10 active torsions:
REMARK  status: ('A' for Active; 'I' for Inactive)
REMARK    1  A    between atoms: C_1  and  C_2
REMARK    2  A    between atoms: C_4  and  C_23
REMARK    3  A    between atoms: C_7  and  N_8
REMARK    4  A    between atoms: C_9  and  C_11
REMARK    5  A    between atoms: C_11  and  C_13
REMARK    6  A    between atoms: C_16  and  C_19
REMARK    7  A    between atoms: C_19  and  C_20
REMARK    8  A    between atoms: C_19  and  C_21
REMARK    9  A    between atoms: C_19  and  C_22
REMARK   10  A    between atoms: N_25  and  C_26
REMARK                            x       y       z     vdW  Elec       q    Type
REMARK                         _______ _______ _______ _____ _____    ______ ____
ROOT
ATOM      1  N   UNL     1       0.044  -0.011   2.414  0.00  0.00    -0.279 N 
ATOM      2  C   UNL     1      -0.042  -0.688   3.576  0.00  0.00    +0.289 C 
ATOM      3  O   UNL     1      -0.016  -1.901   3.575  0.00  0.00    -0.266 OA
ATOM      4  H   UNL     1       0.086   0.958   2.419  0.00  0.00    +0.155 HD
ENDROOT
BRANCH   1  11
ATOM      5  C   UNL     1      -1.238   1.173   0.172  0.00  0.00    +0.045 C 
ATOM      6  C   UNL     1      -0.544  -0.161   0.081  0.00  0.00    -0.029 A 
ATOM      7  C   UNL     1      -0.514  -0.841  -1.116  0.00  0.00    +0.018 A 
ATOM      8  C   UNL     1       0.130  -2.078  -1.200  0.00  0.00    +0.037 A 
ATOM      9  C   UNL     1       0.742  -2.622  -0.067  0.00  0.00    +0.015 A 
ATOM     10  C   UNL     1       0.709  -1.938   1.127  0.00  0.00    +0.024 A 
ATOM     11  C   UNL     1       0.071  -0.703   1.206  0.00  0.00    +0.037 A 
BRANCH   8  12
ATOM     12  C   UNL     1       0.164  -2.809  -2.482  0.00  0.00    +0.244 C 
ATOM     13  O   UNL     1      -0.369  -2.334  -3.466  0.00  0.00    -0.270 OA
ATOM     14  N   UNL     1       0.786  -4.002  -2.561  0.00  0.00    -0.314 N 
ATOM     15  C   UNL     1       0.819  -4.727  -3.834  0.00  0.00    +0.128 C 
ATOM     16  H   UNL     1       1.211  -4.380  -1.776  0.00  0.00    +0.149 HD
ENDBRANCH   8  12
ENDBRANCH   1  11
BRANCH   2  17
ATOM     17  C   UNL     1      -0.167   0.055   4.864  0.00  0.00    +0.248 C 
ATOM     18  O   UNL     1      -0.287   1.263   4.859  0.00  0.00    -0.282 OA
BRANCH  17  19
ATOM     19  C   UNL     1      -0.145  -0.678   6.143  0.00  0.00    +0.027 A 
ATOM     20  C   UNL     1      -0.120  -2.077   6.151  0.00  0.00    +0.012 A 
ATOM     21  C   UNL     1      -0.100  -2.755   7.351  0.00  0.00    +0.005 A 
ATOM     22  C   UNL     1      -0.104  -2.056   8.546  0.00  0.00    -0.042 A 
ATOM     23  C   UNL     1      -0.129  -0.672   8.546  0.00  0.00    +0.005 A 
ATOM     24  C   UNL     1      -0.143   0.021   7.355  0.00  0.00    +0.012 A 
BRANCH  22  25
ATOM     25  C   UNL     1      -0.082  -2.805   9.853  0.00  0.00    -0.013 C 
ATOM     26  C   UNL     1       1.183  -3.663   9.928  0.00  0.00    +0.015 C 
ATOM     27  C   UNL     1      -0.091  -1.808  11.013  0.00  0.00    +0.015 C 
ATOM     28  C   UNL     1      -1.315  -3.707   9.945  0.00  0.00    +0.015 C 
ENDBRANCH  22  25
ENDBRANCH  17  19
ENDBRANCH   2  17
TORSDOF 5
