REMARK  Name = ZINC55055341
REMARK  12 active torsions:
REMARK  status: ('A' for Active; 'I' for Inactive)
REMARK    1  A    between atoms: C_1  and  C_2
REMARK    2  A    between atoms: C_2  and  C_3
REMARK    3  A    between atoms: C_3  and  N_4
REMARK    4  A    between atoms: C_8  and  C_10
REMARK    5  A    between atoms: C_10  and  N_11
REMARK    6  A    between atoms: N_11  and  C_12
REMARK    7  A    between atoms: N_11  and  C_13
REMARK    8  A    between atoms: C_13  and  C_14
REMARK    9  A    between atoms: C_15  and  C_27
REMARK   10  A    between atoms: N_17  and  C_20
REMARK   11  A    between atoms: C_18  and  C_19
REMARK   12  A    between atoms: C_25  and  C_26
REMARK                            x       y       z     vdW  Elec       q    Type
REMARK                         _______ _______ _______ _____ _____    ______ ____
ROOT
ATOM      1  N   UNL     1       2.835  -6.591  -4.593  0.00  0.00    +0.386 N 
ATOM      2  C   UNL     1       2.010  -6.212  -5.748  0.00  0.00    -0.095 C 
ATOM      3  H   UNL     1       3.757  -6.194  -4.694  0.00  0.00    -0.081 HD
ENDROOT
BRANCH   1   4
ATOM      4  C   UNL     1       2.215  -6.084  -3.362  0.00  0.00    +0.019 C 
BRANCH   4   9
ATOM      5  N   UNL     1       1.187  -1.853  -1.324  0.00  0.00    -0.299 N 
ATOM      6  C   UNL     1       1.708  -2.541  -2.360  0.00  0.00    +0.306 C 
ATOM      7  O   UNL     1       2.183  -1.947  -3.307  0.00  0.00    -0.252 OA
ATOM      8  N   UNL     1       1.702  -3.889  -2.344  0.00  0.00    -0.242 N 
ATOM      9  C   UNL     1       2.223  -4.577  -3.379  0.00  0.00    +0.204 C 
ATOM     10  O   UNL     1       2.697  -3.984  -4.324  0.00  0.00    -0.277 OA
ATOM     11  H   UNL     1       0.808  -2.328  -0.568  0.00  0.00    +0.150 HD
ATOM     12  H   UNL     1       1.322  -4.364  -1.588  0.00  0.00    +0.159 HD
BRANCH   5  13
ATOM     13  C   UNL     1       1.194  -0.388  -1.341  0.00  0.00    +0.105 C 
BRANCH  13  15
ATOM     14  C   UNL     1       0.556   1.670  -0.076  0.00  0.00    +0.005 C 
ATOM     15  C   UNL     1       0.549   0.140  -0.058  0.00  0.00    +0.015 C 
ENDBRANCH  13  15
ENDBRANCH   5  13
ENDBRANCH   4   9
ENDBRANCH   1   4
BRANCH   1  16
ATOM     16  C   UNL     1       2.937  -8.055  -4.524  0.00  0.00    -0.039 C 
BRANCH  16  17
ATOM     17  C   UNL     1       3.682  -8.564  -5.731  0.00  0.00    -0.020 A 
ATOM     18  C   UNL     1       3.113  -8.932  -6.955  0.00  0.00    +0.062 A 
ATOM     19  N   UNL     1       4.074  -9.322  -7.753  0.00  0.00    -0.171 NA
ATOM     20  N   UNL     1       5.287  -9.215  -7.062  0.00  0.00    -0.236 N 
ATOM     21  C   UNL     1       5.020  -8.742  -5.824  0.00  0.00    +0.043 A 
ATOM     22  C   UNL     1       6.031  -8.466  -4.740  0.00  0.00    +0.066 C 
ATOM     23  C   UNL     1       1.645  -8.887  -7.296  0.00  0.00    +0.068 C 
BRANCH  20  24
ATOM     24  C   UNL     1       6.555  -9.537  -7.566  0.00  0.00    +0.069 A 
ATOM     25  C   UNL     1       7.598  -8.626  -7.459  0.00  0.00    +0.028 A 
ATOM     26  C   UNL     1       8.846  -8.947  -7.957  0.00  0.00    +0.002 A 
ATOM     27  C   UNL     1       9.057 -10.172  -8.561  0.00  0.00    +0.000 A 
ATOM     28  C   UNL     1       8.021 -11.081  -8.669  0.00  0.00    +0.005 A 
ATOM     29  C   UNL     1       6.772 -10.769  -8.168  0.00  0.00    -0.025 A 
ATOM     30  C   UNL     1       5.644 -11.762  -8.281  0.00  0.00    +0.046 C 
ENDBRANCH  20  24
ENDBRANCH  16  17
ENDBRANCH   1  16
TORSDOF 7
