REMARK  Name = ZINC51148166
REMARK  3 active torsions:
REMARK  status: ('A' for Active; 'I' for Inactive)
REMARK    1  A    between atoms: C_3  and  N_9
REMARK    2  A    between atoms: C_13  and  N_16
REMARK    3  A    between atoms: C_20  and  O_23
REMARK                            x       y       z     vdW  Elec       q    Type
REMARK                         _______ _______ _______ _____ _____    ______ ____
ROOT
ATOM      1  N   UNL     1       3.582   2.130  -0.021  0.00  0.00    -0.194 N 
ATOM      2  C   UNL     1       4.181   2.416  -1.194  0.00  0.00    +0.292 A 
ATOM      3  O   UNL     1       3.675   2.056  -2.246  0.00  0.00    -0.264 OA
ATOM      4  C   UNL     1       5.388   3.129  -1.199  0.00  0.00    +0.129 A 
ATOM      5  C   UNL     1       5.940   3.524   0.007  0.00  0.00    +0.074 A 
ATOM      6  C   UNL     1       5.277   3.202   1.210  0.00  0.00    +0.158 A 
ATOM      7  N   UNL     1       4.152   2.543   1.188  0.00  0.00    -0.170 NA
ATOM      8 CL   UNL     1       6.180   3.509  -2.696  0.00  0.00    -0.076 Cl
ENDROOT
BRANCH   1  11
ATOM      9  C   UNL     1      -0.016   1.385  -0.170  0.00  0.00    +0.022 A 
ATOM     10  C   UNL     1       1.172   2.089  -0.178  0.00  0.00    +0.031 A 
ATOM     11  C   UNL     1       2.377   1.419  -0.013  0.00  0.00    +0.088 A 
ATOM     12  C   UNL     1       2.383   0.039   0.161  0.00  0.00    +0.068 A 
ATOM     13  C   UNL     1       1.191  -0.660   0.168  0.00  0.00    +0.042 A 
ATOM     14  C   UNL     1      -0.007   0.012   0.003  0.00  0.00    +0.042 A 
ATOM     15 CL   UNL     1      -1.503  -0.869   0.012  0.00  0.00    -0.083 Cl
ATOM     16 CL   UNL     1       3.886  -0.804   0.368  0.00  0.00    -0.081 Cl
ENDBRANCH   1  11
BRANCH   5  17
ATOM     17  N   UNL     1       7.132   4.229   0.033  0.00  0.00    -0.325 N 
ATOM     18  C   UNL     1       7.222   5.569  -0.565  0.00  0.00    +0.105 C 
ATOM     19  C   UNL     1       7.778   6.539   0.482  0.00  0.00    +0.021 C 
ATOM     20  C   UNL     1       9.105   5.999   1.018  0.00  0.00    +0.034 C 
ATOM     21  C   UNL     1       8.873   4.645   1.691  0.00  0.00    +0.132 C 
ATOM     22  C   UNL     1       8.328   3.655   0.663  0.00  0.00    +0.136 C 
BRANCH  21  23
ATOM     23  O   UNL     1      10.107   4.156   2.219  0.00  0.00    -0.390 OA
ATOM     24  H   UNL     1      10.510   4.737   2.879  0.00  0.00    +0.210 HD
ENDBRANCH  21  23
ENDBRANCH   5  17
TORSDOF 3
