REMARK  Name = ZINC15961949
REMARK  8 active torsions:
REMARK  status: ('A' for Active; 'I' for Inactive)
REMARK    1  A    between atoms: C_3  and  N_21
REMARK    2  A    between atoms: C_6  and  C_7
REMARK    3  A    between atoms: C_7  and  C_9
REMARK    4  A    between atoms: C_7  and  O_20
REMARK    5  A    between atoms: C_9  and  N_10
REMARK    6  A    between atoms: C_11  and  C_12
REMARK    7  A    between atoms: C_15  and  O_19
REMARK    8  A    between atoms: C_17  and  O_18
REMARK                            x       y       z     vdW  Elec       q    Type
REMARK                         _______ _______ _______ _____ _____    ______ ____
ROOT
ATOM      1  C   UNL     1      -1.653  -1.150   1.460  0.00  0.00    +0.148 C 
ENDROOT
BRANCH   1   2
ATOM      2  N   UNL     1      -2.912  -1.899   1.467  0.00  0.00    -0.387 N 
ATOM      3  C   UNL     1      -2.925  -3.141   1.834  0.00  0.00    +0.090 C 
ATOM      4  H   UNL     1      -3.736  -1.464   1.197  0.00  0.00    +0.159 HD
BRANCH   3   5
ATOM      5  C   UNL     1      -4.203  -3.862   1.947  0.00  0.00    +0.032 A 
ATOM      6  C   UNL     1      -4.231  -5.165   2.453  0.00  0.00    +0.016 A 
ATOM      7  C   UNL     1      -5.429  -5.835   2.558  0.00  0.00    +0.046 A 
ATOM      8  C   UNL     1      -6.613  -5.221   2.162  0.00  0.00    +0.120 A 
ATOM      9  C   UNL     1      -6.596  -3.929   1.658  0.00  0.00    +0.091 A 
ATOM     10  C   UNL     1      -5.399  -3.242   1.554  0.00  0.00    +0.129 A 
BRANCH  10  11
ATOM     11  O   UNL     1      -5.381  -1.976   1.067  0.00  0.00    -0.506 OA
ATOM     12  H   UNL     1      -5.270  -1.925   0.107  0.00  0.00    +0.292 HD
ENDBRANCH  10  11
BRANCH   8  13
ATOM     13  O   UNL     1      -7.789  -5.890   2.269  0.00  0.00    -0.507 OA
ATOM     14  H   UNL     1      -8.238  -5.764   3.116  0.00  0.00    +0.292 HD
ENDBRANCH   8  13
ENDBRANCH   3   5
ENDBRANCH   1   2
BRANCH   1  15
ATOM     15  C   UNL     1      -1.299  -0.761   0.023  0.00  0.00    +0.163 C 
BRANCH  15  21
ATOM     16  C   UNL     1      -0.022   1.392   0.035  0.00  0.00    +0.008 A 
ATOM     17  C   UNL     1       1.166   2.098   0.028  0.00  0.00    +0.033 A 
ATOM     18  C   UNL     1       2.372   1.423   0.002  0.00  0.00    +0.126 A 
ATOM     19  C   UNL     1       2.390   0.041  -0.017  0.00  0.00    +0.033 A 
ATOM     20  C   UNL     1       1.202  -0.666  -0.009  0.00  0.00    +0.008 A 
ATOM     21  C   UNL     1      -0.004   0.010   0.016  0.00  0.00    -0.017 A 
BRANCH  18  22
ATOM     22  N   UNL     1       3.644   2.180  -0.006  0.00  0.00    +0.056 N 
ATOM     23  O   UNL     1       3.629   3.388   0.010  0.00  0.00    -0.126 OA
ATOM     24  O   UNL     1       4.699   1.589  -0.029  0.00  0.00    -0.126 OA
ENDBRANCH  18  22
ENDBRANCH  15  21
BRANCH  15  25
ATOM     25  O   UNL     1      -1.155  -1.942  -0.768  0.00  0.00    -0.385 OA
ATOM     26  H   UNL     1      -0.464  -2.542  -0.457  0.00  0.00    +0.210 HD
ENDBRANCH  15  25
ENDBRANCH   1  15
TORSDOF 8
