REMARK  Name = ZINC20544798
REMARK  5 active torsions:
REMARK  status: ('A' for Active; 'I' for Inactive)
REMARK    1  A    between atoms: C_1  and  C_2
REMARK    2  A    between atoms: C_7  and  N_12
REMARK    3  A    between atoms: C_9  and  C_11
REMARK    4  A    between atoms: N_12  and  C_13
REMARK    5  A    between atoms: C_18  and  N_19
REMARK                            x       y       z     vdW  Elec       q    Type
REMARK                         _______ _______ _______ _____ _____    ______ ____
ROOT
ATOM      1  N   UNL     1      -1.208   1.833  -1.071  0.00  0.00    -0.339 N 
ATOM      2  H   UNL     1      -1.277   1.218  -1.981  0.00  0.00    +0.146 HD
ENDROOT
BRANCH   1   8
ATOM      3  C   UNL     1      -0.753  -2.400   1.443  0.00  0.00    +0.008 C 
ATOM      4  C   UNL     1      -0.495  -0.892   1.465  0.00  0.00    -0.009 C 
ATOM      5  C   UNL     1       1.005  -0.632   1.617  0.00  0.00    +0.003 C 
ATOM      6  C   UNL     1       1.262   0.876   1.639  0.00  0.00    +0.002 C 
ATOM      7  C   UNL     1       0.767   1.497   0.332  0.00  0.00    +0.022 C 
ATOM      8  C   UNL     1      -0.734   1.238   0.181  0.00  0.00    +0.074 C 
ATOM      9  C   UNL     1      -0.991  -0.270   0.158  0.00  0.00    +0.009 C 
ATOM     10  C   UNL     1      -2.491  -0.530   0.006  0.00  0.00    +0.009 C 
ENDBRANCH   1   8
BRANCH   1  11
ATOM     11  C   UNL     1      -1.573   3.181  -1.110  0.00  0.00    +0.058 A 
ATOM     12  C   UNL     1      -1.600   3.928   0.061  0.00  0.00    +0.026 A 
ATOM     13  C   UNL     1      -1.957   5.262   0.019  0.00  0.00    +0.017 A 
ATOM     14  C   UNL     1      -2.297   5.851  -1.185  0.00  0.00    +0.020 A 
ATOM     15  C   UNL     1      -2.277   5.108  -2.352  0.00  0.00    +0.050 A 
ATOM     16  C   UNL     1      -1.916   3.775  -2.317  0.00  0.00    +0.148 A 
ATOM     17 BR   UNL     1      -2.792   7.675  -1.237  0.00  0.00    -0.050 Br
BRANCH  16  18
ATOM     18  N   UNL     1      -1.894   2.980  -3.566  0.00  0.00    +0.058 N 
ATOM     19  O   UNL     1      -1.026   2.144  -3.741  0.00  0.00    -0.126 OA
ATOM     20  O   UNL     1      -2.744   3.163  -4.419  0.00  0.00    -0.126 OA
ENDBRANCH  16  18
ENDBRANCH   1  11
TORSDOF 3
