REMARK  Name = ZINC46155518
REMARK  11 active torsions:
REMARK  status: ('A' for Active; 'I' for Inactive)
REMARK    1  A    between atoms: C_1  and  C_2
REMARK    2  A    between atoms: C_5  and  C_27
REMARK    3  A    between atoms: C_6  and  O_8
REMARK    4  A    between atoms: O_8  and  C_9
REMARK    5  A    between atoms: C_9  and  C_10
REMARK    6  A    between atoms: N_12  and  N_13
REMARK    7  A    between atoms: N_16  and  C_17
REMARK    8  A    between atoms: C_17  and  C_18
REMARK    9  A    between atoms: C_21  and  C_24
REMARK   10  A    between atoms: C_24  and  O_25
REMARK   11  A    between atoms: O_25  and  C_26
REMARK                            x       y       z     vdW  Elec       q    Type
REMARK                         _______ _______ _______ _____ _____    ______ ____
ROOT
ATOM      1  N   UNL     1       0.078  -3.286   7.105  0.00  0.00    -0.218 N 
ATOM      2  C   UNL     1       0.077  -2.780   8.354  0.00  0.00    +0.316 C 
ATOM      3  O   UNL     1       0.092  -3.527   9.313  0.00  0.00    -0.251 OA
ATOM      4  N   UNL     1       0.060  -1.445   8.540  0.00  0.00    -0.294 N 
ATOM      5  H   UNL     1       0.090  -4.247   6.971  0.00  0.00    +0.174 HD
ATOM      6  H   UNL     1       0.049  -0.849   7.775  0.00  0.00    +0.151 HD
ENDROOT
BRANCH   1   9
ATOM      7  C   UNL     1       0.063  -2.932   4.751  0.00  0.00    +0.267 C 
ATOM      8  O   UNL     1       0.078  -4.133   4.584  0.00  0.00    -0.271 OA
ATOM      9  N   UNL     1       0.062  -2.425   6.000  0.00  0.00    -0.230 N 
ATOM     10  H   UNL     1       0.050  -1.465   6.134  0.00  0.00    +0.173 HD
BRANCH   7  11
ATOM     11  C   UNL     1       0.045  -2.006   3.562  0.00  0.00    +0.326 C 
BRANCH  11  12
ATOM     12  O   UNL     1       0.050  -2.776   2.358  0.00  0.00    -0.482 OA
BRANCH  12  18
ATOM     13  C   UNL     1      -0.018   1.503   0.010  0.00  0.00    +0.044 C 
ATOM     14  C   UNL     1       0.002  -0.004   0.002  0.00  0.00    -0.047 A 
ATOM     15  C   UNL     1       0.006  -0.688  -1.200  0.00  0.00    +0.004 A 
ATOM     16  C   UNL     1       0.024  -2.071  -1.211  0.00  0.00    +0.007 A 
ATOM     17  C   UNL     1       0.039  -2.772  -0.020  0.00  0.00    -0.009 A 
ATOM     18  C   UNL     1       0.035  -2.088   1.186  0.00  0.00    +0.124 A 
ATOM     19  C   UNL     1       0.023  -0.700   1.195  0.00  0.00    +0.049 A 
ATOM     20  C   UNL     1       0.059  -4.279  -0.033  0.00  0.00    +0.047 C 
ENDBRANCH  12  18
ENDBRANCH  11  12
ENDBRANCH   7  11
ENDBRANCH   1   9
BRANCH   4  21
ATOM     21  C   UNL     1       0.059  -0.894   9.898  0.00  0.00    +0.141 C 
BRANCH  21  22
ATOM     22  C   UNL     1       0.039   0.611   9.829  0.00  0.00    -0.030 A 
ATOM     23  C   UNL     1       1.227   1.317   9.787  0.00  0.00    +0.005 A 
ATOM     24  C   UNL     1       1.208   2.698   9.724  0.00  0.00    +0.006 A 
ATOM     25  C   UNL     1       0.002   3.373   9.703  0.00  0.00    -0.022 A 
ATOM     26  C   UNL     1      -1.186   2.666   9.745  0.00  0.00    +0.006 A 
ATOM     27  C   UNL     1      -1.167   1.285   9.803  0.00  0.00    +0.005 A 
BRANCH  25  28
ATOM     28  C   UNL     1      -0.019   4.878   9.636  0.00  0.00    +0.194 C 
BRANCH  28  29
ATOM     29  O   UNL     1      -0.036   5.293   8.269  0.00  0.00    -0.378 OA
ATOM     30  C   UNL     1      -0.056   6.711   8.092  0.00  0.00    +0.194 C 
ENDBRANCH  28  29
ENDBRANCH  25  28
ENDBRANCH  21  22
ENDBRANCH   4  21
TORSDOF 8
