REMARK  Name = ZINC35771266
REMARK  12 active torsions:
REMARK  status: ('A' for Active; 'I' for Inactive)
REMARK    1  A    between atoms: C_1  and  C_2
REMARK    2  A    between atoms: C_2  and  C_3
REMARK    3  A    between atoms: C_3  and  C_5
REMARK    4  A    between atoms: C_3  and  C_6
REMARK    5  A    between atoms: C_9  and  C_12
REMARK    6  A    between atoms: C_12  and  C_14
REMARK    7  A    between atoms: C_12  and  N_17
REMARK    8  A    between atoms: C_14  and  C_15
REMARK    9  A    between atoms: C_14  and  C_16
REMARK   10  A    between atoms: C_18  and  C_20
REMARK   11  A    between atoms: C_20  and  N_21
REMARK   12  A    between atoms: C_29  and  C_31
REMARK                            x       y       z     vdW  Elec       q    Type
REMARK                         _______ _______ _______ _____ _____    ______ ____
ROOT
ATOM      1  N   UNL     1       0.674  -6.730   2.825  0.00  0.00    -0.307 N 
ATOM      2  C   UNL     1       1.145  -7.973   3.045  0.00  0.00    +0.231 C 
ATOM      3  O   UNL     1       1.353  -8.717   2.110  0.00  0.00    -0.274 OA
ATOM      4  H   UNL     1       0.507  -6.135   3.573  0.00  0.00    +0.149 HD
ENDROOT
BRANCH   1   5
ATOM      5  C   UNL     1       0.414  -6.276   1.457  0.00  0.00    +0.106 C 
BRANCH   5   9
ATOM      6  C   UNL     1       0.657  -2.014   1.298  0.00  0.00    -0.045 A 
ATOM      7  C   UNL     1       1.179  -2.775   0.269  0.00  0.00    +0.004 A 
ATOM      8  C   UNL     1       1.101  -4.154   0.320  0.00  0.00    +0.006 A 
ATOM      9  C   UNL     1       0.500  -4.773   1.401  0.00  0.00    -0.027 A 
ATOM     10  C   UNL     1      -0.021  -4.012   2.431  0.00  0.00    +0.006 A 
ATOM     11  C   UNL     1       0.061  -2.633   2.381  0.00  0.00    +0.004 A 
BRANCH   6  12
ATOM     12  C   UNL     1       0.742  -0.511   1.242  0.00  0.00    +0.016 C 
ATOM     13  C   UNL     1       2.210  -0.086   1.169  0.00  0.00    +0.012 C 
BRANCH  12  15
ATOM     14  C   UNL     1      -0.019   1.526   0.010  0.00  0.00    +0.004 C 
ATOM     15  C   UNL     1       0.002  -0.004   0.002  0.00  0.00    +0.004 C 
ENDBRANCH  12  15
ENDBRANCH   6  12
ENDBRANCH   5   9
BRANCH   5  16
ATOM     16  C   UNL     1      -0.985  -6.723   1.028  0.00  0.00    +0.008 C 
ATOM     17  C   UNL     1      -1.256  -6.249  -0.401  0.00  0.00    +0.009 C 
ATOM     18  C   UNL     1      -1.072  -8.250   1.085  0.00  0.00    +0.009 C 
ENDBRANCH   5  16
ENDBRANCH   1   5
BRANCH   2  19
ATOM     19  C   UNL     1       1.412  -8.440   4.453  0.00  0.00    +0.213 C 
BRANCH  19  20
ATOM     20  N   UNL     1       1.914  -9.816   4.425  0.00  0.00    -0.215 N 
ATOM     21  C   UNL     1       1.128 -10.911   4.476  0.00  0.00    +0.247 C 
ATOM     22  O   UNL     1      -0.082 -10.944   4.551  0.00  0.00    -0.273 OA
ATOM     23  C   UNL     1       2.073 -12.089   4.418  0.00  0.00    +0.115 C 
ATOM     24  C   UNL     1       1.794 -12.935   3.180  0.00  0.00    +0.035 C 
ATOM     25  C   UNL     1       0.386 -13.530   3.274  0.00  0.00    +0.003 C 
ATOM     26  C   UNL     1       0.281 -14.391   4.535  0.00  0.00    +0.000 C 
ATOM     27  C   UNL     1       0.543 -13.526   5.769  0.00  0.00    +0.006 C 
ATOM     28  C   UNL     1       1.951 -12.930   5.684  0.00  0.00    +0.018 C 
ATOM     29  C   UNL     1       2.206 -12.049   6.909  0.00  0.00    +0.010 C 
ATOM     30  N   UNL     1       3.404 -11.475   4.334  0.00  0.00    -0.285 N 
ATOM     31  C   UNL     1       3.209 -10.143   4.338  0.00  0.00    +0.310 C 
ATOM     32  O   UNL     1       4.109  -9.328   4.275  0.00  0.00    -0.252 OA
ATOM     33  H   UNL     1       4.255 -11.938   4.281  0.00  0.00    +0.151 HD
ENDBRANCH  19  20
ENDBRANCH   2  19
TORSDOF 7
