REMARK  Name = ZINC41332850
REMARK  5 active torsions:
REMARK  status: ('A' for Active; 'I' for Inactive)
REMARK    1  A    between atoms: C_5  and  C_11
REMARK    2  A    between atoms: N_13  and  C_14
REMARK    3  A    between atoms: C_14  and  C_15
REMARK    4  A    between atoms: C_15  and  C_17
REMARK    5  A    between atoms: C_15  and  N_22
REMARK                            x       y       z     vdW  Elec       q    Type
REMARK                         _______ _______ _______ _____ _____    ______ ____
ROOT
ATOM      1  C   UNL     1       8.494   1.411   1.240  0.00  0.00    +0.279 C 
ATOM      2  O   UNL     1       8.017   2.084   0.345  0.00  0.00    -0.267 OA
ATOM      3  N   UNL     1       8.643   0.082   1.077  0.00  0.00    -0.310 N 
ATOM      4  H   UNL     1       9.024  -0.454   1.790  0.00  0.00    +0.149 HD
ENDROOT
BRANCH   1   9
ATOM      5  C   UNL     1      10.041   4.476   6.212  0.00  0.00    +0.004 A 
ATOM      6  C   UNL     1       9.501   4.651   4.969  0.00  0.00    +0.012 A 
ATOM      7  C   UNL     1       9.333   3.550   4.125  0.00  0.00    +0.024 A 
ATOM      8  C   UNL     1       8.805   3.375   2.772  0.00  0.00    +0.063 A 
ATOM      9  C   UNL     1       8.908   2.049   2.498  0.00  0.00    +0.191 A 
ATOM     10  O   UNL     1       9.447   1.405   3.554  0.00  0.00    -0.447 OA
ATOM     11  C   UNL     1       9.717   2.267   4.554  0.00  0.00    +0.171 A 
ATOM     12  C   UNL     1      10.264   2.112   5.824  0.00  0.00    +0.166 A 
ATOM     13  C   UNL     1      10.423   3.212   6.642  0.00  0.00    +0.042 A 
ATOM     14  F   UNL     1      10.640   0.888   6.255  0.00  0.00    -0.202 F 
ENDBRANCH   1   9
BRANCH   3  15
ATOM     15  C   UNL     1       8.231  -0.554  -0.177  0.00  0.00    +0.094 C 
BRANCH  15  16
ATOM     16  C   UNL     1       8.626  -2.031  -0.154  0.00  0.00    -0.013 C 
BRANCH  16  17
ATOM     17  N   UNL     1       8.099  -2.698  -1.352  0.00  0.00    +0.386 N 
ATOM     18  C   UNL     1       8.457  -4.140  -1.336  0.00  0.00    -0.078 C 
ATOM     19  C   UNL     1       7.409  -4.776  -2.282  0.00  0.00    -0.020 C 
ATOM     20  C   UNL     1       6.126  -3.972  -1.969  0.00  0.00    -0.020 C 
ATOM     21  C   UNL     1       6.621  -2.650  -1.353  0.00  0.00    -0.078 C 
ATOM     22  H   UNL     1       8.462  -2.258  -2.184  0.00  0.00    -0.081 HD
ENDBRANCH  16  17
BRANCH  16  23
ATOM     23  C   UNL     1      10.129  -2.149  -0.134  0.00  0.00    -0.022 A 
ATOM     24  C   UNL     1      10.952  -2.390   0.915  0.00  0.00    +0.009 A 
ATOM     25  C   UNL     1      12.315  -2.457   0.696  0.00  0.00    +0.008 A 
ATOM     26  C   UNL     1      12.788  -2.279  -0.562  0.00  0.00    +0.045 A 
ATOM     27  S   UNL     1      11.285  -2.014  -1.488  0.00  0.00    -0.103 S 
ENDBRANCH  16  23
ENDBRANCH  15  16
ENDBRANCH   3  15
TORSDOF 5
