REMARK  Name = ZINC11268832
REMARK  4 active torsions:
REMARK  status: ('A' for Active; 'I' for Inactive)
REMARK    1  A    between atoms: C_1  and  C_2
REMARK    2  A    between atoms: N_10  and  N_14
REMARK    3  A    between atoms: C_15  and  C_17
REMARK    4  A    between atoms: C_17  and  N_18
REMARK                            x       y       z     vdW  Elec       q    Type
REMARK                         _______ _______ _______ _____ _____    ______ ____
ROOT
ATOM      1  N   UNL     1      -2.224   5.891   3.803  0.00  0.00    -0.222 N 
ATOM      2  C   UNL     1      -1.542   5.290   2.808  0.00  0.00    +0.248 C 
ATOM      3  O   UNL     1      -1.891   4.201   2.405  0.00  0.00    -0.273 OA
ATOM      4  H   UNL     1      -1.944   6.762   4.125  0.00  0.00    +0.174 HD
ENDROOT
BRANCH   1  14
ATOM      5  C   UNL     1      -8.847   2.665   6.744  0.00  0.00    +0.007 C 
ATOM      6  C   UNL     1      -8.021   3.641   5.904  0.00  0.00    -0.014 C 
ATOM      7  C   UNL     1      -7.181   2.858   4.892  0.00  0.00    +0.006 C 
ATOM      8  C   UNL     1      -6.364   3.837   4.045  0.00  0.00    +0.035 C 
ATOM      9  C   UNL     1      -5.458   4.663   4.952  0.00  0.00    +0.114 C 
ATOM     10  C   UNL     1      -6.282   5.432   5.979  0.00  0.00    +0.035 C 
ATOM     11  C   UNL     1      -7.100   4.448   6.820  0.00  0.00    +0.006 C 
ATOM     12  C   UNL     1      -4.615   5.617   4.136  0.00  0.00    +0.263 C 
ATOM     13  O   UNL     1      -5.006   6.513   3.420  0.00  0.00    -0.271 OA
ATOM     14  N   UNL     1      -3.336   5.258   4.372  0.00  0.00    -0.137 N 
ATOM     15  C   UNL     1      -3.262   4.225   5.220  0.00  0.00    +0.326 C 
ATOM     16  O   UNL     1      -2.217   3.726   5.588  0.00  0.00    -0.251 OA
ATOM     17  N   UNL     1      -4.476   3.801   5.621  0.00  0.00    -0.284 N 
ATOM     18  H   UNL     1      -4.664   3.071   6.231  0.00  0.00    +0.151 HD
ENDBRANCH   1  14
BRANCH   2  19
ATOM     19  C   UNL     1      -0.344   5.971   2.196  0.00  0.00    +0.215 C 
BRANCH  19  20
ATOM     20  N   UNL     1       0.217   5.120   1.144  0.00  0.00    -0.215 N 
ATOM     21  C   UNL     1       1.171   4.187   1.351  0.00  0.00    +0.251 C 
ATOM     22  O   UNL     1       1.708   3.903   2.401  0.00  0.00    -0.272 OA
ATOM     23  C   UNL     1       1.427   3.575  -0.001  0.00  0.00    +0.138 C 
ATOM     24  C   UNL     1       2.889   3.756  -0.427  0.00  0.00    +0.045 C 
ATOM     25  C   UNL     1       3.521   2.410  -0.005  0.00  0.00    +0.038 C 
ATOM     26  C   UNL     1       2.378   1.416  -0.009  0.00  0.00    -0.042 A 
ATOM     27  C   UNL     1       1.169   2.092   0.002  0.00  0.00    -0.012 A 
ATOM     28  C   UNL     1      -0.017   1.377   0.010  0.00  0.00    +0.006 A 
ATOM     29  C   UNL     1       0.002  -0.004   0.002  0.00  0.00    +0.000 A 
ATOM     30  C   UNL     1       1.209  -0.678  -0.013  0.00  0.00    +0.000 A 
ATOM     31  C   UNL     1       2.393   0.032  -0.018  0.00  0.00    +0.004 A 
ATOM     32  N   UNL     1       0.517   4.282  -0.904  0.00  0.00    -0.281 N 
ATOM     33  C   UNL     1      -0.152   5.171  -0.142  0.00  0.00    +0.310 C 
ATOM     34  O   UNL     1      -0.996   5.931  -0.574  0.00  0.00    -0.252 OA
ATOM     35  H   UNL     1       0.416   4.139  -1.858  0.00  0.00    +0.152 HD
ENDBRANCH  19  20
ENDBRANCH   2  19
TORSDOF 3
