REMARK  Name = ZINC19418614
REMARK  5 active torsions:
REMARK  status: ('A' for Active; 'I' for Inactive)
REMARK    1  A    between atoms: C_1  and  C_2
REMARK    2  A    between atoms: C_3  and  C_19
REMARK    3  A    between atoms: C_4  and  C_12
REMARK    4  A    between atoms: C_5  and  C_9
REMARK    5  A    between atoms: C_6  and  C_8
REMARK                            x       y       z     vdW  Elec       q    Type
REMARK                         _______ _______ _______ _____ _____    ______ ____
ROOT
ATOM      1  C   UNL     1      -4.671  -3.167   0.644  0.00  0.00    +0.061 C 
ATOM      2  C   UNL     1      -3.511  -2.259   0.327  0.00  0.00    +0.014 C 
ATOM      3  C   UNL     1      -3.636  -0.934   0.512  0.00  0.00    +0.043 C 
ATOM      4  C   UNL     1      -2.510   0.009   0.207  0.00  0.00    +0.092 C 
ATOM      5  C   UNL     1      -1.212  -0.735   0.068  0.00  0.00    +0.043 C 
ATOM      6  C   UNL     1      -1.183  -2.067  -0.100  0.00  0.00    +0.014 C 
ATOM      7  N   UNL     1      -2.343  -2.793  -0.146  0.00  0.00    -0.321 N 
ATOM      8  C   UNL     1       0.142  -2.771  -0.238  0.00  0.00    +0.061 C 
ATOM      9  H   UNL     1      -2.333  -3.810  -0.565  0.00  0.00    +0.152 HD
ENDROOT
BRANCH   4  10
ATOM     10  C   UNL     1      -2.808   0.731  -1.082  0.00  0.00    -0.035 A 
ATOM     11  C   UNL     1      -2.947   0.018  -2.258  0.00  0.00    +0.005 A 
ATOM     12  C   UNL     1      -3.226   0.679  -3.439  0.00  0.00    +0.015 A 
ATOM     13  C   UNL     1      -3.355   2.056  -3.447  0.00  0.00    +0.018 A 
ATOM     14  C   UNL     1      -3.211   2.770  -2.271  0.00  0.00    +0.015 A 
ATOM     15  C   UNL     1      -2.937   2.108  -1.089  0.00  0.00    +0.005 A 
ATOM     16 BR   UNL     1      -3.730   2.962  -5.064  0.00  0.00    -0.050 Br
ENDBRANCH   4  10
BRANCH   5  17
ATOM     17  C   UNL     1       0.008  -0.017   0.120  0.00  0.00    +0.240 C 
ATOM     18  O   UNL     1       0.476   0.311   1.195  0.00  0.00    -0.271 OA
ATOM     19  N   UNL     1       0.650   0.305  -1.021  0.00  0.00    -0.326 N 
ATOM     20  H   UNL     1       1.597   0.862  -0.980  0.00  0.00    +0.145 HD
ATOM     21  H   UNL     1       0.227   0.009  -1.992  0.00  0.00    +0.145 HD
ENDBRANCH   5  17
BRANCH   3  22
ATOM     22  C   UNL     1      -4.856  -0.416   1.011  0.00  0.00    +0.240 C 
ATOM     23  O   UNL     1      -5.778  -1.170   1.268  0.00  0.00    -0.271 OA
ATOM     24  N   UNL     1      -4.997   0.910   1.202  0.00  0.00    -0.326 N 
ATOM     25  H   UNL     1      -5.945   1.312   1.590  0.00  0.00    +0.145 HD
ATOM     26  H   UNL     1      -4.165   1.591   0.971  0.00  0.00    +0.145 HD
ENDBRANCH   3  22
TORSDOF 3
