REMARK  Name = ZINC35462798
REMARK  5 active torsions:
REMARK  status: ('A' for Active; 'I' for Inactive)
REMARK    1  A    between atoms: C_1  and  C_2
REMARK    2  A    between atoms: C_2  and  O_3
REMARK    3  A    between atoms: O_3  and  C_4
REMARK    4  A    between atoms: C_7  and  N_10
REMARK    5  A    between atoms: C_11  and  C_13
REMARK                            x       y       z     vdW  Elec       q    Type
REMARK                         _______ _______ _______ _____ _____    ______ ____
ROOT
ATOM      1  C   UNL     1       1.651  -7.929  -3.195  0.00  0.00    +0.247 C 
ATOM      2  N   UNL     1       2.649  -8.259  -4.209  0.00  0.00    -0.319 N 
ATOM      3  C   UNL     1       2.510  -7.929  -5.555  0.00  0.00    +0.058 A 
ATOM      4  C   UNL     1       3.653  -7.856  -6.349  0.00  0.00    +0.063 A 
ATOM      5  C   UNL     1       3.547  -7.547  -7.692  0.00  0.00    +0.125 A 
ATOM      6  C   UNL     1       2.305  -7.309  -8.257  0.00  0.00    +0.040 A 
ATOM      7  C   UNL     1       1.169  -7.373  -7.472  0.00  0.00    +0.033 A 
ATOM      8  C   UNL     1       1.272  -7.674  -6.129  0.00  0.00    +0.126 A 
ATOM      9  S   UNL     1      -0.180  -7.715  -5.123  0.00  0.00    +0.062 S 
ATOM     10  O   UNL     1      -0.545  -6.367  -4.863  0.00  0.00    -0.153 OA
ATOM     11  O   UNL     1      -1.070  -8.651  -5.716  0.00  0.00    -0.153 OA
ATOM     12  N   UNL     1       0.324  -8.371  -3.670  0.00  0.00    -0.161 NA
ATOM     13  F   UNL     1       4.659  -7.477  -8.456  0.00  0.00    -0.205 F 
ATOM     14  H   UNL     1       3.449  -8.732  -3.932  0.00  0.00    +0.148 HD
ATOM     15  H   UNL     1      -0.217  -9.004  -3.172  0.00  0.00    +0.151 HD
ENDROOT
BRANCH   1  17
ATOM     16  N   UNL     1       0.993  -5.929  -1.896  0.00  0.00    -0.283 N 
ATOM     17  C   UNL     1       1.635  -6.440  -2.966  0.00  0.00    +0.254 C 
ATOM     18  O   UNL     1       2.201  -5.701  -3.743  0.00  0.00    -0.272 OA
ATOM     19  H   UNL     1       0.598  -6.523  -1.239  0.00  0.00    +0.155 HD
BRANCH  16  23
ATOM     20  C   UNL     1       0.705  -1.798  -1.416  0.00  0.00    +0.121 A 
ATOM     21  C   UNL     1       1.847  -2.352  -1.974  0.00  0.00    +0.047 A 
ATOM     22  C   UNL     1       1.943  -3.721  -2.133  0.00  0.00    +0.027 A 
ATOM     23  C   UNL     1       0.896  -4.541  -1.735  0.00  0.00    +0.034 A 
ATOM     24  C   UNL     1      -0.247  -3.985  -1.176  0.00  0.00    +0.027 A 
ATOM     25  C   UNL     1      -0.339  -2.617  -1.012  0.00  0.00    +0.047 A 
BRANCH  20  26
ATOM     26  O   UNL     1       0.610  -0.450  -1.259  0.00  0.00    -0.492 OA
BRANCH  26  28
ATOM     27  C   UNL     1       1.435   1.814  -1.442  0.00  0.00    +0.048 C 
ATOM     28  C   UNL     1       1.722   0.333  -1.697  0.00  0.00    +0.225 C 
ENDBRANCH  26  28
ENDBRANCH  20  26
ENDBRANCH  16  23
ENDBRANCH   1  17
TORSDOF 4
