REMARK  Name = ZINC00104520
REMARK  5 active torsions:
REMARK  status: ('A' for Active; 'I' for Inactive)
REMARK    1  A    between atoms: C_1  and  C_2
REMARK    2  A    between atoms: C_2  and  O_3
REMARK    3  A    between atoms: O_3  and  C_4
REMARK    4  A    between atoms: C_6  and  C_11
REMARK    5  A    between atoms: C_9  and  O_10
REMARK                            x       y       z     vdW  Elec       q    Type
REMARK                         _______ _______ _______ _____ _____    ______ ____
ROOT
ATOM      1  C   UNL     1       1.357   2.002  -0.000  0.00  0.00    +0.008 C 
ATOM      2  C   UNL     1       2.218   1.217  -0.948  0.00  0.00    +0.014 A 
ATOM      3  C   UNL     1       2.677   1.581  -2.157  0.00  0.00    +0.022 A 
ATOM      4  C   UNL     1       3.450   0.509  -2.656  0.00  0.00    +0.020 A 
ATOM      5  C   UNL     1       3.431  -0.473  -1.726  0.00  0.00    +0.091 A 
ATOM      6  N   UNL     1       2.678  -0.045  -0.687  0.00  0.00    -0.321 N 
ATOM      7  C   UNL     1       2.341  -0.687   0.517  0.00  0.00    +0.048 A 
ATOM      8  C   UNL     1       3.288  -1.302   1.312  0.00  0.00    +0.026 A 
ATOM      9  C   UNL     1       2.922  -1.786   2.555  0.00  0.00    +0.002 A 
ATOM     10  C   UNL     1       1.617  -1.653   2.992  0.00  0.00    +0.000 A 
ATOM     11  C   UNL     1       0.663  -1.062   2.183  0.00  0.00    +0.004 A 
ATOM     12  C   UNL     1       1.016  -0.596   0.933  0.00  0.00    -0.041 A 
ATOM     13  C   UNL     1       0.002  -0.004   0.002  0.00  0.00    -0.043 C 
ATOM     14  N   UNL     1      -0.023   1.473   0.010  0.00  0.00    +0.390 N 
ATOM     15  H   UNL     1      -0.522   1.810  -0.822  0.00  0.00    -0.084 HD
ATOM     16  H   UNL     1      -0.506   1.801   0.855  0.00  0.00    -0.084 HD
ENDROOT
BRANCH   1  19
ATOM     17  C   UNL     1       2.124   5.695  -0.210  0.00  0.00    +0.162 A 
ATOM     18  C   UNL     1       2.149   4.368   0.188  0.00  0.00    +0.051 A 
ATOM     19  C   UNL     1       1.328   3.445  -0.434  0.00  0.00    -0.052 A 
ATOM     20  C   UNL     1       0.486   3.842  -1.456  0.00  0.00    +0.006 A 
ATOM     21  C   UNL     1       0.452   5.165  -1.853  0.00  0.00    +0.049 A 
ATOM     22  C   UNL     1       1.272   6.096  -1.234  0.00  0.00    +0.158 A 
BRANCH  22  23
ATOM     23  O   UNL     1       1.244   7.397  -1.628  0.00  0.00    -0.503 OA
ATOM     24  H   UNL     1       1.870   7.608  -2.334  0.00  0.00    +0.292 HD
ENDBRANCH  22  23
BRANCH  17  25
ATOM     25  O   UNL     1       2.930   6.605   0.401  0.00  0.00    -0.489 OA
BRANCH  25  27
ATOM     26  C   UNL     1       4.604   7.281   2.007  0.00  0.00    +0.048 C 
ATOM     27  C   UNL     1       3.778   6.122   1.445  0.00  0.00    +0.226 C 
ENDBRANCH  25  27
ENDBRANCH  17  25
ENDBRANCH   1  19
TORSDOF 4
