REMARK  Name = ZINC39858931
REMARK  7 active torsions:
REMARK  status: ('A' for Active; 'I' for Inactive)
REMARK    1  A    between atoms: C_1  and  C_2
REMARK    2  A    between atoms: C_2  and  N_3
REMARK    3  A    between atoms: N_5  and  C_19
REMARK    4  A    between atoms: C_9  and  C_10
REMARK    5  A    between atoms: C_9  and  C_11
REMARK    6  A    between atoms: C_14  and  O_17
REMARK    7  A    between atoms: C_19  and  C_20
REMARK                            x       y       z     vdW  Elec       q    Type
REMARK                         _______ _______ _______ _____ _____    ______ ____
ROOT
ATOM      1  N   UNL     1      -1.372  -0.511   0.012  0.00  0.00    -0.263 NA
ATOM      2  C   UNL     1      -1.829  -1.179  -1.011  0.00  0.00    +0.163 C 
ATOM      3  N   UNL     1      -3.084  -1.727  -1.188  0.00  0.00    -0.247 N 
ATOM      4  C   UNL     1      -3.382  -2.380  -2.298  0.00  0.00    +0.259 C 
ATOM      5  O   UNL     1      -4.483  -2.869  -2.472  0.00  0.00    -0.269 OA
ATOM      6  C   UNL     1      -2.320  -2.489  -3.317  0.00  0.00    +0.081 C 
ATOM      7  C   UNL     1      -2.351  -3.094  -4.531  0.00  0.00    -0.024 C 
ATOM      8  C   UNL     1      -3.608  -3.783  -4.997  0.00  0.00    +0.045 C 
ATOM      9  S   UNL     1      -0.985  -1.602  -2.526  0.00  0.00    -0.049 S 
ENDROOT
BRANCH   7  10
ATOM     10  C   UNL     1      -1.160  -3.077  -5.390  0.00  0.00    -0.021 A 
ATOM     11  C   UNL     1      -0.678  -1.865  -5.899  0.00  0.00    +0.012 A 
ATOM     12  C   UNL     1       0.439  -1.856  -6.704  0.00  0.00    +0.046 A 
ATOM     13  C   UNL     1       1.088  -3.046  -7.012  0.00  0.00    +0.117 A 
ATOM     14  C   UNL     1       0.613  -4.252  -6.510  0.00  0.00    +0.046 A 
ATOM     15  C   UNL     1      -0.500  -4.273  -5.699  0.00  0.00    +0.012 A 
BRANCH  13  16
ATOM     16  O   UNL     1       2.189  -3.031  -7.806  0.00  0.00    -0.507 OA
ATOM     17  H   UNL     1       3.021  -2.931  -7.323  0.00  0.00    +0.292 HD
ENDBRANCH  13  16
ENDBRANCH   7  10
BRANCH   1  19
ATOM     18  C   UNL     1      -0.019   1.526   0.010  0.00  0.00    +0.029 C 
ATOM     19  C   UNL     1       0.002  -0.004   0.002  0.00  0.00    +0.141 C 
ENDBRANCH   1  19
BRANCH   3  20
ATOM     20  C   UNL     1      -4.093  -1.583  -0.136  0.00  0.00    +0.112 C 
ATOM     21  C   UNL     1      -4.897  -0.302  -0.372  0.00  0.00    +0.025 C 
ENDBRANCH   3  20
TORSDOF 4
