REMARK  Name = ZINC20935965
REMARK  5 active torsions:
REMARK  status: ('A' for Active; 'I' for Inactive)
REMARK    1  A    between atoms: C_3  and  C_6
REMARK    2  A    between atoms: C_6  and  C_8
REMARK    3  A    between atoms: C_6  and  N_24
REMARK    4  A    between atoms: C_8  and  N_9
REMARK    5  A    between atoms: C_10  and  C_12
REMARK                            x       y       z     vdW  Elec       q    Type
REMARK                         _______ _______ _______ _____ _____    ______ ____
ROOT
ATOM      1  N   UNL     1       1.311   6.897  -4.039  0.00  0.00    -0.312 N 
ATOM      2  C   UNL     1       0.661   6.722  -2.872  0.00  0.00    +0.244 C 
ATOM      3  O   UNL     1       0.412   7.680  -2.165  0.00  0.00    -0.270 OA
ATOM      4  H   UNL     1       1.537   6.031  -4.678  0.00  0.00    +0.149 HD
ENDROOT
BRANCH   2   5
ATOM      5  C   UNL     1       0.252   5.368  -2.450  0.00  0.00    +0.042 A 
ATOM      6  C   UNL     1      -0.422   5.185  -1.239  0.00  0.00    +0.062 A 
ATOM      7  C   UNL     1      -0.800   3.915  -0.853  0.00  0.00    +0.164 A 
ATOM      8  C   UNL     1      -0.512   2.823  -1.664  0.00  0.00    +0.180 A 
ATOM      9  C   UNL     1       0.156   3.001  -2.867  0.00  0.00    +0.087 A 
ATOM     10  C   UNL     1       0.538   4.267  -3.261  0.00  0.00    +0.037 A 
ATOM     11 CL   UNL     1       0.512   1.633  -3.875  0.00  0.00    -0.080 Cl
ATOM     12  O   UNL     1      -0.892   1.574  -1.269  0.00  0.00    -0.487 OA
ATOM     13  C   UNL     1      -0.210   1.044  -0.131  0.00  0.00    +0.232 C 
ATOM     14  C   UNL     1      -0.859   1.523   1.158  0.00  0.00    +0.082 C 
ATOM     15  C   UNL     1      -0.735   3.028   1.343  0.00  0.00    +0.232 C 
ATOM     16  O   UNL     1      -1.460   3.724   0.327  0.00  0.00    -0.488 OA
ENDBRANCH   2   5
BRANCH   1  17
ATOM     17  C   UNL     1       1.717   8.241  -4.457  0.00  0.00    +0.097 C 
BRANCH  17  18
ATOM     18  C   UNL     1       2.431   8.161  -5.808  0.00  0.00    +0.016 C 
BRANCH  18  19
ATOM     19  N   UNL     1       3.550   7.213  -5.715  0.00  0.00    +0.387 N 
ATOM     20  C   UNL     1       4.478   7.598  -4.644  0.00  0.00    -0.078 C 
ATOM     21  C   UNL     1       5.546   6.515  -4.480  0.00  0.00    -0.019 C 
ATOM     22  C   UNL     1       6.304   6.348  -5.801  0.00  0.00    -0.004 C 
ATOM     23  C   UNL     1       5.308   5.996  -6.910  0.00  0.00    -0.019 C 
ATOM     24  C   UNL     1       4.246   7.094  -7.003  0.00  0.00    -0.078 C 
ATOM     25  H   UNL     1       3.138   6.225  -5.464  0.00  0.00    -0.081 HD
ENDBRANCH  18  19
BRANCH  18  28
ATOM     26  C   UNL     1       3.250  11.495  -7.149  0.00  0.00    +0.041 A 
ATOM     27  C   UNL     1       2.460  10.323  -7.141  0.00  0.00    +0.043 A 
ATOM     28  C   UNL     1       2.957   9.524  -6.180  0.00  0.00    +0.093 A 
ATOM     29  O   UNL     1       3.997  10.149  -5.604  0.00  0.00    -0.469 OA
ATOM     30  C   UNL     1       4.183  11.342  -6.192  0.00  0.00    +0.195 A 
ENDBRANCH  18  28
ENDBRANCH  17  18
ENDBRANCH   1  17
TORSDOF 5
