REMARK  Name = ZINC13005654
REMARK  7 active torsions:
REMARK  status: ('A' for Active; 'I' for Inactive)
REMARK    1  A    between atoms: C_1  and  C_2
REMARK    2  A    between atoms: C_3  and  N_15
REMARK    3  A    between atoms: N_6  and  C_9
REMARK    4  A    between atoms: N_7  and  C_8
REMARK    5  A    between atoms: C_16  and  C_18
REMARK    6  A    between atoms: C_18  and  N_19
REMARK    7  A    between atoms: C_20  and  C_22
REMARK                            x       y       z     vdW  Elec       q    Type
REMARK                         _______ _______ _______ _____ _____    ______ ____
ROOT
ATOM      1  N   UNL     1      -0.859  -0.671   2.396  0.00  0.00    -0.278 N 
ATOM      2  C   UNL     1       0.054  -1.255   3.197  0.00  0.00    +0.235 C 
ATOM      3  O   UNL     1       0.704  -0.581   3.969  0.00  0.00    -0.274 OA
ATOM      4  H   UNL     1      -1.430  -1.217   1.834  0.00  0.00    +0.155 HD
ENDROOT
BRANCH   1   7
ATOM      5  C   UNL     1      -0.677   1.063  -0.129  0.00  0.00    +0.067 C 
ATOM      6  C   UNL     1      -0.909   1.528   1.286  0.00  0.00    +0.059 A 
ATOM      7  C   UNL     1      -0.983   0.732   2.376  0.00  0.00    +0.121 A 
ATOM      8  C   UNL     1      -1.215   1.600   3.531  0.00  0.00    +0.293 A 
ATOM      9  O   UNL     1      -1.338   1.247   4.690  0.00  0.00    -0.264 OA
ATOM     10  N   UNL     1      -1.266   2.866   3.067  0.00  0.00    -0.216 N 
ATOM     11  N   UNL     1      -1.073   2.829   1.682  0.00  0.00    -0.282 N 
ATOM     12  C   UNL     1      -1.053   3.996   0.796  0.00  0.00    +0.171 C 
BRANCH  10  13
ATOM     13  C   UNL     1      -1.472   4.015   3.838  0.00  0.00    +0.067 A 
ATOM     14  C   UNL     1      -0.739   4.213   5.001  0.00  0.00    +0.028 A 
ATOM     15  C   UNL     1      -0.939   5.352   5.756  0.00  0.00    +0.002 A 
ATOM     16  C   UNL     1      -1.877   6.289   5.361  0.00  0.00    +0.000 A 
ATOM     17  C   UNL     1      -2.613   6.091   4.207  0.00  0.00    +0.002 A 
ATOM     18  C   UNL     1      -2.413   4.958   3.444  0.00  0.00    +0.028 A 
ENDBRANCH  10  13
ENDBRANCH   1   7
BRANCH   2  19
ATOM     19  C   UNL     1       0.267  -2.746   3.135  0.00  0.00    +0.200 C 
BRANCH  19  20
ATOM     20  N   UNL     1       1.304  -3.132   4.096  0.00  0.00    -0.300 N 
ATOM     21  C   UNL     1       1.664  -4.425   4.216  0.00  0.00    +0.280 C 
ATOM     22  O   UNL     1       1.128  -5.272   3.526  0.00  0.00    -0.267 OA
ATOM     23  H   UNL     1       1.731  -2.456   4.646  0.00  0.00    +0.150 HD
BRANCH  21  24
ATOM     24  C   UNL     1       2.701  -4.811   5.177  0.00  0.00    +0.191 A 
ATOM     25  C   UNL     1       3.154  -6.079   5.402  0.00  0.00    +0.056 A 
ATOM     26  C   UNL     1       4.141  -5.985   6.395  0.00  0.00    +0.058 A 
ATOM     27  C   UNL     1       4.240  -4.679   6.735  0.00  0.00    +0.171 A 
ATOM     28  O   UNL     1       3.371  -3.975   5.998  0.00  0.00    -0.444 OA
ATOM     29 BR   UNL     1       5.414  -3.966   8.034  0.00  0.00    -0.008 Br
ENDBRANCH  21  24
ENDBRANCH  19  20
ENDBRANCH   2  19
TORSDOF 5
