REMARK  Name = ZINC65289096
REMARK  4 active torsions:
REMARK  status: ('A' for Active; 'I' for Inactive)
REMARK    1  A    between atoms: C_1  and  C_2
REMARK    2  A    between atoms: C_2  and  C_3
REMARK    3  A    between atoms: C_2  and  C_4
REMARK    4  A    between atoms: C_15  and  C_17
REMARK                            x       y       z     vdW  Elec       q    Type
REMARK                         _______ _______ _______ _____ _____    ______ ____
ROOT
ATOM      1  C   UNL     1      -1.149  -0.651  -0.266  0.00  0.00    +0.142 C 
ATOM      2  N   UNL     1      -1.820  -0.261  -1.533  0.00  0.00    -0.238 NA
ATOM      3  N   UNL     1      -2.327  -1.503  -2.144  0.00  0.00    -0.237 NA
ATOM      4  C   UNL     1      -2.463  -2.418  -0.997  0.00  0.00    +0.157 C 
ATOM      5  N   UNL     1      -1.230  -2.113  -0.215  0.00  0.00    -0.267 NA
ATOM      6  C   UNL     1      -1.324  -2.729   1.101  0.00  0.00    +0.106 C 
ATOM      7  C   UNL     1      -1.302  -4.255   0.905  0.00  0.00    +0.123 C 
ATOM      8  N   UNL     1      -2.303  -4.646  -0.096  0.00  0.00    -0.294 N 
ATOM      9  C   UNL     1      -2.416  -3.895  -1.372  0.00  0.00    +0.144 C 
ATOM     10  C   UNL     1      -3.131  -5.682   0.142  0.00  0.00    +0.247 C 
ATOM     11  O   UNL     1      -2.991  -6.353   1.147  0.00  0.00    -0.270 OA
ATOM     12  H   UNL     1      -2.572   0.390  -1.359  0.00  0.00    +0.142 HD
ATOM     13  H   UNL     1      -3.218  -1.348  -2.591  0.00  0.00    +0.142 HD
ENDROOT
BRANCH  10  14
ATOM     14  C   UNL     1      -4.206  -6.003  -0.815  0.00  0.00    +0.037 C 
ATOM     15  C   UNL     1      -3.920  -6.720  -1.972  0.00  0.00    +0.019 C 
ATOM     16  C   UNL     1      -5.034  -7.014  -2.778  0.00  0.00    -0.017 C 
ATOM     17  C   UNL     1      -5.175  -7.188  -4.104  0.00  0.00    +0.025 C 
ATOM     18  C   UNL     1      -6.601  -7.187  -4.424  0.00  0.00    +0.106 C 
ATOM     19  N   UNL     1      -7.326  -7.139  -3.345  0.00  0.00    -0.279 NA
ATOM     20  C   UNL     1      -6.430  -7.162  -2.201  0.00  0.00    +0.158 C 
ATOM     21  C   UNL     1      -6.637  -6.068  -1.199  0.00  0.00    +0.005 C 
ATOM     22  C   UNL     1      -5.585  -5.572  -0.549  0.00  0.00    +0.011 C 
ENDBRANCH  10  14
BRANCH   1  24
ATOM     23  C   UNL     1       0.377   1.325  -0.366  0.00  0.00    +0.010 C 
ATOM     24  C   UNL     1       0.313  -0.202  -0.281  0.00  0.00    +0.016 C 
ATOM     25  C   UNL     1       1.004  -0.670   1.002  0.00  0.00    +0.010 C 
ENDBRANCH   1  24
TORSDOF 2
