REMARK  Name = ZINC09468149
REMARK  6 active torsions:
REMARK  status: ('A' for Active; 'I' for Inactive)
REMARK    1  A    between atoms: C_1  and  C_2
REMARK    2  A    between atoms: C_4  and  C_34
REMARK    3  A    between atoms: C_8  and  N_33
REMARK    4  A    between atoms: C_9  and  C_11
REMARK    5  A    between atoms: N_13  and  N_14
REMARK    6  A    between atoms: C_15  and  C_17
REMARK                            x       y       z     vdW  Elec       q    Type
REMARK                         _______ _______ _______ _____ _____    ______ ____
ROOT
ATOM      1  N   UNL     1       2.874   8.502   1.430  0.00  0.00    -0.230 N 
ATOM      2  C   UNL     1       4.174   8.860   1.446  0.00  0.00    +0.260 C 
ATOM      3  O   UNL     1       5.038   8.013   1.333  0.00  0.00    -0.269 OA
ATOM      4  H   UNL     1       2.184   9.178   1.520  0.00  0.00    +0.173 HD
ENDROOT
BRANCH   2   5
ATOM      5  C   UNL     1       4.548  10.284   1.601  0.00  0.00    +0.040 A 
ATOM      6  C   UNL     1       3.547  11.255   1.724  0.00  0.00    +0.014 A 
ATOM      7  C   UNL     1       3.873  12.573   1.873  0.00  0.00    +0.016 A 
ATOM      8  C   UNL     1       5.212  12.958   1.891  0.00  0.00    +0.065 A 
ATOM      9  C   UNL     1       6.234  11.992   1.763  0.00  0.00    +0.079 A 
ATOM     10  C   UNL     1       5.889  10.647   1.617  0.00  0.00    +0.041 A 
ATOM     11  N   UNL     1       7.530  12.393   1.786  0.00  0.00    -0.233 NA
ATOM     12  C   UNL     1       7.861  13.641   1.928  0.00  0.00    +0.113 A 
ATOM     13  N   UNL     1       6.935  14.638   2.054  0.00  0.00    -0.296 N 
ATOM     14  C   UNL     1       5.614  14.367   2.044  0.00  0.00    +0.262 A 
ATOM     15  O   UNL     1       4.786  15.252   2.156  0.00  0.00    -0.267 OA
ATOM     16  C   UNL     1       7.410  16.019   2.202  0.00  0.00    +0.126 C 
ATOM     17  C   UNL     1       7.963  16.210   3.613  0.00  0.00    +0.022 C 
ATOM     18  C   UNL     1       9.443  15.871   3.671  0.00  0.00    +0.002 C 
ATOM     19  C   UNL     1       9.704  14.400   3.396  0.00  0.00    +0.008 C 
ATOM     20  C   UNL     1       9.323  14.030   1.965  0.00  0.00    +0.074 C 
ENDBRANCH   2   5
BRANCH   1  23
ATOM     21  C   UNL     1       1.221   6.797   1.267  0.00  0.00    +0.269 C 
ATOM     22  O   UNL     1       0.355   7.645   1.379  0.00  0.00    -0.268 OA
ATOM     23  N   UNL     1       2.521   7.154   1.283  0.00  0.00    -0.230 N 
ATOM     24  H   UNL     1       3.211   6.479   1.193  0.00  0.00    +0.173 HD
BRANCH  21  33
ATOM     25  C   UNL     1      -3.050   3.293   0.949  0.00  0.00    +0.044 C 
ATOM     26  C   UNL     1      -1.691   2.651   0.849  0.00  0.00    -0.037 A 
ATOM     27  C   UNL     1      -1.571   1.291   0.686  0.00  0.00    +0.027 A 
ATOM     28  C   UNL     1      -0.319   0.702   0.601  0.00  0.00    +0.040 A 
ATOM     29  N   UNL     1       0.773   1.440   0.664  0.00  0.00    -0.245 NA
ATOM     30  C   UNL     1       0.710   2.745   0.814  0.00  0.00    +0.111 A 
ATOM     31  C   UNL     1      -0.516   3.441   0.917  0.00  0.00    +0.032 A 
ATOM     32  C   UNL     1      -0.398   4.881   1.079  0.00  0.00    +0.054 A 
ATOM     33  C   UNL     1       0.863   5.434   1.118  0.00  0.00    +0.098 A 
ATOM     34  S   UNL     1       1.937   4.023   0.937  0.00  0.00    -0.062 S 
ATOM     35  C   UNL     1      -0.204  -0.791   0.428  0.00  0.00    +0.065 C 
BRANCH  32  36
ATOM     36  N   UNL     1      -1.528   5.680   1.192  0.00  0.00    -0.356 N 
ATOM     37  H   UNL     1      -2.392   5.338   0.915  0.00  0.00    +0.142 HD
ATOM     38  H   UNL     1      -1.452   6.579   1.549  0.00  0.00    +0.142 HD
ENDBRANCH  32  36
ENDBRANCH  21  33
ENDBRANCH   1  23
TORSDOF 4
