REMARK  Name = ZINC64806210
REMARK  13 active torsions:
REMARK  status: ('A' for Active; 'I' for Inactive)
REMARK    1  A    between atoms: C_1  and  C_2
REMARK    2  A    between atoms: C_2  and  C_3
REMARK    3  A    between atoms: C_3  and  C_4
REMARK    4  A    between atoms: C_3  and  N_6
REMARK    5  A    between atoms: C_4  and  C_5
REMARK    6  A    between atoms: N_6  and  C_7
REMARK    7  A    between atoms: N_6  and  C_11
REMARK    8  A    between atoms: C_7  and  C_8
REMARK    9  A    between atoms: C_8  and  O_9
REMARK   10  A    between atoms: O_9  and  C_10
REMARK   11  A    between atoms: C_11  and  C_12
REMARK   12  A    between atoms: N_14  and  C_15
REMARK   13  A    between atoms: C_16  and  C_24
REMARK                            x       y       z     vdW  Elec       q    Type
REMARK                         _______ _______ _______ _____ _____    ______ ____
ROOT
ATOM      1  C   UNL     1       2.745   2.146  -0.029  0.00  0.00    +0.201 C 
ATOM      2  O   UNL     1       2.112   1.692  -0.958  0.00  0.00    -0.278 OA
ATOM      3  N   UNL     1       3.174   3.423  -0.066  0.00  0.00    -0.281 N 
ATOM      4  H   UNL     1       3.680   3.787   0.678  0.00  0.00    +0.155 HD
ENDROOT
BRANCH   3   5
ATOM      5  C   UNL     1       2.893   4.217  -1.167  0.00  0.00    +0.084 A 
ATOM      6  C   UNL     1       3.255   5.538  -1.380  0.00  0.00    +0.068 A 
ATOM      7  C   UNL     1       2.833   6.149  -2.628  0.00  0.00    -0.023 A 
ATOM      8  C   UNL     1       2.126   5.328  -3.434  0.00  0.00    -0.004 A 
ATOM      9  S   UNL     1       2.042   3.797  -2.552  0.00  0.00    -0.077 S 
ATOM     10  C   UNL     1       1.553   5.661  -4.777  0.00  0.00    +0.043 C 
ATOM     11  C   UNL     1       1.564   7.188  -4.942  0.00  0.00    +0.005 C 
ATOM     12  C   UNL     1       2.944   7.720  -4.544  0.00  0.00    +0.005 C 
ATOM     13  C   UNL     1       3.139   7.584  -3.033  0.00  0.00    +0.037 C 
BRANCH   6  14
ATOM     14  C   UNL     1       4.031   6.287  -0.387  0.00  0.00    +0.244 C 
ATOM     15  O   UNL     1       5.247   6.279  -0.433  0.00  0.00    -0.270 OA
ATOM     16  N   UNL     1       3.398   6.984   0.578  0.00  0.00    -0.325 N 
ATOM     17  H   UNL     1       2.429   6.990   0.614  0.00  0.00    +0.145 HD
ATOM     18  H   UNL     1       3.911   7.479   1.235  0.00  0.00    +0.145 HD
ENDBRANCH   6  14
ENDBRANCH   3   5
BRANCH   1  19
ATOM     19  C   UNL     1       3.050   1.283   1.168  0.00  0.00    +0.019 C 
BRANCH  19  20
ATOM     20  N   UNL     1       2.336   0.005   1.046  0.00  0.00    +0.389 N 
ATOM     21  H   UNL     1       2.396  -0.324   0.094  0.00  0.00    -0.081 HD
BRANCH  20  22
ATOM     22  C   UNL     1       0.926   0.196   1.411  0.00  0.00    -0.068 C 
BRANCH  22  24
ATOM     23  C   UNL     1       1.245   1.496   3.521  0.00  0.00    +0.002 C 
ATOM     24  C   UNL     1       0.751   1.563   2.074  0.00  0.00    -0.019 C 
ENDBRANCH  22  24
BRANCH  22  25
ATOM     25  C   UNL     1       0.059   0.125   0.152  0.00  0.00    -0.019 C 
ATOM     26  C   UNL     1       0.167  -1.272  -0.463  0.00  0.00    +0.002 C 
ENDBRANCH  22  25
ENDBRANCH  20  22
BRANCH  20  27
ATOM     27  C   UNL     1       2.945  -0.985   1.944  0.00  0.00    -0.049 C 
BRANCH  27  28
ATOM     28  C   UNL     1       2.328  -2.360   1.682  0.00  0.00    +0.141 C 
BRANCH  28  29
ATOM     29  O   UNL     1       2.687  -2.800   0.370  0.00  0.00    -0.385 OA
ATOM     30  C   UNL     1       2.159  -4.082   0.023  0.00  0.00    +0.193 C 
ENDBRANCH  28  29
ENDBRANCH  27  28
ENDBRANCH  20  27
ENDBRANCH  19  20
ENDBRANCH   1  19
TORSDOF 10
