REMARK  Name = ZINC13639886
REMARK  8 active torsions:
REMARK  status: ('A' for Active; 'I' for Inactive)
REMARK    1  A    between atoms: C_1  and  C_2
REMARK    2  A    between atoms: C_5  and  N_9
REMARK    3  A    between atoms: C_6  and  C_8
REMARK    4  A    between atoms: N_9  and  S_10
REMARK    5  A    between atoms: S_10  and  C_13
REMARK    6  A    between atoms: C_26  and  C_29
REMARK    7  A    between atoms: C_32  and  O_36
REMARK    8  A    between atoms: C_34  and  O_35
REMARK                            x       y       z     vdW  Elec       q    Type
REMARK                         _______ _______ _______ _____ _____    ______ ____
ROOT
ATOM      1  C   UNL     1       1.590  -0.507   4.207  0.00  0.00    +0.109 A 
ATOM      2  C   UNL     1       0.464  -0.747   4.973  0.00  0.00    +0.030 A 
ATOM      3  C   UNL     1       0.078  -2.046   5.234  0.00  0.00    +0.025 A 
ATOM      4  C   UNL     1       0.825  -3.107   4.736  0.00  0.00    +0.031 A 
ATOM      5  C   UNL     1       1.959  -2.872   3.974  0.00  0.00    -0.018 A 
ATOM      6  C   UNL     1       2.333  -1.560   3.714  0.00  0.00    +0.034 A 
ATOM      7  C   UNL     1       2.797  -3.981   3.423  0.00  0.00    +0.049 C 
ATOM      8  C   UNL     1       2.575  -4.157   1.940  0.00  0.00    -0.023 C 
ATOM      9  C   UNL     1       2.627  -5.426   1.620  0.00  0.00    -0.030 C 
ATOM     10  C   UNL     1       2.897  -6.273   2.849  0.00  0.00    +0.033 C 
ATOM     11  C   UNL     1       2.445  -5.356   4.024  0.00  0.00    +0.029 C 
ATOM     12  C   UNL     1       0.925  -5.495   4.151  0.00  0.00    +0.108 C 
ATOM     13  N   UNL     1       0.420  -4.418   5.009  0.00  0.00    -0.336 N 
ATOM     14  H   UNL     1      -0.180  -4.610   5.747  0.00  0.00    +0.147 HD
ENDROOT
BRANCH  12  15
ATOM     15  C   UNL     1       0.293  -5.392   2.787  0.00  0.00    +0.015 A 
ATOM     16  C   UNL     1      -0.075  -4.157   2.287  0.00  0.00    +0.012 A 
ATOM     17  C   UNL     1      -0.654  -4.060   1.037  0.00  0.00    +0.046 A 
ATOM     18  C   UNL     1      -0.869  -5.203   0.279  0.00  0.00    +0.120 A 
ATOM     19  C   UNL     1      -0.501  -6.443   0.778  0.00  0.00    +0.091 A 
ATOM     20  C   UNL     1       0.085  -6.537   2.031  0.00  0.00    +0.125 A 
BRANCH  20  21
ATOM     21  O   UNL     1       0.452  -7.751   2.520  0.00  0.00    -0.506 OA
ATOM     22  H   UNL     1      -0.242  -8.197   3.025  0.00  0.00    +0.292 HD
ENDBRANCH  20  21
BRANCH  18  23
ATOM     23  O   UNL     1      -1.438  -5.106  -0.951  0.00  0.00    -0.507 OA
ATOM     24  H   UNL     1      -0.803  -4.987  -1.670  0.00  0.00    +0.292 HD
ENDBRANCH  18  23
ENDBRANCH  12  15
BRANCH   1  25
ATOM     25  S   UNL     1       2.082   1.149   3.865  0.00  0.00    +0.072 S 
ATOM     26  O   UNL     1       3.476   1.111   3.591  0.00  0.00    -0.150 OA
ATOM     27  O   UNL     1       1.530   1.958   4.894  0.00  0.00    -0.150 OA
BRANCH  25  28
ATOM     28  N   UNL     1       1.336   1.601   2.457  0.00  0.00    -0.216 N 
ATOM     29  H   UNL     1       1.867   1.863   1.689  0.00  0.00    +0.174 HD
BRANCH  28  34
ATOM     30  C   UNL     1      -4.325   1.618   2.130  0.00  0.00    +0.044 C 
ATOM     31  C   UNL     1      -2.821   1.613   2.216  0.00  0.00    -0.050 A 
ATOM     32  C   UNL     1      -2.197   1.968   3.399  0.00  0.00    +0.005 A 
ATOM     33  C   UNL     1      -0.819   1.966   3.482  0.00  0.00    +0.025 A 
ATOM     34  C   UNL     1      -0.059   1.605   2.376  0.00  0.00    +0.051 A 
ATOM     35  C   UNL     1      -0.688   1.249   1.191  0.00  0.00    -0.028 A 
ATOM     36  C   UNL     1      -2.067   1.258   1.113  0.00  0.00    +0.008 A 
ATOM     37  C   UNL     1       0.132   0.857  -0.011  0.00  0.00    +0.046 C 
ENDBRANCH  28  34
ENDBRANCH  25  28
ENDBRANCH   1  25
TORSDOF 6
