REMARK  Name = ZINC21812000
REMARK  7 active torsions:
REMARK  status: ('A' for Active; 'I' for Inactive)
REMARK    1  A    between atoms: C_1  and  C_2
REMARK    2  A    between atoms: C_2  and  C_4
REMARK    3  A    between atoms: C_2  and  S_15
REMARK    4  A    between atoms: N_6  and  C_7
REMARK    5  A    between atoms: C_11  and  N_13
REMARK    6  A    between atoms: S_15  and  C_16
REMARK    7  A    between atoms: N_20  and  C_21
REMARK                            x       y       z     vdW  Elec       q    Type
REMARK                         _______ _______ _______ _____ _____    ______ ____
ROOT
ATOM      1  C   UNL     1      -0.071  -0.018   0.152  0.00  0.00    +0.230 C 
ATOM      2  O   UNL     1       0.813  -0.627   0.716  0.00  0.00    -0.274 OA
ATOM      3  N   UNL     1      -1.051  -0.690  -0.485  0.00  0.00    -0.285 N 
ATOM      4  H   UNL     1      -1.899  -0.141  -0.922  0.00  0.00    +0.155 HD
ENDROOT
BRANCH   3   5
ATOM      5  C   UNL     1      -0.991  -2.084  -0.590  0.00  0.00    +0.035 A 
ATOM      6  C   UNL     1       0.239  -2.719  -0.710  0.00  0.00    +0.025 A 
ATOM      7  C   UNL     1       0.300  -4.096  -0.808  0.00  0.00    +0.023 A 
ATOM      8  C   UNL     1      -0.861  -4.845  -0.799  0.00  0.00    +0.062 A 
ATOM      9  C   UNL     1      -2.095  -4.215  -0.684  0.00  0.00    +0.045 A 
ATOM     10  C   UNL     1      -2.159  -2.832  -0.580  0.00  0.00    +0.047 A 
ATOM     11 CL   UNL     1      -0.780  -6.574  -0.930  0.00  0.00    -0.082 Cl
BRANCH   9  12
ATOM     12  N   UNL     1      -3.270  -4.972  -0.674  0.00  0.00    -0.357 N 
ATOM     13  H   UNL     1      -4.245  -4.472  -0.583  0.00  0.00    +0.142 HD
ATOM     14  H   UNL     1      -3.218  -6.068  -0.756  0.00  0.00    +0.142 HD
ENDBRANCH   9  12
ENDBRANCH   3   5
BRANCH   1  16
ATOM     15  C   UNL     1      -0.958   1.989   1.306  0.00  0.00    +0.029 C 
ATOM     16  C   UNL     1      -0.074   1.488   0.162  0.00  0.00    +0.137 C 
BRANCH  16  17
ATOM     17  S   UNL     1       1.616   2.093   0.398  0.00  0.00    -0.072 S 
BRANCH  17  18
ATOM     18  C   UNL     1       1.349   3.826   0.221  0.00  0.00    +0.210 A 
ATOM     19  N   UNL     1       0.198   4.419  -0.015  0.00  0.00    -0.102 NA
ATOM     20  N   UNL     1       0.355   5.691  -0.086  0.00  0.00    -0.022 NA
ATOM     21  N   UNL     1       1.593   6.002   0.096  0.00  0.00    -0.043 NA
ATOM     22  N   UNL     1       2.287   4.798   0.309  0.00  0.00    -0.223 N 
ATOM     23  C   UNL     1       3.719   4.630   0.568  0.00  0.00    +0.177 C 
ENDBRANCH  17  18
ENDBRANCH  16  17
ENDBRANCH   1  16
TORSDOF 5
