REMARK  Name = ZINC27557858
REMARK  12 active torsions:
REMARK  status: ('A' for Active; 'I' for Inactive)
REMARK    1  A    between atoms: C_1  and  C_2
REMARK    2  A    between atoms: C_2  and  N_3
REMARK    3  A    between atoms: N_3  and  C_4
REMARK    4  A    between atoms: C_5  and  N_20
REMARK    5  A    between atoms: N_6  and  C_13
REMARK    6  A    between atoms: C_13  and  C_14
REMARK    7  A    between atoms: C_21  and  C_23
REMARK    8  A    between atoms: C_23  and  N_24
REMARK    9  A    between atoms: N_24  and  C_25
REMARK   10  A    between atoms: N_24  and  C_26
REMARK   11  A    between atoms: C_26  and  C_28
REMARK   12  A    between atoms: C_26  and  C_29
REMARK                            x       y       z     vdW  Elec       q    Type
REMARK                         _______ _______ _______ _____ _____    ______ ____
ROOT
ATOM      1  C   UNL     1      -0.047   1.360  -0.014  0.00  0.00    +0.140 A 
ATOM      2  C   UNL     1       0.370   0.689  -1.145  0.00  0.00    +0.128 A 
ATOM      3  N   UNL     1       1.563   0.005  -1.119  0.00  0.00    -0.276 N 
ATOM      4  C   UNL     1       2.316  -0.009  -0.004  0.00  0.00    +0.331 A 
ATOM      5  O   UNL     1       3.367  -0.620  -0.002  0.00  0.00    -0.246 OA
ATOM      6  N   UNL     1       1.926   0.640   1.108  0.00  0.00    -0.273 N 
ATOM      7  H   UNL     1       2.557   0.615   2.008  0.00  0.00    +0.173 HD
ATOM      8  C   UNL     1       0.766   1.324   1.135  0.00  0.00    +0.277 A 
ATOM      9  O   UNL     1       0.422   1.909   2.149  0.00  0.00    -0.266 OA
ENDROOT
BRANCH   1  10
ATOM     10  N   UNL     1      -1.268   2.066  -0.007  0.00  0.00    -0.266 N 
ATOM     11  C   UNL     1      -1.271   3.410   0.110  0.00  0.00    +0.203 C 
ATOM     12  O   UNL     1      -0.230   4.004   0.300  0.00  0.00    -0.277 OA
BRANCH  10  14
ATOM     13  C   UNL     1      -3.106   1.077   1.269  0.00  0.00    +0.025 C 
ATOM     14  C   UNL     1      -2.535   1.339  -0.126  0.00  0.00    +0.110 C 
ENDBRANCH  10  14
BRANCH  11  15
ATOM     15  C   UNL     1      -2.566   4.174   0.004  0.00  0.00    +0.020 C 
BRANCH  15  16
ATOM     16  N   UNL     1      -2.302   5.610   0.164  0.00  0.00    +0.388 N 
ATOM     17  C   UNL     1      -1.829   5.910   1.522  0.00  0.00    -0.095 C 
ATOM     18  H   UNL     1      -1.504   5.888  -0.540  0.00  0.00    -0.081 HD
BRANCH  16  19
ATOM     19  C   UNL     1      -3.493   6.404  -0.166  0.00  0.00    -0.041 C 
ATOM     20  C   UNL     1      -3.896   6.138  -1.618  0.00  0.00    -0.008 C 
BRANCH  19  21
ATOM     21  C   UNL     1      -3.185   7.869   0.009  0.00  0.00    -0.061 A 
ATOM     22  C   UNL     1      -1.956   8.368  -0.382  0.00  0.00    +0.005 A 
ATOM     23  C   UNL     1      -1.675   9.712  -0.226  0.00  0.00    +0.038 A 
ATOM     24  C   UNL     1      -2.619  10.556   0.332  0.00  0.00    +0.123 A 
ATOM     25  C   UNL     1      -3.847  10.054   0.729  0.00  0.00    +0.038 A 
ATOM     26  C   UNL     1      -4.129   8.711   0.567  0.00  0.00    +0.005 A 
ATOM     27  F   UNL     1      -2.343  11.869   0.490  0.00  0.00    -0.205 F 
ENDBRANCH  19  21
ENDBRANCH  16  19
ENDBRANCH  15  16
ENDBRANCH  11  15
ENDBRANCH   1  10
BRANCH   2  28
ATOM     28  N   UNL     1      -0.399   0.703  -2.284  0.00  0.00    -0.343 N 
ATOM     29  H   UNL     1      -0.061   0.166  -3.183  0.00  0.00    +0.144 HD
ATOM     30  H   UNL     1      -1.352   1.252  -2.297  0.00  0.00    +0.144 HD
ENDBRANCH   2  28
BRANCH   3  31
ATOM     31  C   UNL     1       2.017  -0.712  -2.313  0.00  0.00    +0.163 C 
BRANCH  31  32
ATOM     32  C   UNL     1       1.493  -2.125  -2.279  0.00  0.00    -0.028 A 
ATOM     33  C   UNL     1       2.240  -3.125  -1.684  0.00  0.00    +0.005 A 
ATOM     34  C   UNL     1       1.758  -4.420  -1.648  0.00  0.00    +0.000 A 
ATOM     35  C   UNL     1       0.534  -4.717  -2.218  0.00  0.00    +0.000 A 
ATOM     36  C   UNL     1      -0.210  -3.719  -2.818  0.00  0.00    +0.000 A 
ATOM     37  C   UNL     1       0.269  -2.423  -2.848  0.00  0.00    +0.005 A 
ENDBRANCH  31  32
ENDBRANCH   3  31
TORSDOF 9
