REMARK  Name = ZINC36631278
REMARK  8 active torsions:
REMARK  status: ('A' for Active; 'I' for Inactive)
REMARK    1  A    between atoms: C_1  and  C_2
REMARK    2  A    between atoms: N_11  and  C_15
REMARK    3  A    between atoms: C_15  and  C_16
REMARK    4  A    between atoms: N_18  and  C_19
REMARK    5  A    between atoms: C_22  and  O_27
REMARK    6  A    between atoms: C_24  and  O_25
REMARK    7  A    between atoms: O_25  and  C_26
REMARK    8  A    between atoms: O_27  and  C_28
REMARK                            x       y       z     vdW  Elec       q    Type
REMARK                         _______ _______ _______ _____ _____    ______ ____
ROOT
ATOM      1  C   UNL     1       0.795   1.444   4.394  0.00  0.00    +0.214 C 
ENDROOT
BRANCH   1  11
ATOM      2  C   UNL     1       0.031   1.544   0.004  0.00  0.00    +0.010 C 
ATOM      3  C   UNL     1       0.045   0.014  -0.007  0.00  0.00    +0.018 C 
ATOM      4  C   UNL     1       0.768  -0.480  -1.263  0.00  0.00    +0.006 C 
ATOM      5  C   UNL     1       0.800  -2.010  -1.263  0.00  0.00    +0.000 C 
ATOM      6  C   UNL     1       1.549  -2.507  -0.025  0.00  0.00    +0.003 C 
ATOM      7  C   UNL     1       0.829  -2.020   1.235  0.00  0.00    +0.035 C 
ATOM      8  C   UNL     1       0.772  -0.497   1.233  0.00  0.00    +0.115 C 
ATOM      9  C   UNL     1       0.095   0.008   2.486  0.00  0.00    +0.247 C 
ATOM     10  O   UNL     1      -1.042  -0.211   2.846  0.00  0.00    -0.273 OA
ATOM     11  N   UNL     1       1.023   0.754   3.121  0.00  0.00    -0.215 N 
ATOM     12  C   UNL     1       2.178   0.785   2.445  0.00  0.00    +0.310 C 
ATOM     13  O   UNL     1       3.163   1.392   2.816  0.00  0.00    -0.252 OA
ATOM     14  N   UNL     1       2.125   0.069   1.305  0.00  0.00    -0.285 N 
ATOM     15  H   UNL     1       2.840  -0.050   0.660  0.00  0.00    +0.151 HD
ENDBRANCH   1  11
BRANCH   1  16
ATOM     16  C   UNL     1       1.161   0.528   5.534  0.00  0.00    +0.235 C 
ATOM     17  O   UNL     1       1.571  -0.590   5.306  0.00  0.00    -0.274 OA
ATOM     18  N   UNL     1       1.032   0.953   6.806  0.00  0.00    -0.281 N 
ATOM     19  H   UNL     1       0.766   1.867   6.988  0.00  0.00    +0.155 HD
BRANCH  18  20
ATOM     20  C   UNL     1       1.283   0.071   7.869  0.00  0.00    +0.077 A 
ATOM     21  C   UNL     1       2.273  -0.893   7.752  0.00  0.00    +0.050 A 
ATOM     22  C   UNL     1       2.520  -1.762   8.798  0.00  0.00    +0.084 A 
ATOM     23  C   UNL     1       1.777  -1.671   9.968  0.00  0.00    +0.142 A 
ATOM     24  C   UNL     1       0.786  -0.709  10.088  0.00  0.00    +0.094 A 
ATOM     25  C   UNL     1       0.541   0.166   9.043  0.00  0.00    +0.145 A 
ATOM     26 CL   UNL     1       3.760  -2.968   8.650  0.00  0.00    -0.080 Cl
BRANCH  25  27
ATOM     27  O   UNL     1      -0.427   1.114   9.162  0.00  0.00    -0.493 OA
ATOM     28  C   UNL     1      -1.148   1.153  10.395  0.00  0.00    +0.277 C 
ENDBRANCH  25  27
BRANCH  23  29
ATOM     29  O   UNL     1       2.022  -2.528  10.995  0.00  0.00    -0.494 OA
ATOM     30  C   UNL     1       1.220  -2.378  12.169  0.00  0.00    +0.277 C 
ENDBRANCH  23  29
ENDBRANCH  18  20
ENDBRANCH   1  16
TORSDOF 5
