REMARK  Name = ZINC53164021
REMARK  6 active torsions:
REMARK  status: ('A' for Active; 'I' for Inactive)
REMARK    1  A    between atoms: C_1  and  C_2
REMARK    2  A    between atoms: C_2  and  C_4
REMARK    3  A    between atoms: C_2  and  N_10
REMARK    4  A    between atoms: C_4  and  N_5
REMARK    5  A    between atoms: N_10  and  C_11
REMARK    6  A    between atoms: C_12  and  N_19
REMARK                            x       y       z     vdW  Elec       q    Type
REMARK                         _______ _______ _______ _____ _____    ______ ____
ROOT
ATOM      1  C   UNL     1       2.108  -0.565   1.196  0.00  0.00    +0.096 A 
ATOM      2  C   UNL     1       2.760  -1.258   2.207  0.00  0.00    +0.150 A 
ATOM      3  C   UNL     1       4.133  -1.410   2.167  0.00  0.00    +0.037 A 
ATOM      4  C   UNL     1       4.860  -0.871   1.122  0.00  0.00    +0.043 A 
ATOM      5  C   UNL     1       4.216  -0.179   0.111  0.00  0.00    +0.160 A 
ATOM      6  C   UNL     1       2.839  -0.029   0.142  0.00  0.00    +0.181 A 
ATOM      7  F   UNL     1       2.209   0.642  -0.847  0.00  0.00    -0.200 F 
ATOM      8  F   UNL     1       4.929   0.346  -0.909  0.00  0.00    -0.202 F 
ENDROOT
BRANCH   2   9
ATOM      9  N   UNL     1       1.984  -1.835   3.328  0.00  0.00    +0.058 N 
ATOM     10  O   UNL     1       2.441  -1.826   4.447  0.00  0.00    -0.126 OA
ATOM     11  O   UNL     1       0.894  -2.316   3.124  0.00  0.00    -0.126 OA
ENDBRANCH   2   9
BRANCH   1  12
ATOM     12  N   UNL     1       0.719  -0.411   1.235  0.00  0.00    -0.335 N 
ATOM     13  H   UNL     1       0.232  -0.611   2.050  0.00  0.00    +0.147 HD
BRANCH  12  15
ATOM     14  C   UNL     1       0.021   1.581   0.001  0.00  0.00    +0.029 C 
ATOM     15  C   UNL     1      -0.000   0.052   0.046  0.00  0.00    +0.089 C 
BRANCH  15  16
ATOM     16  C   UNL     1      -1.449  -0.436   0.104  0.00  0.00    +0.165 C 
BRANCH  16  17
ATOM     17  N   UNL     1      -1.474  -1.899   0.026  0.00  0.00    -0.270 N 
ATOM     18  C   UNL     1      -2.066  -2.730   0.910  0.00  0.00    +0.108 A 
ATOM     19  C   UNL     1      -1.863  -3.998   0.482  0.00  0.00    +0.041 A 
ATOM     20  C   UNL     1      -1.123  -3.940  -0.703  0.00  0.00    +0.134 A 
ATOM     21  N   UNL     1      -0.894  -2.682  -0.980  0.00  0.00    -0.180 NA
ENDBRANCH  16  17
ENDBRANCH  15  16
ENDBRANCH  12  15
ENDBRANCH   1  12
TORSDOF 5
