REMARK  Name = ZINC65182693
REMARK  8 active torsions:
REMARK  status: ('A' for Active; 'I' for Inactive)
REMARK    1  A    between atoms: C_1  and  C_2
REMARK    2  A    between atoms: C_7  and  C_13
REMARK    3  A    between atoms: C_9  and  C_12
REMARK    4  A    between atoms: C_16  and  C_19
REMARK    5  A    between atoms: C_19  and  C_20
REMARK    6  A    between atoms: C_20  and  N_21
REMARK    7  A    between atoms: N_21  and  C_22
REMARK    8  A    between atoms: C_23  and  C_25
REMARK                            x       y       z     vdW  Elec       q    Type
REMARK                         _______ _______ _______ _____ _____    ______ ____
ROOT
ATOM      1  C   UNL     1       1.279  -5.054   1.710  0.00  0.00    +0.318 C 
ATOM      2  N   UNL     1       1.357  -6.352   1.020  0.00  0.00    -0.291 N 
ATOM      3  C   UNL     1       2.502  -6.331   0.260  0.00  0.00    +0.139 C 
ATOM      4  N   UNL     1       3.130  -5.218   0.384  0.00  0.00    -0.072 NA
ATOM      5  O   UNL     1       2.450  -4.346   1.272  0.00  0.00    -0.367 OA
ATOM      6  H   UNL     1       0.722  -7.082   1.089  0.00  0.00    +0.151 HD
ENDROOT
BRANCH   1  13
ATOM      7  C   UNL     1      -0.091   1.552  -0.373  0.00  0.00    +0.044 C 
ATOM      8  C   UNL     1      -0.063   0.046  -0.328  0.00  0.00    -0.050 A 
ATOM      9  C   UNL     1      -0.045  -0.672  -1.531  0.00  0.00    +0.005 A 
ATOM     10  C   UNL     1      -0.019  -2.021  -1.575  0.00  0.00    +0.026 A 
ATOM     11  C   UNL     1      -0.009  -2.779  -0.372  0.00  0.00    +0.043 A 
ATOM     12  N   UNL     1       0.014  -4.072  -0.155  0.00  0.00    -0.373 N 
ATOM     13  C   UNL     1       0.013  -4.303   1.294  0.00  0.00    +0.168 C 
ATOM     14  C   UNL     1      -0.015  -2.932   1.933  0.00  0.00    -0.036 C 
ATOM     15  C   UNL     1      -0.028  -2.044   0.913  0.00  0.00    -0.001 A 
ATOM     16  C   UNL     1      -0.050  -0.577   0.873  0.00  0.00    +0.013 A 
ATOM     17  C   UNL     1      -0.027  -2.620   3.407  0.00  0.00    +0.042 C 
ATOM     18  H   UNL     1       0.029  -4.760  -0.838  0.00  0.00    +0.160 HD
ENDBRANCH   1  13
BRANCH   3  19
ATOM     19  C   UNL     1       2.964  -7.472  -0.610  0.00  0.00    +0.094 C 
BRANCH  19  20
ATOM     20  C   UNL     1       4.273  -7.088  -1.303  0.00  0.00    +0.115 C 
BRANCH  20  21
ATOM     21  N   UNL     1       4.721  -8.197  -2.148  0.00  0.00    -0.300 N 
ATOM     22  C   UNL     1       4.290  -8.274  -3.546  0.00  0.00    +0.132 C 
ATOM     23  C   UNL     1       5.531  -9.147  -1.640  0.00  0.00    +0.246 C 
ATOM     24  O   UNL     1       5.804  -9.144  -0.456  0.00  0.00    -0.270 OA
BRANCH  23  25
ATOM     25  C   UNL     1       6.088 -10.194  -2.524  0.00  0.00    +0.038 A 
ATOM     26  C   UNL     1       6.434  -9.888  -3.841  0.00  0.00    +0.013 A 
ATOM     27  C   UNL     1       6.954 -10.868  -4.660  0.00  0.00    +0.002 A 
ATOM     28  C   UNL     1       7.132 -12.153  -4.180  0.00  0.00    +0.020 A 
ATOM     29  C   UNL     1       6.791 -12.464  -2.875  0.00  0.00    +0.042 A 
ATOM     30  C   UNL     1       6.275 -11.490  -2.043  0.00  0.00    +0.033 A 
ATOM     31 CL   UNL     1       7.019 -14.080  -2.281  0.00  0.00    -0.084 Cl
ENDBRANCH  23  25
ENDBRANCH  20  21
ENDBRANCH  19  20
ENDBRANCH   3  19
TORSDOF 5
