REMARK  Name = ZINC39666876
REMARK  8 active torsions:
REMARK  status: ('A' for Active; 'I' for Inactive)
REMARK    1  A    between atoms: C_1  and  C_2
REMARK    2  A    between atoms: C_2  and  C_3
REMARK    3  A    between atoms: C_3  and  C_4
REMARK    4  A    between atoms: C_3  and  C_6
REMARK    5  A    between atoms: C_4  and  C_5
REMARK    6  A    between atoms: C_6  and  N_7
REMARK    7  A    between atoms: C_8  and  C_10
REMARK    8  A    between atoms: C_21  and  C_23
REMARK                            x       y       z     vdW  Elec       q    Type
REMARK                         _______ _______ _______ _____ _____    ______ ____
ROOT
ATOM      1  C   UNL     1      -4.541  -3.464   0.669  0.00  0.00    +0.100 C 
ATOM      2  C   UNL     1      -5.324  -2.981  -0.573  0.00  0.00    +0.121 C 
ATOM      3  N   UNL     1      -5.388  -4.167  -1.459  0.00  0.00    -0.296 N 
ATOM      4  C   UNL     1      -5.614  -5.305  -0.537  0.00  0.00    +0.115 C 
ATOM      5  C   UNL     1      -4.737  -4.989   0.691  0.00  0.00    -0.004 C 
ATOM      6  C   UNL     1      -5.449  -5.412   1.972  0.00  0.00    -0.010 C 
ATOM      7  C   UNL     1      -5.580  -6.938   1.998  0.00  0.00    -0.082 C 
ATOM      8  N   UNL     1      -4.246  -7.546   1.932  0.00  0.00    +0.379 N 
ATOM      9  C   UNL     1      -3.605  -7.210   0.655  0.00  0.00    -0.082 C 
ATOM     10  C   UNL     1      -3.390  -5.696   0.573  0.00  0.00    -0.010 C 
ATOM     11  C   UNL     1      -5.268  -4.202  -2.801  0.00  0.00    +0.248 C 
ATOM     12  O   UNL     1      -4.978  -3.191  -3.413  0.00  0.00    -0.270 OA
ATOM     13  H   UNL     1      -3.682  -7.199   2.693  0.00  0.00    -0.086 HD
ATOM     14  H   UNL     1      -4.331  -8.549   2.011  0.00  0.00    -0.086 HD
ENDROOT
BRANCH  11  15
ATOM     15  C   UNL     1      -5.487  -5.460  -3.525  0.00  0.00    +0.052 A 
ATOM     16  C   UNL     1      -6.415  -6.359  -3.103  0.00  0.00    +0.059 A 
ATOM     17  S   UNL     1      -6.337  -7.628  -4.197  0.00  0.00    -0.096 S 
ATOM     18  C   UNL     1      -5.064  -7.033  -5.277  0.00  0.00    +0.020 A 
ATOM     19  C   UNL     1      -4.717  -5.784  -4.728  0.00  0.00    +0.001 A 
ATOM     20  C   UNL     1      -3.712  -5.048  -5.384  0.00  0.00    +0.010 A 
ATOM     21  C   UNL     1      -3.112  -5.545  -6.515  0.00  0.00    +0.001 A 
ATOM     22  C   UNL     1      -3.477  -6.777  -7.039  0.00  0.00    +0.001 A 
ATOM     23  C   UNL     1      -4.453  -7.526  -6.410  0.00  0.00    +0.015 A 
ENDBRANCH  11  15
BRANCH   1  25
ATOM     24  N   UNL     1      -2.297  -3.061   1.627  0.00  0.00    -0.315 N 
ATOM     25  C   UNL     1      -3.079  -3.124   0.532  0.00  0.00    +0.218 C 
ATOM     26  O   UNL     1      -2.607  -2.908  -0.564  0.00  0.00    -0.275 OA
ATOM     27  H   UNL     1      -2.674  -3.234   2.504  0.00  0.00    +0.149 HD
BRANCH  24  28
ATOM     28  C   UNL     1      -0.876  -2.731   1.494  0.00  0.00    +0.107 C 
BRANCH  28  29
ATOM     29  C   UNL     1      -0.250  -2.602   2.884  0.00  0.00    +0.006 C 
BRANCH  29  31
ATOM     30  C   UNL     1       1.894  -2.291   4.130  0.00  0.00    +0.004 C 
ATOM     31  C   UNL     1       1.243  -2.297   2.745  0.00  0.00    +0.002 C 
ENDBRANCH  29  31
BRANCH  29  32
ATOM     32  C   UNL     1      -0.933  -1.466   3.648  0.00  0.00    +0.002 C 
ATOM     33  C   UNL     1      -0.656  -0.137   2.941  0.00  0.00    +0.004 C 
ENDBRANCH  29  32
ENDBRANCH  28  29
ENDBRANCH  24  28
ENDBRANCH   1  25
TORSDOF 6
