REMARK  Name = ZINC45072162
REMARK  2 active torsions:
REMARK  status: ('A' for Active; 'I' for Inactive)
REMARK    1  A    between atoms: C_13  and  O_18
REMARK    2  A    between atoms: C_15  and  O_17
REMARK                            x       y       z     vdW  Elec       q    Type
REMARK                         _______ _______ _______ _____ _____    ______ ____
ROOT
ATOM      1  C   UNL     1      -0.018   1.507   0.010  0.00  0.00    +0.005 C 
ATOM      2  C   UNL     1       1.505   1.847  -0.002  0.00  0.00    +0.012 C 
ATOM      3  C   UNL     1       2.217   0.640  -0.698  0.00  0.00    +0.064 C 
ATOM      4  C   UNL     1       2.829   1.203  -1.977  0.00  0.00    +0.137 C 
ATOM      5  O   UNL     1       3.819   1.890  -2.058  0.00  0.00    -0.297 OA
ATOM      6  C   UNL     1       1.956   0.736  -3.129  0.00  0.00    +0.075 C 
ATOM      7  C   UNL     1       0.599   0.373  -2.469  0.00  0.00    +0.018 C 
ATOM      8  C   UNL     1       1.070  -0.260  -1.114  0.00  0.00    +0.012 C 
ATOM      9  C   UNL     1       0.002  -0.004   0.002  0.00  0.00    +0.001 C 
ATOM     10  C   UNL     1      -1.129  -0.864  -0.522  0.00  0.00    +0.038 C 
ATOM     11  C   UNL     1      -0.376  -2.179  -0.909  0.00  0.00    +0.144 C 
ATOM     12  C   UNL     1       1.101  -1.760  -1.186  0.00  0.00    +0.150 C 
ENDROOT
BRANCH  12  13
ATOM     13  O   UNL     1       1.969  -2.292  -0.183  0.00  0.00    -0.389 OA
ATOM     14  H   UNL     1       2.026  -3.257  -0.184  0.00  0.00    +0.210 HD
ENDBRANCH  12  13
BRANCH  11  15
ATOM     15  O   UNL     1      -0.431  -3.113   0.170  0.00  0.00    -0.389 OA
ATOM     16  H   UNL     1      -1.328  -3.386   0.409  0.00  0.00    +0.210 HD
ENDBRANCH  11  15
TORSDOF 2
