REMARK  Name = ZINC36645734
REMARK  9 active torsions:
REMARK  status: ('A' for Active; 'I' for Inactive)
REMARK    1  A    between atoms: C_1  and  C_2
REMARK    2  A    between atoms: C_4  and  C_30
REMARK    3  A    between atoms: C_8  and  N_29
REMARK    4  A    between atoms: C_9  and  C_11
REMARK    5  A    between atoms: C_11  and  O_13
REMARK    6  A    between atoms: O_13  and  C_14
REMARK    7  A    between atoms: C_14  and  C_15
REMARK    8  A    between atoms: N_17  and  C_18
REMARK    9  A    between atoms: C_19  and  C_26
REMARK                            x       y       z     vdW  Elec       q    Type
REMARK                         _______ _______ _______ _____ _____    ______ ____
ROOT
ATOM      1  O   UNL     1       2.697  -1.721   4.914  0.00  0.00    -0.451 OA
ENDROOT
BRANCH   1   2
ATOM      2  C   UNL     1       1.979  -0.745   4.319  0.00  0.00    +0.348 C 
ATOM      3  O   UNL     1       2.116   0.412   4.672  0.00  0.00    -0.244 OA
BRANCH   2  12
ATOM      4  C   UNL     1      -1.696   1.372   0.766  0.00  0.00    +0.044 C 
ATOM      5  C   UNL     1      -1.521  -0.123   0.688  0.00  0.00    -0.037 A 
ATOM      6  C   UNL     1      -2.240  -0.864  -0.221  0.00  0.00    +0.025 A 
ATOM      7  C   UNL     1      -2.078  -2.239  -0.290  0.00  0.00    +0.014 A 
ATOM      8  N   UNL     1      -1.231  -2.853   0.513  0.00  0.00    -0.353 N 
ATOM      9  C   UNL     1      -0.520  -2.189   1.399  0.00  0.00    +0.088 A 
ATOM     10  C   UNL     1      -0.609  -0.786   1.546  0.00  0.00    +0.030 A 
ATOM     11  C   UNL     1       0.254  -0.216   2.569  0.00  0.00    +0.055 A 
ATOM     12  C   UNL     1       1.067  -1.067   3.287  0.00  0.00    +0.119 A 
ATOM     13  S   UNL     1       0.683  -2.671   2.612  0.00  0.00    -0.062 S 
ATOM     14  C   UNL     1      -2.873  -3.037  -1.291  0.00  0.00    +0.063 C 
ATOM     15  H   UNL     1      -1.131  -3.816   0.450  0.00  0.00    +0.166 HD
BRANCH  11  16
ATOM     16  N   UNL     1       0.258   1.149   2.816  0.00  0.00    -0.356 N 
ATOM     17  H   UNL     1       0.106   1.774   2.090  0.00  0.00    +0.142 HD
ATOM     18  H   UNL     1       0.414   1.479   3.715  0.00  0.00    +0.142 HD
ENDBRANCH  11  16
ENDBRANCH   2  12
ENDBRANCH   1   2
BRANCH   1  19
ATOM     19  C   UNL     1       3.599  -1.324   5.949  0.00  0.00    +0.328 C 
BRANCH  19  20
ATOM     20  C   UNL     1       4.308  -2.539   6.491  0.00  0.00    +0.255 C 
ATOM     21  O   UNL     1       4.064  -3.636   6.035  0.00  0.00    -0.272 OA
ATOM     22  N   UNL     1       5.212  -2.406   7.481  0.00  0.00    -0.277 N 
ATOM     23  H   UNL     1       5.407  -1.528   7.845  0.00  0.00    +0.155 HD
BRANCH  22  24
ATOM     24  C   UNL     1       5.864  -3.523   7.980  0.00  0.00    +0.084 A 
ATOM     25  C   UNL     1       6.808  -3.578   8.988  0.00  0.00    +0.068 A 
ATOM     26  C   UNL     1       7.348  -4.893   9.331  0.00  0.00    -0.023 A 
ATOM     27  C   UNL     1       6.841  -5.901   8.598  0.00  0.00    -0.004 A 
ATOM     28  S   UNL     1       5.683  -5.121   7.503  0.00  0.00    -0.077 S 
ATOM     29  C   UNL     1       7.433  -7.229   8.988  0.00  0.00    +0.043 C 
ATOM     30  C   UNL     1       8.707  -6.870   9.784  0.00  0.00    +0.010 C 
ATOM     31  C   UNL     1       8.358  -5.467  10.321  0.00  0.00    +0.037 C 
BRANCH  25  32
ATOM     32  C   UNL     1       7.250  -2.366   9.685  0.00  0.00    +0.244 C 
ATOM     33  O   UNL     1       6.667  -1.993  10.686  0.00  0.00    -0.270 OA
ATOM     34  N   UNL     1       8.303  -1.666   9.217  0.00  0.00    -0.325 N 
ATOM     35  H   UNL     1       8.768  -1.963   8.420  0.00  0.00    +0.145 HD
ATOM     36  H   UNL     1       8.595  -0.864   9.679  0.00  0.00    +0.145 HD
ENDBRANCH  25  32
ENDBRANCH  22  24
ENDBRANCH  19  20
ENDBRANCH   1  19
TORSDOF 7
