REMARK  Name = ZINC09440734
REMARK  13 active torsions:
REMARK  status: ('A' for Active; 'I' for Inactive)
REMARK    1  A    between atoms: C_1  and  C_2
REMARK    2  A    between atoms: C_2  and  N_3
REMARK    3  A    between atoms: C_7  and  C_9
REMARK    4  A    between atoms: C_9  and  C_11
REMARK    5  A    between atoms: C_9  and  O_12
REMARK    6  A    between atoms: O_12  and  C_13
REMARK    7  A    between atoms: C_13  and  C_15
REMARK    8  A    between atoms: C_17  and  S_22
REMARK    9  A    between atoms: S_22  and  N_25
REMARK   10  A    between atoms: N_25  and  C_26
REMARK   11  A    between atoms: N_25  and  C_28
REMARK   12  A    between atoms: C_26  and  C_27
REMARK   13  A    between atoms: C_28  and  C_29
REMARK                            x       y       z     vdW  Elec       q    Type
REMARK                         _______ _______ _______ _____ _____    ______ ____
ROOT
ATOM      1  C   UNL     1      -1.690   0.780  -1.663  0.00  0.00    +0.343 C 
ATOM      2  O   UNL     1      -1.947  -0.279  -1.126  0.00  0.00    -0.245 OA
ENDROOT
BRANCH   1   3
ATOM      3  C   UNL     1      -2.447   1.204  -2.856  0.00  0.00    +0.096 A 
ATOM      4  C   UNL     1      -2.155   2.422  -3.477  0.00  0.00    +0.046 A 
ATOM      5  C   UNL     1      -2.865   2.812  -4.592  0.00  0.00    +0.106 A 
ATOM      6  C   UNL     1      -3.867   2.002  -5.099  0.00  0.00    +0.031 A 
ATOM      7  C   UNL     1      -4.164   0.796  -4.492  0.00  0.00    +0.041 A 
ATOM      8  C   UNL     1      -3.457   0.388  -3.376  0.00  0.00    +0.137 A 
ATOM      9  F   UNL     1      -3.743  -0.794  -2.787  0.00  0.00    -0.205 F 
BRANCH   5  10
ATOM     10  S   UNL     1      -2.497   4.347  -5.375  0.00  0.00    +0.061 S 
ATOM     11  O   UNL     1      -3.669   4.737  -6.076  0.00  0.00    -0.153 OA
ATOM     12  O   UNL     1      -1.889   5.170  -4.388  0.00  0.00    -0.153 OA
BRANCH  10  13
ATOM     13  N   UNL     1      -1.338   4.047  -6.519  0.00  0.00    -0.177 NA
BRANCH  13  14
ATOM     14  C   UNL     1      -1.733   3.694  -7.885  0.00  0.00    +0.106 C 
ATOM     15  C   UNL     1      -1.746   4.953  -8.754  0.00  0.00    +0.022 C 
ENDBRANCH  13  14
BRANCH  13  16
ATOM     16  C   UNL     1       0.081   4.135  -6.166  0.00  0.00    +0.106 C 
ATOM     17  C   UNL     1       0.603   2.744  -5.801  0.00  0.00    +0.022 C 
ENDBRANCH  13  16
ENDBRANCH  10  13
ENDBRANCH   5  10
ENDBRANCH   1   3
BRANCH   1  18
ATOM     18  O   UNL     1      -0.715   1.567  -1.168  0.00  0.00    -0.449 OA
BRANCH  18  19
ATOM     19  C   UNL     1      -0.013   1.086   0.008  0.00  0.00    +0.259 C 
ATOM     20  C   UNL     1      -0.729   1.579   1.267  0.00  0.00    +0.062 C 
BRANCH  19  25
ATOM     21  N   UNL     1       4.412   1.274   1.879  0.00  0.00    -0.299 N 
ATOM     22  C   UNL     1       3.538   1.674   0.933  0.00  0.00    +0.306 C 
ATOM     23  O   UNL     1       3.892   2.455   0.072  0.00  0.00    -0.252 OA
ATOM     24  N   UNL     1       2.274   1.208   0.943  0.00  0.00    -0.237 N 
ATOM     25  C   UNL     1       1.401   1.607  -0.003  0.00  0.00    +0.261 C 
ATOM     26  O   UNL     1       1.753   2.387  -0.862  0.00  0.00    -0.271 OA
ATOM     27  H   UNL     1       4.130   0.650   2.567  0.00  0.00    +0.150 HD
ATOM     28  H   UNL     1       1.992   0.584   1.631  0.00  0.00    +0.159 HD
BRANCH  21  30
ATOM     29  C   UNL     1       6.562   1.175   3.040  0.00  0.00    +0.024 C 
ATOM     30  C   UNL     1       5.786   1.781   1.869  0.00  0.00    +0.102 C 
ENDBRANCH  21  30
ENDBRANCH  19  25
ENDBRANCH  18  19
ENDBRANCH   1  18
TORSDOF 9
