REMARK  Name = ZINC58553226
REMARK  9 active torsions:
REMARK  status: ('A' for Active; 'I' for Inactive)
REMARK    1  A    between atoms: C_1  and  C_2
REMARK    2  A    between atoms: C_2  and  C_3
REMARK    3  A    between atoms: C_3  and  O_4
REMARK    4  A    between atoms: O_4  and  C_5
REMARK    5  A    between atoms: C_10  and  N_11
REMARK    6  A    between atoms: C_12  and  C_14
REMARK    7  A    between atoms: C_14  and  C_15
REMARK    8  A    between atoms: C_15  and  C_16
REMARK    9  A    between atoms: C_15  and  N_21
REMARK                            x       y       z     vdW  Elec       q    Type
REMARK                         _______ _______ _______ _____ _____    ______ ____
ROOT
ATOM      1  N   UNL     1       0.857  -4.714   1.316  0.00  0.00    -0.282 N 
ATOM      2  C   UNL     1       0.999  -6.054   1.319  0.00  0.00    +0.219 C 
ATOM      3  O   UNL     1       1.556  -6.603   2.246  0.00  0.00    -0.275 OA
ATOM      4  H   UNL     1       0.342  -4.282   0.616  0.00  0.00    +0.155 HD
ENDROOT
BRANCH   1  10
ATOM      5  C   UNL     1       0.931  -2.693   2.647  0.00  0.00    +0.142 A 
ATOM      6  C   UNL     1       1.520  -1.938   3.648  0.00  0.00    +0.049 A 
ATOM      7  C   UNL     1       2.625  -2.425   4.322  0.00  0.00    +0.024 A 
ATOM      8  C   UNL     1       3.146  -3.665   3.999  0.00  0.00    +0.043 A 
ATOM      9  C   UNL     1       2.564  -4.424   3.001  0.00  0.00    +0.047 A 
ATOM     10  C   UNL     1       1.452  -3.944   2.324  0.00  0.00    +0.077 A 
ATOM     11 CL   UNL     1       4.533  -4.270   4.850  0.00  0.00    -0.083 Cl
BRANCH   5  12
ATOM     12  O   UNL     1      -0.155  -2.216   1.983  0.00  0.00    -0.490 OA
BRANCH  12  13
ATOM     13  C   UNL     1      -0.634  -0.925   2.366  0.00  0.00    +0.229 C 
BRANCH  13  15
ATOM     14  C   UNL     1      -2.366   0.822   1.927  0.00  0.00    +0.007 C 
ATOM     15  C   UNL     1      -1.853  -0.560   1.516  0.00  0.00    +0.038 C 
ENDBRANCH  13  15
ENDBRANCH  12  13
ENDBRANCH   5  12
ENDBRANCH   1  10
BRANCH   2  16
ATOM     16  C   UNL     1       0.466  -6.870   0.169  0.00  0.00    +0.123 C 
BRANCH  16  17
ATOM     17  C   UNL     1       0.756  -8.352   0.419  0.00  0.00    +0.120 C 
BRANCH  17  18
ATOM     18  N   UNL     1       0.009  -8.805   1.595  0.00  0.00    -0.292 N 
ATOM     19  C   UNL     1      -1.337  -8.729   1.608  0.00  0.00    +0.298 C 
ATOM     20  O   UNL     1      -1.931  -8.286   0.644  0.00  0.00    -0.253 OA
ATOM     21  N   UNL     1      -2.024  -9.146   2.690  0.00  0.00    -0.313 N 
ATOM     22  H   UNL     1       0.482  -9.158   2.364  0.00  0.00    +0.151 HD
ATOM     23  H   UNL     1      -1.550  -9.499   3.459  0.00  0.00    +0.146 HD
ATOM     24  H   UNL     1      -2.993  -9.091   2.700  0.00  0.00    +0.146 HD
ENDBRANCH  17  18
BRANCH  17  25
ATOM     25  C   UNL     1       0.334  -9.156  -0.784  0.00  0.00    +0.010 A 
ATOM     26  C   UNL     1       1.097  -9.653  -1.789  0.00  0.00    +0.013 A 
ATOM     27  C   UNL     1       0.487 -10.370  -2.801  0.00  0.00    +0.008 A 
ATOM     28  C   UNL     1      -0.855 -10.555  -2.759  0.00  0.00    +0.045 A 
ATOM     29  S   UNL     1      -1.298  -9.707  -1.252  0.00  0.00    -0.100 S 
ENDBRANCH  17  25
ENDBRANCH  16  17
ENDBRANCH   2  16
TORSDOF 8
