REMARK  Name = ZINC43790004
REMARK  7 active torsions:
REMARK  status: ('A' for Active; 'I' for Inactive)
REMARK    1  A    between atoms: C_1  and  C_2
REMARK    2  A    between atoms: C_2  and  C_4
REMARK    3  A    between atoms: C_2  and  S_17
REMARK    4  A    between atoms: N_9  and  C_10
REMARK    5  A    between atoms: C_10  and  C_11
REMARK    6  A    between atoms: S_17  and  C_18
REMARK    7  A    between atoms: N_27  and  C_28
REMARK                            x       y       z     vdW  Elec       q    Type
REMARK                         _______ _______ _______ _____ _____    ______ ____
ROOT
ATOM      1  C   UNL     1      -0.019   1.526   0.010  0.00  0.00    +0.029 C 
ATOM      2  C   UNL     1       0.002  -0.004   0.002  0.00  0.00    +0.137 C 
ENDROOT
BRANCH   2   3
ATOM      3  C   UNL     1      -1.412  -0.526   0.013  0.00  0.00    +0.233 C 
ATOM      4  O   UNL     1      -1.939  -0.827   1.062  0.00  0.00    -0.274 OA
ATOM      5  N   UNL     1      -2.090  -0.657  -1.144  0.00  0.00    -0.239 N 
ATOM      6  C   UNL     1      -3.355  -1.124  -1.135  0.00  0.00    +0.306 C 
ATOM      7  O   UNL     1      -3.883  -1.426  -0.083  0.00  0.00    -0.252 OA
ATOM      8  N   UNL     1      -4.033  -1.255  -2.292  0.00  0.00    -0.297 N 
ATOM      9  H   UNL     1      -1.669  -0.416  -1.984  0.00  0.00    +0.159 HD
ATOM     10  H   UNL     1      -3.611  -1.014  -3.131  0.00  0.00    +0.150 HD
BRANCH   8  11
ATOM     11  C   UNL     1      -5.408  -1.762  -2.281  0.00  0.00    +0.137 C 
BRANCH  11  12
ATOM     12  C   UNL     1      -5.943  -1.813  -3.714  0.00  0.00    +0.135 C 
ATOM     13  C   UNL     1      -7.409  -2.314  -3.722  0.00  0.00    +0.035 C 
ATOM     14  C   UNL     1      -7.926  -1.694  -5.049  0.00  0.00    +0.031 C 
ATOM     15  C   UNL     1      -7.151  -0.360  -5.109  0.00  0.00    +0.160 C 
ATOM     16  O   UNL     1      -5.993  -0.492  -4.274  0.00  0.00    -0.375 OA
ENDBRANCH  11  12
ENDBRANCH   8  11
ENDBRANCH   2   3
BRANCH   2  17
ATOM     17  S   UNL     1       0.879  -0.605   1.472  0.00  0.00    -0.075 S 
BRANCH  17  18
ATOM     18  C   UNL     1       2.533  -0.042   1.241  0.00  0.00    +0.173 A 
ATOM     19  N   UNL     1       2.814   0.645   0.166  0.00  0.00    -0.222 NA
ATOM     20  C   UNL     1       4.073   1.115  -0.082  0.00  0.00    +0.086 A 
ATOM     21  C   UNL     1       4.523   1.861  -1.181  0.00  0.00    +0.036 A 
ATOM     22  C   UNL     1       5.816   2.243  -1.259  0.00  0.00    +0.048 A 
ATOM     23  S   UNL     1       6.516   1.570   0.239  0.00  0.00    -0.090 S 
ATOM     24  C   UNL     1       5.048   0.817   0.887  0.00  0.00    +0.102 A 
ATOM     25  C   UNL     1       4.740   0.082   2.029  0.00  0.00    +0.269 A 
ATOM     26  O   UNL     1       5.595  -0.169   2.861  0.00  0.00    -0.266 OA
ATOM     27  N   UNL     1       3.463  -0.339   2.196  0.00  0.00    -0.290 N 
ATOM     28  C   UNL     1       3.086  -1.109   3.384  0.00  0.00    +0.154 C 
ENDBRANCH  17  18
ENDBRANCH   2  17
TORSDOF 5
