REMARK  Name = ZINC67407800
REMARK  11 active torsions:
REMARK  status: ('A' for Active; 'I' for Inactive)
REMARK    1  A    between atoms: C_1  and  C_2
REMARK    2  A    between atoms: C_2  and  C_4
REMARK    3  A    between atoms: C_2  and  C_22
REMARK    4  A    between atoms: C_4  and  N_5
REMARK    5  A    between atoms: N_8  and  C_9
REMARK    6  A    between atoms: C_9  and  C_10
REMARK    7  A    between atoms: C_14  and  C_16
REMARK    8  A    between atoms: N_18  and  C_19
REMARK    9  A    between atoms: C_19  and  C_20
REMARK   10  A    between atoms: C_19  and  C_21
REMARK   11  A    between atoms: C_22  and  N_23
REMARK                            x       y       z     vdW  Elec       q    Type
REMARK                         _______ _______ _______ _____ _____    ______ ____
ROOT
ATOM      1  N   UNL     1      -2.082  -0.162   1.273  0.00  0.00    -0.299 N 
ATOM      2  C   UNL     1      -3.358  -0.524   1.506  0.00  0.00    +0.300 C 
ATOM      3  O   UNL     1      -3.973  -1.159   0.671  0.00  0.00    -0.253 OA
ATOM      4  N   UNL     1      -3.955  -0.182   2.666  0.00  0.00    -0.295 N 
ATOM      5  H   UNL     1      -1.592   0.345   1.939  0.00  0.00    +0.150 HD
ATOM      6  H   UNL     1      -3.465   0.325   3.332  0.00  0.00    +0.151 HD
ENDROOT
BRANCH   1   7
ATOM      7  C   UNL     1      -1.433  -0.534   0.013  0.00  0.00    +0.107 C 
BRANCH   7   9
ATOM      8  C   UNL     1      -0.019   1.526   0.010  0.00  0.00    +0.007 C 
ATOM      9  C   UNL     1       0.002  -0.004   0.002  0.00  0.00    -0.014 C 
BRANCH   9  10
ATOM     10  C   UNL     1       0.718  -0.497  -1.257  0.00  0.00    -0.074 C 
BRANCH  10  11
ATOM     11  N   UNL     1       2.129  -0.090  -1.209  0.00  0.00    +0.380 N 
ATOM     12  C   UNL     1       2.793  -0.762  -0.086  0.00  0.00    -0.079 C 
ATOM     13  C   UNL     1       4.241  -0.279   0.018  0.00  0.00    -0.019 C 
ATOM     14  C   UNL     1       4.978  -0.609  -1.284  0.00  0.00    -0.004 C 
ATOM     15  C   UNL     1       4.234   0.036  -2.457  0.00  0.00    -0.019 C 
ATOM     16  C   UNL     1       2.786  -0.459  -2.469  0.00  0.00    -0.079 C 
ATOM     17  H   UNL     1       2.185   0.909  -1.082  0.00  0.00    -0.082 HD
ENDBRANCH  10  11
ENDBRANCH   9  10
ENDBRANCH   7   9
ENDBRANCH   1   7
BRANCH   4  18
ATOM     18  C   UNL     1      -5.343  -0.576   2.919  0.00  0.00    +0.141 C 
BRANCH  18  19
ATOM     19  C   UNL     1      -5.768  -0.074   4.275  0.00  0.00    -0.030 A 
ATOM     20  C   UNL     1      -5.576  -0.864   5.395  0.00  0.00    +0.005 A 
ATOM     21  C   UNL     1      -5.962  -0.410   6.644  0.00  0.00    +0.001 A 
ATOM     22  C   UNL     1      -6.543   0.834   6.780  0.00  0.00    +0.013 A 
ATOM     23  C   UNL     1      -6.739   1.636   5.655  0.00  0.00    +0.037 A 
ATOM     24  C   UNL     1      -6.341   1.175   4.399  0.00  0.00    +0.018 A 
BRANCH  23  25
ATOM     25  C   UNL     1      -7.360   2.970   5.793  0.00  0.00    +0.244 C 
ATOM     26  O   UNL     1      -7.530   3.667   4.811  0.00  0.00    -0.270 OA
ATOM     27  N   UNL     1      -7.739   3.415   7.008  0.00  0.00    -0.309 N 
ATOM     28  H   UNL     1      -7.603   2.859   7.792  0.00  0.00    +0.149 HD
BRANCH  27  29
ATOM     29  C   UNL     1      -8.354   4.737   7.145  0.00  0.00    +0.067 C 
ATOM     30  C   UNL     1      -9.857   4.630   6.878  0.00  0.00    +0.027 C 
ATOM     31  C   UNL     1      -8.125   5.262   8.564  0.00  0.00    +0.027 C 
ENDBRANCH  27  29
ENDBRANCH  23  25
ENDBRANCH  18  19
ENDBRANCH   4  18
TORSDOF 8
