REMARK  Name = ZINC00670476
REMARK  5 active torsions:
REMARK  status: ('A' for Active; 'I' for Inactive)
REMARK    1  A    between atoms: C_1  and  C_2
REMARK    2  A    between atoms: C_2  and  C_3
REMARK    3  A    between atoms: C_10  and  N_14
REMARK    4  A    between atoms: C_11  and  C_12
REMARK    5  A    between atoms: C_15  and  C_17
REMARK                            x       y       z     vdW  Elec       q    Type
REMARK                         _______ _______ _______ _____ _____    ______ ____
ROOT
ATOM      1  N   UNL     1      -0.174   8.109   0.049  0.00  0.00    -0.275 N 
ATOM      2  C   UNL     1      -1.314   7.391   0.055  0.00  0.00    +0.256 C 
ATOM      3  O   UNL     1      -2.390   7.958   0.069  0.00  0.00    -0.270 OA
ATOM      4  H   UNL     1       0.684   7.657   0.037  0.00  0.00    +0.156 HD
ENDROOT
BRANCH   2   5
ATOM      5  C   UNL     1      -1.258   5.920   0.046  0.00  0.00    +0.122 A 
ATOM      6  C   UNL     1      -0.040   5.261   0.030  0.00  0.00    +0.031 A 
ATOM      7  C   UNL     1      -0.032   3.844   0.023  0.00  0.00    +0.018 A 
ATOM      8  C   UNL     1       1.184   3.144   0.008  0.00  0.00    +0.011 A 
ATOM      9  C   UNL     1       1.184   1.780   0.000  0.00  0.00    +0.001 A 
ATOM     10  C   UNL     1      -0.013   1.076   0.008  0.00  0.00    +0.004 A 
ATOM     11  C   UNL     1      -1.219   1.742   0.017  0.00  0.00    +0.047 A 
ATOM     12  C   UNL     1      -1.246   3.133   0.031  0.00  0.00    +0.139 A 
ATOM     13  O   UNL     1      -2.429   3.783   0.045  0.00  0.00    -0.422 OA
ATOM     14  C   UNL     1      -2.491   5.125   0.053  0.00  0.00    +0.350 A 
ATOM     15  O   UNL     1      -3.573   5.682   0.065  0.00  0.00    -0.244 OA
ENDBRANCH   2   5
BRANCH   1  22
ATOM     16  C   UNL     1      -0.387  14.488  -0.292  0.00  0.00    -0.006 C 
ATOM     17  C   UNL     1       0.876  14.221   0.532  0.00  0.00    +0.008 C 
ATOM     18  C   UNL     1       1.539  12.925   0.062  0.00  0.00    +0.037 C 
ATOM     19  C   UNL     1       0.498  11.813   0.064  0.00  0.00    -0.018 A 
ATOM     20  C   UNL     1      -0.823  12.097   0.078  0.00  0.00    -0.004 A 
ATOM     21  S   UNL     1      -1.625  10.518   0.069  0.00  0.00    -0.077 S 
ATOM     22  C   UNL     1      -0.227   9.495   0.057  0.00  0.00    +0.090 A 
ATOM     23  C   UNL     1       0.826  10.398   0.052  0.00  0.00    +0.084 A 
ATOM     24  C   UNL     1      -1.455  13.454   0.091  0.00  0.00    +0.046 C 
BRANCH  16  26
ATOM     25  C   UNL     1      -2.103  16.201  -0.895  0.00  0.00    +0.004 C 
ATOM     26  C   UNL     1      -0.905  15.896   0.007  0.00  0.00    +0.000 C 
ENDBRANCH  16  26
BRANCH  23  27
ATOM     27  C   UNL     1       2.187   9.951   0.037  0.00  0.00    +0.102 C 
ATOM     28  N   UNL     1       3.266   9.597   0.025  0.00  0.00    -0.191 NA
ENDBRANCH  23  27
ENDBRANCH   1  22
TORSDOF 4
