REMARK  Name = ZINC35577230
REMARK  7 active torsions:
REMARK  status: ('A' for Active; 'I' for Inactive)
REMARK    1  A    between atoms: C_1  and  O_2
REMARK    2  A    between atoms: O_2  and  C_3
REMARK    3  A    between atoms: C_3  and  C_4
REMARK    4  A    between atoms: C_4  and  N_5
REMARK    5  A    between atoms: C_13  and  C_28
REMARK    6  A    between atoms: C_15  and  N_27
REMARK    7  A    between atoms: N_16  and  C_20
REMARK                            x       y       z     vdW  Elec       q    Type
REMARK                         _______ _______ _______ _____ _____    ______ ____
ROOT
ATOM      1  N   UNL     1      -1.918  -2.937   1.033  0.00  0.00    +0.383 N 
ATOM      2  C   UNL     1      -2.454  -2.535   2.339  0.00  0.00    -0.059 C 
ATOM      3  C   UNL     1      -1.406  -2.801   3.424  0.00  0.00    +0.089 C 
ATOM      4  N   UNL     1      -0.998  -4.212   3.343  0.00  0.00    -0.303 N 
ATOM      5  C   UNL     1      -0.600  -4.744   2.031  0.00  0.00    +0.089 C 
ATOM      6  C   UNL     1      -1.687  -4.386   1.012  0.00  0.00    -0.059 C 
ATOM      7  C   UNL     1      -0.990  -5.016   4.469  0.00  0.00    +0.220 A 
ATOM      8  N   UNL     1      -0.607  -6.282   4.335  0.00  0.00    -0.214 NA
ATOM      9  C   UNL     1      -0.570  -7.121   5.362  0.00  0.00    +0.089 A 
ATOM     10  C   UNL     1      -0.952  -6.639   6.634  0.00  0.00    +0.086 A 
ATOM     11  C   UNL     1      -1.049  -7.173   7.913  0.00  0.00    +0.131 A 
ATOM     12  N   UNL     1      -1.484  -6.194   8.730  0.00  0.00    -0.216 N 
ATOM     13  N   UNL     1      -1.675  -5.015   8.000  0.00  0.00    -0.144 NA
ATOM     14  C   UNL     1      -1.370  -5.229   6.739  0.00  0.00    +0.189 A 
ATOM     15  N   UNL     1      -1.357  -4.483   5.617  0.00  0.00    -0.193 NA
ATOM     16  H   UNL     1      -1.047  -2.456   0.867  0.00  0.00    -0.082 HD
ENDROOT
BRANCH  12  17
ATOM     17  C   UNL     1      -1.711  -6.335  10.104  0.00  0.00    +0.068 A 
ATOM     18  C   UNL     1      -2.195  -7.534  10.610  0.00  0.00    +0.029 A 
ATOM     19  C   UNL     1      -2.417  -7.670  11.966  0.00  0.00    +0.022 A 
ATOM     20  C   UNL     1      -2.159  -6.613  12.821  0.00  0.00    +0.041 A 
ATOM     21  C   UNL     1      -1.678  -5.416  12.319  0.00  0.00    +0.022 A 
ATOM     22  C   UNL     1      -1.447  -5.277  10.965  0.00  0.00    +0.029 A 
ATOM     23 CL   UNL     1      -2.441  -6.787  14.525  0.00  0.00    -0.084 Cl
ENDBRANCH  12  17
BRANCH   9  24
ATOM     24  C   UNL     1      -0.139  -8.525   5.180  0.00  0.00    +0.001 A 
ATOM     25  C   UNL     1      -0.880  -9.564   5.745  0.00  0.00    +0.011 A 
ATOM     26  C   UNL     1      -0.474 -10.870   5.572  0.00  0.00    +0.020 A 
ATOM     27  C   UNL     1       0.667 -11.153   4.840  0.00  0.00    +0.041 A 
ATOM     28  C   UNL     1       1.407 -10.126   4.277  0.00  0.00    +0.020 A 
ATOM     29  C   UNL     1       1.007  -8.816   4.439  0.00  0.00    +0.011 A 
ATOM     30 CL   UNL     1       1.172 -12.800   4.627  0.00  0.00    -0.084 Cl
ENDBRANCH   9  24
BRANCH  11  31
ATOM     31  N   UNL     1      -0.755  -8.473   8.280  0.00  0.00    -0.342 N 
ATOM     32  H   UNL     1      -0.304  -9.063   7.656  0.00  0.00    +0.144 HD
ATOM     33  H   UNL     1      -0.998  -8.795   9.162  0.00  0.00    +0.144 HD
ENDBRANCH  11  31
BRANCH   1  34
ATOM     34  C   UNL     1      -2.880  -2.581  -0.019  0.00  0.00    -0.050 C 
BRANCH  34  35
ATOM     35  C   UNL     1      -3.027  -1.059  -0.081  0.00  0.00    +0.141 C 
BRANCH  35  37
ATOM     36  C   UNL     1      -1.818   0.950  -0.579  0.00  0.00    +0.193 C 
ATOM     37  O   UNL     1      -1.788  -0.476  -0.489  0.00  0.00    -0.385 OA
ENDBRANCH  35  37
ENDBRANCH  34  35
ENDBRANCH   1  34
TORSDOF 6
