REMARK  Name = ZINC34783225
REMARK  11 active torsions:
REMARK  status: ('A' for Active; 'I' for Inactive)
REMARK    1  A    between atoms: C_1  and  C_2
REMARK    2  A    between atoms: C_2  and  C_3
REMARK    3  A    between atoms: C_3  and  C_4
REMARK    4  A    between atoms: C_4  and  N_5
REMARK    5  A    between atoms: C_8  and  C_15
REMARK    6  A    between atoms: C_9  and  C_11
REMARK    7  A    between atoms: N_13  and  N_14
REMARK    8  A    between atoms: N_18  and  C_21
REMARK    9  A    between atoms: C_21  and  C_22
REMARK   10  A    between atoms: N_24  and  C_25
REMARK   11  A    between atoms: C_30  and  C_31
REMARK                            x       y       z     vdW  Elec       q    Type
REMARK                         _______ _______ _______ _____ _____    ______ ____
ROOT
ATOM      1  N   UNL     1       1.423  -2.515  -2.485  0.00  0.00    -0.287 N 
ATOM      2  C   UNL     1       0.708  -2.730  -3.630  0.00  0.00    +0.097 A 
ATOM      3  C   UNL     1       1.335  -3.172  -4.803  0.00  0.00    +0.074 A 
ATOM      4  C   UNL     1       0.495  -3.357  -5.909  0.00  0.00    -0.017 A 
ATOM      5  C   UNL     1      -0.832  -3.091  -5.734  0.00  0.00    +0.081 A 
ATOM      6  S   UNL     1      -0.908  -2.583  -4.028  0.00  0.00    -0.065 S 
ATOM      7  C   UNL     1       1.034  -3.828  -7.235  0.00  0.00    +0.046 C 
ATOM      8  C   UNL     1       2.800  -3.383  -4.707  0.00  0.00    +0.266 A 
ATOM      9  O   UNL     1       3.432  -3.765  -5.675  0.00  0.00    -0.267 OA
ATOM     10  N   UNL     1       3.421  -3.145  -3.539  0.00  0.00    -0.251 N 
ATOM     11  C   UNL     1       2.753  -2.718  -2.456  0.00  0.00    +0.333 A 
ATOM     12  O   UNL     1       3.362  -2.513  -1.424  0.00  0.00    -0.246 OA
ENDROOT
BRANCH   5  13
ATOM     13  C   UNL     1      -1.922  -3.196  -6.707  0.00  0.00    +0.264 C 
ATOM     14  O   UNL     1      -1.690  -3.564  -7.844  0.00  0.00    -0.268 OA
ATOM     15  N   UNL     1      -3.182  -2.887  -6.343  0.00  0.00    -0.249 N 
ATOM     16  H   UNL     1      -3.367  -2.594  -5.438  0.00  0.00    +0.169 HD
BRANCH  15  17
ATOM     17  N   UNL     1      -4.199  -2.985  -7.251  0.00  0.00    -0.254 NA
ATOM     18  H   UNL     1      -4.246  -3.914  -7.641  0.00  0.00    +0.140 HD
ATOM     19  H   UNL     1      -5.080  -2.722  -6.836  0.00  0.00    +0.140 HD
ENDBRANCH  15  17
ENDBRANCH   5  13
BRANCH   1  20
ATOM     20  C   UNL     1       0.734  -2.053  -1.278  0.00  0.00    +0.127 C 
BRANCH  20  21
ATOM     21  C   UNL     1       0.712  -0.523  -1.257  0.00  0.00    +0.021 C 
BRANCH  21  23
ATOM     22  C   UNL     1      -0.030   1.489   0.024  0.00  0.00    +0.004 C 
ATOM     23  C   UNL     1      -0.007  -0.040   0.004  0.00  0.00    -0.002 C 
ENDBRANCH  21  23
ENDBRANCH  20  21
ENDBRANCH   1  20
BRANCH  10  24
ATOM     24  C   UNL     1       4.869  -3.354  -3.446  0.00  0.00    +0.226 C 
BRANCH  24  25
ATOM     25  C   UNL     1       5.584  -2.077  -3.806  0.00  0.00    +0.237 C 
ATOM     26  O   UNL     1       4.948  -1.090  -4.109  0.00  0.00    -0.274 OA
ATOM     27  N   UNL     1       6.931  -2.032  -3.790  0.00  0.00    -0.284 N 
ATOM     28  H   UNL     1       7.438  -2.795  -3.471  0.00  0.00    +0.155 HD
BRANCH  27  29
ATOM     29  C   UNL     1       7.598  -0.884  -4.233  0.00  0.00    +0.036 A 
ATOM     30  C   UNL     1       6.983  -0.028  -5.137  0.00  0.00    +0.023 A 
ATOM     31  C   UNL     1       7.644   1.104  -5.573  0.00  0.00    +0.002 A 
ATOM     32  C   UNL     1       8.917   1.384  -5.111  0.00  0.00    +0.000 A 
ATOM     33  C   UNL     1       9.532   0.533  -4.212  0.00  0.00    +0.005 A 
ATOM     34  C   UNL     1       8.874  -0.597  -3.767  0.00  0.00    -0.029 A 
ATOM     35  C   UNL     1       9.542  -1.520  -2.781  0.00  0.00    +0.045 C 
ENDBRANCH  27  29
ENDBRANCH  24  25
ENDBRANCH  10  24
TORSDOF 8
