REMARK  Name = ZINC33171872
REMARK  8 active torsions:
REMARK  status: ('A' for Active; 'I' for Inactive)
REMARK    1  A    between atoms: C_5  and  C_7
REMARK    2  A    between atoms: C_7  and  N_8
REMARK    3  A    between atoms: C_9  and  C_11
REMARK    4  A    between atoms: C_12  and  N_27
REMARK    5  A    between atoms: C_13  and  C_16
REMARK    6  A    between atoms: N_18  and  C_19
REMARK    7  A    between atoms: C_19  and  C_20
REMARK    8  A    between atoms: C_20  and  C_21
REMARK                            x       y       z     vdW  Elec       q    Type
REMARK                         _______ _______ _______ _____ _____    ______ ____
ROOT
ATOM      1  C   UNL     1       0.002  -0.004   0.002  0.00  0.00    +0.156 A 
ATOM      2  C   UNL     1       1.228  -0.670  -0.013  0.00  0.00    +0.076 A 
ATOM      3  C   UNL     1       2.313   0.208  -0.019  0.00  0.00    +0.115 A 
ATOM      4  S   UNL     1       1.487   1.785  -0.003  0.00  0.00    +0.019 S 
ATOM      5  N   UNL     1      -0.016   1.310   0.009  0.00  0.00    -0.203 NA
ENDROOT
BRANCH   1   7
ATOM      6  N   UNL     1      -2.440  -0.116   0.025  0.00  0.00    -0.306 N 
ATOM      7  C   UNL     1      -1.260  -0.766   0.011  0.00  0.00    +0.265 C 
ATOM      8  O   UNL     1      -1.236  -1.982   0.004  0.00  0.00    -0.268 OA
ATOM      9  H   UNL     1      -2.462   0.984   0.031  0.00  0.00    +0.149 HD
BRANCH   6  10
ATOM     10  C   UNL     1      -3.694  -0.873   0.034  0.00  0.00    +0.141 C 
BRANCH  10  15
ATOM     11  C   UNL     1      -6.582   1.232   1.251  0.00  0.00    +0.000 A 
ATOM     12  C   UNL     1      -6.996   1.838   0.079  0.00  0.00    +0.001 A 
ATOM     13  C   UNL     1      -6.342   1.567  -1.108  0.00  0.00    +0.020 A 
ATOM     14  C   UNL     1      -5.273   0.689  -1.123  0.00  0.00    +0.046 A 
ATOM     15  C   UNL     1      -4.859   0.084   0.050  0.00  0.00    -0.012 A 
ATOM     16  C   UNL     1      -5.517   0.351   1.235  0.00  0.00    +0.006 A 
ATOM     17 CL   UNL     1      -4.451   0.348  -2.614  0.00  0.00    -0.083 Cl
ENDBRANCH  10  15
ENDBRANCH   6  10
ENDBRANCH   1   7
BRANCH   3  18
ATOM     18  C   UNL     1       3.747  -0.089  -0.034  0.00  0.00    +0.254 C 
ATOM     19  O   UNL     1       4.129  -1.244  -0.043  0.00  0.00    -0.270 OA
ATOM     20  N   UNL     1       4.643   0.917  -0.037  0.00  0.00    -0.311 N 
ATOM     21  H   UNL     1       4.298   1.962  -0.028  0.00  0.00    +0.149 HD
BRANCH  20  22
ATOM     22  C   UNL     1       6.078   0.620  -0.052  0.00  0.00    +0.109 C 
BRANCH  22  23
ATOM     23  C   UNL     1       6.870   1.930  -0.053  0.00  0.00    +0.049 C 
BRANCH  23  24
ATOM     24  C   UNL     1       8.345   1.624  -0.068  0.00  0.00    -0.072 C 
ATOM     25  C   UNL     1       8.949   1.604  -1.213  0.00  0.00    -0.028 C 
ATOM     26  C   UNL     1      10.410   1.307  -1.388  0.00  0.00    +0.027 C 
ATOM     27  C   UNL     1      11.142   1.455  -0.052  0.00  0.00    +0.004 C 
ATOM     28  C   UNL     1      10.369   0.670   1.015  0.00  0.00    +0.005 C 
ATOM     29  C   UNL     1       9.024   1.368   1.246  0.00  0.00    +0.030 C 
ENDBRANCH  23  24
ENDBRANCH  22  23
ENDBRANCH  20  22
ENDBRANCH   3  18
BRANCH   2  30
ATOM     30  N   UNL     1       1.354  -2.053  -0.023  0.00  0.00    -0.355 N 
ATOM     31  H   UNL     1       2.353  -2.514  -0.035  0.00  0.00    +0.142 HD
ATOM     32  H   UNL     1       0.455  -2.687  -0.018  0.00  0.00    +0.142 HD
ENDBRANCH   2  30
TORSDOF 8
