REMARK  Name = ZINC24144963
REMARK  13 active torsions:
REMARK  status: ('A' for Active; 'I' for Inactive)
REMARK    1  A    between atoms: C_1  and  N_2
REMARK    2  A    between atoms: N_2  and  C_3
REMARK    3  A    between atoms: N_2  and  S_4
REMARK    4  A    between atoms: S_4  and  C_7
REMARK    5  A    between atoms: N_12  and  C_14
REMARK    6  A    between atoms: C_14  and  C_15
REMARK    7  A    between atoms: N_17  and  C_18
REMARK    8  A    between atoms: C_18  and  C_19
REMARK    9  A    between atoms: C_22  and  O_27
REMARK   10  A    between atoms: C_23  and  O_25
REMARK   11  A    between atoms: O_25  and  C_26
REMARK   12  A    between atoms: O_27  and  C_28
REMARK   13  A    between atoms: C_28  and  C_29
REMARK                            x       y       z     vdW  Elec       q    Type
REMARK                         _______ _______ _______ _____ _____    ______ ____
ROOT
ATOM      1  C   UNL     1      -0.014   1.209   0.009  0.00  0.00    +0.233 C 
ATOM      2  O   UNL     1       0.002  -0.004   0.002  0.00  0.00    -0.274 OA
ATOM      3  N   UNL     1      -1.191   1.867   0.018  0.00  0.00    -0.310 N 
ATOM      4  H   UNL     1      -1.206   2.966   0.024  0.00  0.00    +0.149 HD
ENDROOT
BRANCH   1   5
ATOM      5  C   UNL     1       1.280   1.980   0.001  0.00  0.00    +0.220 C 
BRANCH   5  11
ATOM      6  C   UNL     1       3.974  -0.258   1.168  0.00  0.00    +0.122 A 
ATOM      7  C   UNL     1       4.518  -0.714  -0.041  0.00  0.00    +0.035 A 
ATOM      8  C   UNL     1       3.987  -0.275  -1.218  0.00  0.00    +0.072 A 
ATOM      9  C   UNL     1       2.907   0.624  -1.193  0.00  0.00    +0.252 A 
ATOM     10  O   UNL     1       2.422   1.024  -2.239  0.00  0.00    -0.268 OA
ATOM     11  N   UNL     1       2.407   1.043  -0.015  0.00  0.00    -0.305 N 
ATOM     12  C   UNL     1       2.937   0.612   1.157  0.00  0.00    +0.118 A 
BRANCH   6  13
ATOM     13  S   UNL     1       4.645  -0.811   2.701  0.00  0.00    +0.062 S 
ATOM     14  O   UNL     1       6.059  -0.761   2.568  0.00  0.00    -0.153 OA
ATOM     15  O   UNL     1       3.951  -0.111   3.724  0.00  0.00    -0.153 OA
BRANCH  13  17
ATOM     16  C   UNL     1       5.137  -3.447   2.346  0.00  0.00    +0.131 C 
ATOM     17  N   UNL     1       4.242  -2.409   2.863  0.00  0.00    -0.183 NA
ATOM     18  C   UNL     1       2.989  -2.785   3.524  0.00  0.00    +0.131 C 
ENDBRANCH  13  17
ENDBRANCH   6  13
ENDBRANCH   5  11
ENDBRANCH   1   5
BRANCH   3  19
ATOM     19  C   UNL     1      -2.449   1.117   0.020  0.00  0.00    +0.139 C 
BRANCH  19  20
ATOM     20  C   UNL     1      -3.608   2.080   0.030  0.00  0.00    -0.027 A 
ATOM     21  C   UNL     1      -4.136   2.511   1.234  0.00  0.00    +0.009 A 
ATOM     22  C   UNL     1      -5.195   3.399   1.249  0.00  0.00    +0.050 A 
ATOM     23  C   UNL     1      -5.737   3.851   0.056  0.00  0.00    +0.162 A 
ATOM     24  C   UNL     1      -5.209   3.414  -1.155  0.00  0.00    +0.162 A 
ATOM     25  C   UNL     1      -4.144   2.528  -1.163  0.00  0.00    +0.054 A 
BRANCH  24  26
ATOM     26  O   UNL     1      -5.737   3.856  -2.327  0.00  0.00    -0.491 OA
ATOM     27  C   UNL     1      -5.144   3.365  -3.531  0.00  0.00    +0.277 C 
ENDBRANCH  24  26
BRANCH  23  28
ATOM     28  O   UNL     1      -6.782   4.721   0.070  0.00  0.00    -0.484 OA
BRANCH  28  29
ATOM     29  C   UNL     1      -7.273   5.127   1.349  0.00  0.00    +0.264 C 
BRANCH  29  30
ATOM     30  C   UNL     1      -8.422   6.084   1.166  0.00  0.00    -0.010 A 
ATOM     31  C   UNL     1      -8.184   7.444   1.089  0.00  0.00    +0.007 A 
ATOM     32  C   UNL     1      -9.238   8.321   0.916  0.00  0.00    +0.000 A 
ATOM     33  C   UNL     1     -10.531   7.840   0.831  0.00  0.00    +0.000 A 
ATOM     34  C   UNL     1     -10.770   6.481   0.913  0.00  0.00    +0.000 A 
ATOM     35  C   UNL     1      -9.715   5.603   1.081  0.00  0.00    +0.007 A 
ENDBRANCH  29  30
ENDBRANCH  28  29
ENDBRANCH  23  28
ENDBRANCH  19  20
ENDBRANCH   3  19
TORSDOF 10
