REMARK  Name = ZINC65460018
REMARK  6 active torsions:
REMARK  status: ('A' for Active; 'I' for Inactive)
REMARK    1  A    between atoms: C_1  and  C_2
REMARK    2  A    between atoms: C_5  and  C_7
REMARK    3  A    between atoms: N_12  and  C_26
REMARK    4  A    between atoms: C_16  and  C_18
REMARK    5  A    between atoms: C_16  and  C_20
REMARK    6  A    between atoms: C_18  and  O_19
REMARK                            x       y       z     vdW  Elec       q    Type
REMARK                         _______ _______ _______ _____ _____    ______ ____
ROOT
ATOM      1  C   UNL     1       2.206  -2.508   0.092  0.00  0.00    +0.123 C 
ATOM      2  C   UNL     1       2.877  -2.966   1.409  0.00  0.00    +0.000 C 
ATOM      3  C   UNL     1       2.022  -2.488   2.594  0.00  0.00    -0.074 C 
ATOM      4  N   UNL     1       2.812  -1.471   3.321  0.00  0.00    +0.378 N 
ATOM      5  C   UNL     1       3.732  -0.881   2.317  0.00  0.00    -0.073 C 
ATOM      6  C   UNL     1       4.177  -2.110   1.455  0.00  0.00    +0.002 C 
ATOM      7  C   UNL     1       4.407  -1.653   0.004  0.00  0.00    +0.070 C 
ATOM      8  N   UNL     1       3.349  -2.278  -0.826  0.00  0.00    -0.295 NA
ATOM      9  C   UNL     1       1.925  -0.435   3.866  0.00  0.00    -0.096 C 
ATOM     10  H   UNL     1       3.670  -3.146  -1.228  0.00  0.00    +0.124 HD
ATOM     11  H   UNL     1       3.339  -1.906   4.064  0.00  0.00    -0.082 HD
ENDROOT
BRANCH   1  16
ATOM     12  C   UNL     1       0.507   1.741   2.213  0.00  0.00    +0.086 C 
ATOM     13  C   UNL     1       0.694   0.616   1.228  0.00  0.00    +0.102 A 
ATOM     14  C   UNL     1       0.055   0.484   0.052  0.00  0.00    +0.045 A 
ATOM     15  C   UNL     1       0.531  -0.707  -0.542  0.00  0.00    +0.046 A 
ATOM     16  C   UNL     1       1.433  -1.232   0.306  0.00  0.00    +0.122 A 
ATOM     17  O   UNL     1       1.532  -0.424   1.374  0.00  0.00    -0.463 OA
ENDBRANCH   1  16
BRANCH   7  18
ATOM     18  C   UNL     1       5.764  -2.108  -0.468  0.00  0.00    -0.025 A 
ATOM     19  C   UNL     1       6.798  -2.252   0.438  0.00  0.00    +0.005 A 
ATOM     20  C   UNL     1       8.043  -2.668   0.005  0.00  0.00    +0.000 A 
ATOM     21  C   UNL     1       8.253  -2.942  -1.333  0.00  0.00    +0.000 A 
ATOM     22  C   UNL     1       7.219  -2.800  -2.239  0.00  0.00    +0.000 A 
ATOM     23  C   UNL     1       5.973  -2.387  -1.806  0.00  0.00    +0.005 A 
ENDBRANCH   7  18
BRANCH   7  24
ATOM     24  C   UNL     1       4.304  -0.129  -0.085  0.00  0.00    +0.183 C 
BRANCH  24  25
ATOM     25  O   UNL     1       4.594   0.291  -1.419  0.00  0.00    -0.393 OA
ATOM     26  H   UNL     1       4.548   1.248  -1.549  0.00  0.00    +0.209 HD
ENDBRANCH  24  25
ENDBRANCH   7  24
TORSDOF 4
