REMARK  Name = ZINC38693644
REMARK  6 active torsions:
REMARK  status: ('A' for Active; 'I' for Inactive)
REMARK    1  A    between atoms: C_1  and  C_2
REMARK    2  A    between atoms: C_5  and  S_9
REMARK    3  A    between atoms: S_9  and  N_12
REMARK    4  A    between atoms: N_12  and  C_13
REMARK    5  A    between atoms: N_19  and  S_23
REMARK    6  A    between atoms: S_23  and  C_26
REMARK                            x       y       z     vdW  Elec       q    Type
REMARK                         _______ _______ _______ _____ _____    ______ ____
ROOT
ATOM      1  C   UNL     1       1.979  -6.357  -0.044  0.00  0.00    +0.076 A 
ATOM      2  C   UNL     1       0.974  -7.317  -0.051  0.00  0.00    +0.027 A 
ATOM      3  C   UNL     1       1.298  -8.658  -0.059  0.00  0.00    +0.007 A 
ATOM      4  C   UNL     1       2.625  -9.059  -0.062  0.00  0.00    -0.025 A 
ATOM      5  C   UNL     1       3.631  -8.104  -0.059  0.00  0.00    +0.056 A 
ATOM      6  C   UNL     1       3.308  -6.753  -0.053  0.00  0.00    +0.051 A 
ATOM      7  N   UNL     1       4.978  -8.482  -0.071  0.00  0.00    -0.203 N 
ATOM      8  C   UNL     1       5.327  -9.880   0.216  0.00  0.00    +0.132 C 
ATOM      9  C   UNL     1       4.361 -10.775  -0.571  0.00  0.00    +0.025 C 
ATOM     10  C   UNL     1       2.939 -10.532  -0.065  0.00  0.00    +0.038 C 
ENDROOT
BRANCH   7  11
ATOM     11  S   UNL     1       6.160  -7.371  -0.403  0.00  0.00    +0.075 S 
ATOM     12  O   UNL     1       7.317  -8.108  -0.773  0.00  0.00    -0.150 OA
ATOM     13  O   UNL     1       5.573  -6.396  -1.255  0.00  0.00    -0.150 OA
BRANCH  11  14
ATOM     14  C   UNL     1       6.546  -6.552   1.109  0.00  0.00    +0.109 A 
ATOM     15  C   UNL     1       5.855  -5.412   1.472  0.00  0.00    +0.031 A 
ATOM     16  C   UNL     1       6.156  -4.769   2.658  0.00  0.00    +0.040 A 
ATOM     17  C   UNL     1       7.151  -5.268   3.482  0.00  0.00    +0.124 A 
ATOM     18  C   UNL     1       7.843  -6.410   3.116  0.00  0.00    +0.040 A 
ATOM     19  C   UNL     1       7.536  -7.054   1.933  0.00  0.00    +0.031 A 
ATOM     20  F   UNL     1       7.447  -4.640   4.641  0.00  0.00    -0.205 F 
ENDBRANCH  11  14
ENDBRANCH   7  11
BRANCH   1  21
ATOM     21  N   UNL     1       1.651  -4.999  -0.033  0.00  0.00    -0.098 NA
BRANCH  21  22
ATOM     22  S   UNL     1       0.063  -4.531  -0.022  0.00  0.00    +0.092 S 
ATOM     23  O   UNL     1      -0.476  -4.952   1.223  0.00  0.00    -0.148 OA
ATOM     24  O   UNL     1      -0.489  -4.936  -1.267  0.00  0.00    -0.148 OA
BRANCH  22  29
ATOM     25  C   UNL     1      -0.018   1.503   0.014  0.00  0.00    +0.045 C 
ATOM     26  C   UNL     1       0.003  -0.004   0.005  0.00  0.00    -0.032 A 
ATOM     27  C   UNL     1       0.006  -0.688  -1.196  0.00  0.00    +0.007 A 
ATOM     28  C   UNL     1       0.025  -2.070  -1.204  0.00  0.00    +0.029 A 
ATOM     29  C   UNL     1       0.040  -2.769  -0.011  0.00  0.00    +0.112 A 
ATOM     30  C   UNL     1       0.037  -2.086   1.190  0.00  0.00    +0.049 A 
ATOM     31  C   UNL     1       0.024  -0.702   1.199  0.00  0.00    +0.046 A 
ATOM     32 CL   UNL     1       0.026   0.157   2.708  0.00  0.00    -0.083 Cl
ENDBRANCH  22  29
ENDBRANCH  21  22
ENDBRANCH   1  21
TORSDOF 5
