REMARK  Name = ZINC11963770
REMARK  6 active torsions:
REMARK  status: ('A' for Active; 'I' for Inactive)
REMARK    1  A    between atoms: C_8  and  C_11
REMARK    2  A    between atoms: C_11  and  N_66
REMARK    3  A    between atoms: C_12  and  N_66
REMARK    4  A    between atoms: N_15  and  C_18
REMARK    5  A    between atoms: C_21  and  C_24
REMARK    6  A    between atoms: N_26  and  C_27
REMARK                            x       y       z     vdW  Elec       q    Type
REMARK                         _______ _______ _______ _____ _____    ______ ____
ROOT
ATOM      1  C   UNL     1      -0.870   1.343   1.231  0.00  0.00    -0.068 C 
ATOM      2  C   UNL     1       0.024   1.123   0.007  0.00  0.00    +0.003 C 
ATOM      3  C   UNL     1      -0.711   1.600  -1.248  0.00  0.00    +0.103 C 
ATOM      4  N   UNL     1      -1.042   3.024  -1.111  0.00  0.00    -0.330 N 
ATOM      5  C   UNL     1      -1.938   3.253   0.029  0.00  0.00    +0.103 C 
ATOM      6  C   UNL     1      -1.241   2.825   1.322  0.00  0.00    +0.003 C 
ENDROOT
BRANCH   4   7
ATOM      7  C   UNL     1      -1.593   3.523  -2.286  0.00  0.00    +0.030 A 
ATOM      8  C   UNL     1      -1.756   2.687  -3.387  0.00  0.00    +0.024 A 
ATOM      9  C   UNL     1      -2.306   3.176  -4.550  0.00  0.00    +0.015 A 
ATOM     10  C   UNL     1      -2.692   4.517  -4.628  0.00  0.00    +0.037 A 
ATOM     11  C   UNL     1      -2.523   5.356  -3.522  0.00  0.00    +0.015 A 
ATOM     12  C   UNL     1      -1.977   4.859  -2.361  0.00  0.00    +0.024 A 
BRANCH  10  13
ATOM     13  C   UNL     1      -3.277   5.046  -5.874  0.00  0.00    +0.245 C 
ATOM     14  O   UNL     1      -3.612   6.213  -5.941  0.00  0.00    -0.270 OA
ATOM     15  N   UNL     1      -3.440   4.236  -6.939  0.00  0.00    -0.300 N 
ATOM     16  H   UNL     1      -3.172   3.305  -6.886  0.00  0.00    +0.150 HD
BRANCH  15  17
ATOM     17  C   UNL     1      -4.021   4.762  -8.177  0.00  0.00    +0.159 C 
ATOM     18  C   UNL     1      -3.724   3.802  -9.332  0.00  0.00    +0.032 C 
ATOM     19  C   UNL     1      -3.736   2.362  -8.852  0.00  0.00    +0.004 C 
ATOM     20  C   UNL     1      -5.104   1.876  -8.410  0.00  0.00    +0.019 C 
ATOM     21  C   UNL     1      -5.561   2.608  -7.146  0.00  0.00    +0.104 C 
ATOM     22  N   UNL     1      -6.230   3.858  -7.542  0.00  0.00    -0.314 N 
ATOM     23  C   UNL     1      -5.522   4.884  -8.023  0.00  0.00    +0.233 C 
ATOM     24  O   UNL     1      -6.080   5.913  -8.342  0.00  0.00    -0.274 OA
ATOM     25  H   UNL     1      -7.193   3.939  -7.451  0.00  0.00    +0.149 HD
ENDBRANCH  15  17
ENDBRANCH  10  13
ENDBRANCH   4   7
BRANCH   1  26
ATOM     26  N   UNL     1      -0.136   0.940   2.446  0.00  0.00    +0.385 N 
ATOM     27  H   UNL     1       0.464   0.136   2.228  0.00  0.00    -0.085 HD
ATOM     28  H   UNL     1       0.445   1.724   2.765  0.00  0.00    -0.085 HD
BRANCH  26  29
ATOM     29  C   UNL     1      -1.081   0.568   3.515  0.00  0.00    -0.028 C 
BRANCH  29  37
ATOM     30  C   UNL     1       1.992  -0.534   8.650  0.00  0.00    +0.001 A 
ATOM     31  C   UNL     1       2.088  -1.811   8.114  0.00  0.00    +0.002 A 
ATOM     32  C   UNL     1       1.524  -2.104   6.893  0.00  0.00    +0.026 A 
ATOM     33  C   UNL     1       0.849  -1.113   6.187  0.00  0.00    +0.047 A 
ATOM     34  C   UNL     1       0.754   0.179   6.735  0.00  0.00    -0.000 A 
ATOM     35  C   UNL     1       1.334   0.455   7.975  0.00  0.00    +0.010 A 
ATOM     36  C   UNL     1      -0.002   0.976   5.765  0.00  0.00    +0.029 A 
ATOM     37  C   UNL     1      -0.305   0.162   4.741  0.00  0.00    -0.000 A 
ATOM     38  N   UNL     1       0.190  -1.091   4.978  0.00  0.00    -0.360 N 
ATOM     39  H   UNL     1       0.094  -1.850   4.382  0.00  0.00    +0.166 HD
ENDBRANCH  29  37
ENDBRANCH  26  29
ENDBRANCH   1  26
TORSDOF 6
