REMARK  Name = ZINC39468681
REMARK  6 active torsions:
REMARK  status: ('A' for Active; 'I' for Inactive)
REMARK    1  A    between atoms: C_1  and  S_2
REMARK    2  A    between atoms: S_2  and  P_3
REMARK    3  A    between atoms: C_11  and  O_31
REMARK    4  A    between atoms: C_12  and  S_21
REMARK    5  A    between atoms: S_21  and  O_24
REMARK    6  A    between atoms: O_24  and  C_25
REMARK                            x       y       z     vdW  Elec       q    Type
REMARK                         _______ _______ _______ _____ _____    ______ ____
ROOT
ATOM      1  P   UNL     1      -0.882  -0.151  -0.120  0.00  0.00    +0.314 P 
ATOM      2  O   UNL     1      -1.319   0.401   1.182  0.00  0.00    -0.262 OA
ATOM      3  N   UNL     1      -1.057  -1.792  -0.137  0.00  0.00    -0.283 NA
ATOM      4  N   UNL     1      -1.112  -2.420  -1.364  0.00  0.00    +0.398 N 
ATOM      5  C   UNL     1      -1.385  -3.839  -1.082  0.00  0.00    -0.046 C 
ATOM      6  C   UNL     1      -1.455  -4.649  -2.369  0.00  0.00    +0.008 C 
ATOM      7  C   UNL     1      -0.148  -4.579  -3.111  0.00  0.00    +0.023 C 
ATOM      8  C   UNL     1      -0.126  -4.822  -4.425  0.00  0.00    +0.141 C 
ATOM      9  C   UNL     1      -1.381  -5.168  -5.119  0.00  0.00    +0.165 C 
ATOM     10  C   UNL     1      -2.548  -4.829  -4.580  0.00  0.00    +0.011 C 
ATOM     11  C   UNL     1      -2.565  -4.091  -3.264  0.00  0.00    +0.018 C 
ATOM     12  C   UNL     1      -2.290  -2.608  -3.514  0.00  0.00    -0.003 C 
ATOM     13  C   UNL     1      -2.181  -1.850  -2.186  0.00  0.00    -0.020 C 
ATOM     14  C   UNL     1      -1.904  -0.380  -2.527  0.00  0.00    +0.157 C 
ATOM     15  O   UNL     1      -1.843   0.393  -1.315  0.00  0.00    -0.312 OA
ATOM     16  H   UNL     1      -1.120  -2.298   0.688  0.00  0.00    +0.112 HD
ATOM     17  H   UNL     1      -0.227  -2.319  -1.838  0.00  0.00    -0.055 HD
ENDROOT
BRANCH   9  18
ATOM     18  S   UNL     1      -1.334  -6.025  -6.657  0.00  0.00    +0.154 S 
ATOM     19  O   UNL     1      -0.371  -7.060  -6.516  0.00  0.00    -0.131 OA
ATOM     20  O   UNL     1      -2.684  -6.285  -7.019  0.00  0.00    -0.131 OA
BRANCH  18  21
ATOM     21  O   UNL     1      -0.784  -5.058  -7.696  0.00  0.00    -0.342 OA
BRANCH  21  22
ATOM     22  C   UNL     1      -1.668  -4.100  -8.081  0.00  0.00    +0.157 A 
ATOM     23  C   UNL     1      -2.505  -4.322  -9.165  0.00  0.00    +0.048 A 
ATOM     24  C   UNL     1      -3.402  -3.347  -9.555  0.00  0.00    +0.004 A 
ATOM     25  C   UNL     1      -3.466  -2.150  -8.866  0.00  0.00    +0.000 A 
ATOM     26  C   UNL     1      -2.633  -1.925  -7.786  0.00  0.00    +0.004 A 
ATOM     27  C   UNL     1      -1.738  -2.900  -7.388  0.00  0.00    +0.048 A 
ENDBRANCH  21  22
ENDBRANCH  18  21
ENDBRANCH   9  18
BRANCH   1  29
ATOM     28  C   UNL     1       1.109   2.189  -0.572  0.00  0.00    +0.096 C 
ATOM     29  S   UNL     1       1.135   0.377  -0.502  0.00  0.00    -0.059 S 
ENDBRANCH   1  29
BRANCH   8  30
ATOM     30  O   UNL     1       1.043  -4.752  -5.116  0.00  0.00    -0.505 OA
ATOM     31  H   UNL     1       1.808  -4.518  -4.573  0.00  0.00    +0.292 HD
ENDBRANCH   8  30
TORSDOF 5
