REMARK  Name = ZINC38976040
REMARK  4 active torsions:
REMARK  status: ('A' for Active; 'I' for Inactive)
REMARK    1  A    between atoms: C_5  and  C_7
REMARK    2  A    between atoms: N_13  and  N_14
REMARK    3  A    between atoms: C_15  and  C_16
REMARK    4  A    between atoms: C_21  and  O_22
REMARK                            x       y       z     vdW  Elec       q    Type
REMARK                         _______ _______ _______ _____ _____    ______ ____
ROOT
ATOM      1  C   UNL     1       1.251  -2.182  -0.034  0.00  0.00    +0.280 C 
ATOM      2  N   UNL     1       2.419  -2.673   0.714  0.00  0.00    -0.188 NA
ATOM      3  N   UNL     1       2.011  -3.335   1.672  0.00  0.00    -0.219 N 
ATOM      4  C   UNL     1       0.654  -3.405   1.741  0.00  0.00    +0.174 C 
ATOM      5  S   UNL     1      -0.224  -4.244   2.948  0.00  0.00    -0.015 S 
ATOM      6  N   UNL     1       0.098  -2.716   0.716  0.00  0.00    -0.171 N 
ATOM      7  H   UNL     1       2.600  -3.763   2.313  0.00  0.00    +0.176 HD
ENDROOT
BRANCH   1  12
ATOM      8  C   UNL     1      -0.004   1.372  -0.043  0.00  0.00    +0.003 A 
ATOM      9  C   UNL     1       1.209   2.044  -0.062  0.00  0.00    +0.017 A 
ATOM     10  C   UNL     1       2.383   1.315  -0.071  0.00  0.00    +0.083 A 
ATOM     11  N   UNL     1       2.358  -0.004  -0.061  0.00  0.00    -0.361 N 
ATOM     12  C   UNL     1       1.224  -0.676  -0.043  0.00  0.00    +0.062 A 
ATOM     13  C   UNL     1       0.010  -0.014  -0.033  0.00  0.00    +0.025 A 
ATOM     14  H   UNL     1       3.196  -0.492  -0.068  0.00  0.00    +0.165 HD
ENDBRANCH   1  12
BRANCH   6  15
ATOM     15  N   UNL     1      -1.263  -2.547   0.431  0.00  0.00    -0.183 NA
ATOM     16  C   UNL     1      -2.156  -3.179   1.130  0.00  0.00    +0.142 C 
BRANCH  16  17
ATOM     17  C   UNL     1      -3.580  -3.090   0.760  0.00  0.00    +0.038 A 
ATOM     18  C   UNL     1      -4.545  -3.764   1.514  0.00  0.00    +0.028 A 
ATOM     19  C   UNL     1      -5.876  -3.676   1.163  0.00  0.00    +0.020 A 
ATOM     20  C   UNL     1      -6.261  -2.922   0.066  0.00  0.00    +0.034 A 
ATOM     21  C   UNL     1      -5.315  -2.251  -0.688  0.00  0.00    +0.061 A 
ATOM     22  C   UNL     1      -3.974  -2.324  -0.345  0.00  0.00    +0.139 A 
ATOM     23 BR   UNL     1      -5.853  -1.226  -2.183  0.00  0.00    -0.046 Br
ATOM     24 BR   UNL     1      -7.181  -4.589   2.182  0.00  0.00    -0.050 Br
BRANCH  22  25
ATOM     25  O   UNL     1      -3.045  -1.660  -1.081  0.00  0.00    -0.505 OA
ATOM     26  H   UNL     1      -2.685  -2.175  -1.816  0.00  0.00    +0.292 HD
ENDBRANCH  22  25
ENDBRANCH  16  17
ENDBRANCH   6  15
TORSDOF 4
