REMARK  Name = ZINC43586950
REMARK  3 active torsions:
REMARK  status: ('A' for Active; 'I' for Inactive)
REMARK    1  A    between atoms: C_15  and  C_18
REMARK    2  A    between atoms: C_18  and  C_19
REMARK    3  A    between atoms: C_19  and  C_20
REMARK                            x       y       z     vdW  Elec       q    Type
REMARK                         _______ _______ _______ _____ _____    ______ ____
ROOT
ATOM      1  C   UNL     1      -0.625   4.986   1.344  0.00  0.00    +0.000 C 
ATOM      2  C   UNL     1      -1.410   5.635   2.479  0.00  0.00    +0.002 C 
ATOM      3  C   UNL     1      -1.994   4.540   3.386  0.00  0.00    +0.019 C 
ATOM      4  C   UNL     1      -0.895   4.002   4.293  0.00  0.00    +0.109 C 
ATOM      5  N   UNL     1       0.025   3.177   3.497  0.00  0.00    -0.285 N 
ATOM      6  C   UNL     1       1.380   3.647   3.264  0.00  0.00    +0.109 C 
ATOM      7  C   UNL     1       1.323   5.141   2.918  0.00  0.00    +0.019 C 
ATOM      8  C   UNL     1       0.876   5.308   1.466  0.00  0.00    +0.002 C 
ATOM      9  C   UNL     1      -0.385   1.998   2.988  0.00  0.00    +0.305 C 
ATOM     10  O   UNL     1       0.142   1.552   1.987  0.00  0.00    -0.252 OA
ATOM     11  N   UNL     1      -1.377   1.313   3.589  0.00  0.00    -0.285 N 
ATOM     12  C   UNL     1      -1.409  -0.155   3.542  0.00  0.00    +0.109 C 
ATOM     13  C   UNL     1      -2.773  -0.602   3.005  0.00  0.00    +0.019 C 
ATOM     14  C   UNL     1      -3.881   0.024   3.856  0.00  0.00    +0.006 C 
ATOM     15  C   UNL     1      -3.800   1.549   3.760  0.00  0.00    +0.007 C 
ATOM     16  C   UNL     1      -2.445   2.020   4.310  0.00  0.00    +0.112 C 
ENDROOT
BRANCH  15  17
ATOM     17  C   UNL     1      -4.928   2.173   4.584  0.00  0.00    +0.016 C 
BRANCH  17  18
ATOM     18  C   UNL     1      -4.853   3.697   4.479  0.00  0.00    +0.125 C 
BRANCH  18  19
ATOM     19  C   UNL     1      -6.058   4.307   5.149  0.00  0.00    +0.356 C 
ATOM     20  O   UNL     1      -6.899   3.588   5.663  0.00  0.00    -0.246 OA
ATOM     21  O   UNL     1      -6.192   5.518   5.178  0.00  0.00    -0.246 OA
ENDBRANCH  18  19
ENDBRANCH  17  18
ENDBRANCH  15  17
TORSDOF 3
