REMARK  Name = ZINC39444094
REMARK  6 active torsions:
REMARK  status: ('A' for Active; 'I' for Inactive)
REMARK    1  A    between atoms: C_1  and  C_2
REMARK    2  A    between atoms: N_16  and  N_17
REMARK    3  A    between atoms: C_18  and  C_19
REMARK    4  A    between atoms: C_23  and  O_26
REMARK    5  A    between atoms: C_24  and  O_25
REMARK    6  A    between atoms: O_26  and  C_27
REMARK                            x       y       z     vdW  Elec       q    Type
REMARK                         _______ _______ _______ _____ _____    ______ ____
ROOT
ATOM      1  C   UNL     1      -0.018   1.503   0.010  0.00  0.00    +0.046 C 
ATOM      2  C   UNL     1       0.002  -0.004   0.002  0.00  0.00    -0.027 A 
ATOM      3  C   UNL     1       0.006  -0.681  -1.168  0.00  0.00    +0.005 A 
ATOM      4  C   UNL     1       0.027  -2.082  -1.210  0.00  0.00    +0.001 A 
ATOM      5  C   UNL     1       0.014  -2.841  -0.090  0.00  0.00    +0.012 A 
ATOM      6  C   UNL     1      -0.021  -2.237   1.187  0.00  0.00    +0.025 A 
ATOM      7  C   UNL     1      -0.159  -2.716   2.465  0.00  0.00    +0.115 C 
ATOM      8  C   UNL     1       0.145  -1.530   3.374  0.00  0.00    +0.253 C 
ATOM      9  N   UNL     1       0.051  -0.358   2.514  0.00  0.00    -0.358 N 
ATOM     10  C   UNL     1       0.024  -0.753   1.264  0.00  0.00    +0.049 A 
ATOM     11  N   UNL     1      -0.855  -1.574   4.444  0.00  0.00    -0.220 NA
ATOM     12  C   UNL     1      -1.365  -2.737   4.766  0.00  0.00    +0.227 C 
ATOM     13  N   UNL     1      -1.063  -3.894   4.130  0.00  0.00    -0.247 N 
ATOM     14  N   UNL     1      -0.490  -3.905   2.971  0.00  0.00    -0.171 NA
ATOM     15  N   UNL     1      -2.260  -2.785   5.815  0.00  0.00    -0.206 N 
ATOM     16  H   UNL     1      -2.655  -3.632   6.077  0.00  0.00    +0.177 HD
ATOM     17  H   UNL     1      -1.293  -4.737   4.551  0.00  0.00    +0.192 HD
ATOM     18  H   UNL     1       0.018   0.563   2.817  0.00  0.00    +0.162 HD
ENDROOT
BRANCH  15  19
ATOM     19  N   UNL     1      -2.600  -1.612   6.501  0.00  0.00    -0.187 NA
ATOM     20  C   UNL     1      -3.443  -1.658   7.488  0.00  0.00    +0.142 C 
BRANCH  20  21
ATOM     21  C   UNL     1      -3.800  -0.424   8.210  0.00  0.00    +0.041 A 
ATOM     22  C   UNL     1      -4.702  -0.471   9.277  0.00  0.00    +0.028 A 
ATOM     23  C   UNL     1      -5.034   0.687   9.950  0.00  0.00    +0.022 A 
ATOM     24  C   UNL     1      -4.477   1.898   9.574  0.00  0.00    +0.064 A 
ATOM     25  C   UNL     1      -3.581   1.958   8.518  0.00  0.00    +0.163 A 
ATOM     26  C   UNL     1      -3.233   0.799   7.835  0.00  0.00    +0.167 A 
ATOM     27 BR   UNL     1      -6.256   0.620  11.392  0.00  0.00    -0.050 Br
BRANCH  26  28
ATOM     28  O   UNL     1      -2.350   0.855   6.803  0.00  0.00    -0.503 OA
ATOM     29  H   UNL     1      -2.761   1.007   5.941  0.00  0.00    +0.292 HD
ENDBRANCH  26  28
BRANCH  25  30
ATOM     30  O   UNL     1      -3.038   3.151   8.155  0.00  0.00    -0.491 OA
ATOM     31  C   UNL     1      -3.436   4.301   8.905  0.00  0.00    +0.277 C 
ENDBRANCH  25  30
ENDBRANCH  20  21
ENDBRANCH  15  19
TORSDOF 4
