REMARK  Name = ZINC63351463
REMARK  2 active torsions:
REMARK  status: ('A' for Active; 'I' for Inactive)
REMARK    1  A    between atoms: C_8  and  C_16
REMARK    2  A    between atoms: N_20  and  C_23
REMARK                            x       y       z     vdW  Elec       q    Type
REMARK                         _______ _______ _______ _____ _____    ______ ____
ROOT
ATOM      1  C   UNL     1       3.357  -1.735  -2.256  0.00  0.00    +0.101 A 
ATOM      2  C   UNL     1       2.106  -1.905  -2.773  0.00  0.00    +0.263 A 
ATOM      3  N   UNL     1       1.906  -1.745  -4.121  0.00  0.00    -0.274 N 
ATOM      4  C   UNL     1       2.932  -1.423  -4.929  0.00  0.00    +0.337 A 
ATOM      5  N   UNL     1       4.173  -1.251  -4.438  0.00  0.00    -0.229 N 
ATOM      6  C   UNL     1       4.412  -1.393  -3.119  0.00  0.00    +0.270 A 
ATOM      7  O   UNL     1       5.537  -1.231  -2.679  0.00  0.00    -0.267 OA
ATOM      8  O   UNL     1       2.735  -1.286  -6.121  0.00  0.00    -0.246 OA
ATOM      9  O   UNL     1       1.074  -2.228  -1.965  0.00  0.00    -0.267 OA
ATOM     10  H   UNL     1       1.018  -1.865  -4.493  0.00  0.00    +0.173 HD
ENDROOT
BRANCH   1  17
ATOM     11  C   UNL     1      -1.365   0.893  -1.339  0.00  0.00    +0.001 A 
ATOM     12  C   UNL     1      -0.502   1.986  -1.500  0.00  0.00    +0.002 A 
ATOM     13  C   UNL     1       0.821   1.912  -1.243  0.00  0.00    +0.026 A 
ATOM     14  C   UNL     1       1.400   0.697  -0.790  0.00  0.00    +0.043 A 
ATOM     15  N   UNL     1       2.642   0.375  -0.502  0.00  0.00    -0.376 N 
ATOM     16  C   UNL     1       2.658  -0.992   0.009  0.00  0.00    +0.128 C 
ATOM     17  C   UNL     1       3.602  -1.905  -0.779  0.00  0.00    +0.121 C 
ATOM     18  N   UNL     1       3.333  -3.297  -0.388  0.00  0.00    -0.307 NA
ATOM     19  C   UNL     1       2.009  -3.769  -0.804  0.00  0.00    +0.086 C 
ATOM     20  C   UNL     1       0.911  -2.985  -0.061  0.00  0.00    +0.048 C 
ATOM     21  C   UNL     1       1.247  -1.516  -0.202  0.00  0.00    -0.035 C 
ATOM     22  C   UNL     1       0.510  -0.479  -0.618  0.00  0.00    -0.001 A 
ATOM     23  C   UNL     1      -0.918  -0.310  -0.916  0.00  0.00    +0.010 A 
ATOM     24  H   UNL     1       4.058  -3.913  -0.723  0.00  0.00    +0.123 HD
ATOM     25  H   UNL     1       3.416   0.949  -0.611  0.00  0.00    +0.160 HD
ENDBRANCH   1  17
BRANCH   5  26
ATOM     26  C   UNL     1       5.223  -0.916  -5.303  0.00  0.00    +0.054 A 
ATOM     27  C   UNL     1       5.974  -1.917  -5.905  0.00  0.00    +0.027 A 
ATOM     28  C   UNL     1       7.008  -1.585  -6.758  0.00  0.00    +0.017 A 
ATOM     29  C   UNL     1       7.297  -0.256  -7.013  0.00  0.00    +0.018 A 
ATOM     30  C   UNL     1       6.551   0.743  -6.414  0.00  0.00    +0.017 A 
ATOM     31  C   UNL     1       5.511   0.416  -5.565  0.00  0.00    +0.027 A 
ATOM     32 BR   UNL     1       8.714   0.195  -8.180  0.00  0.00    -0.050 Br
ENDBRANCH   5  26
TORSDOF 2
