REMARK  Name = ZINC54303152
REMARK  5 active torsions:
REMARK  status: ('A' for Active; 'I' for Inactive)
REMARK    1  A    between atoms: C_1  and  C_2
REMARK    2  A    between atoms: C_2  and  N_3
REMARK    3  A    between atoms: N_3  and  C_4
REMARK    4  A    between atoms: C_16  and  C_19
REMARK    5  A    between atoms: C_19  and  C_20
REMARK                            x       y       z     vdW  Elec       q    Type
REMARK                         _______ _______ _______ _____ _____    ______ ____
ROOT
ATOM      1  N   UNL     1      -1.399  -0.869   0.217  0.00  0.00    -0.283 N 
ATOM      2  C   UNL     1      -1.754   0.033   1.154  0.00  0.00    +0.305 C 
ATOM      3  O   UNL     1      -0.899   0.601   1.805  0.00  0.00    -0.252 OA
ATOM      4  N   UNL     1      -3.057   0.305   1.368  0.00  0.00    -0.285 N 
ATOM      5  C   UNL     1      -4.051   0.086   0.309  0.00  0.00    +0.109 C 
ATOM      6  C   UNL     1      -4.842   1.381   0.100  0.00  0.00    +0.019 C 
ATOM      7  C   UNL     1      -5.435   1.834   1.436  0.00  0.00    +0.007 C 
ATOM      8  C   UNL     1      -4.305   2.113   2.429  0.00  0.00    +0.017 C 
ATOM      9  C   UNL     1      -3.510   0.821   2.667  0.00  0.00    +0.113 C 
ENDROOT
BRANCH   1  10
ATOM     10  C   UNL     1      -1.943  -0.768  -1.140  0.00  0.00    +0.078 C 
ATOM     11  C   UNL     1      -2.388   0.672  -1.405  0.00  0.00    +0.022 C 
ATOM     12  C   UNL     1      -2.955   0.777  -2.822  0.00  0.00    +0.002 C 
ATOM     13  C   UNL     1      -4.155  -0.161  -2.962  0.00  0.00    +0.000 C 
ATOM     14  C   UNL     1      -3.711  -1.601  -2.696  0.00  0.00    +0.002 C 
ATOM     15  C   UNL     1      -3.143  -1.706  -1.279  0.00  0.00    +0.022 C 
ENDBRANCH   1  10
BRANCH   1  17
ATOM     16  C   UNL     1       0.942  -1.568   0.106  0.00  0.00    +0.024 C 
ATOM     17  C   UNL     1      -0.470  -1.950   0.555  0.00  0.00    +0.106 C 
ENDBRANCH   1  17
BRANCH   8  18
ATOM     18  C   UNL     1      -4.898   2.597   3.754  0.00  0.00    +0.130 C 
BRANCH  18  19
ATOM     19  C   UNL     1      -5.580   3.925   3.544  0.00  0.00    +0.356 C 
ATOM     20  O   UNL     1      -5.591   4.435   2.437  0.00  0.00    -0.246 OA
ATOM     21  O   UNL     1      -6.122   4.487   4.480  0.00  0.00    -0.246 OA
ENDBRANCH  18  19
ENDBRANCH   8  18
TORSDOF 4
