REMARK  Name = ZINC00304433
REMARK  5 active torsions:
REMARK  status: ('A' for Active; 'I' for Inactive)
REMARK    1  A    between atoms: C_1  and  C_2
REMARK    2  A    between atoms: C_5  and  C_7
REMARK    3  A    between atoms: C_10  and  C_20
REMARK    4  A    between atoms: C_10  and  O_24
REMARK    5  A    between atoms: C_12  and  C_14
REMARK                            x       y       z     vdW  Elec       q    Type
REMARK                         _______ _______ _______ _____ _____    ______ ____
ROOT
ATOM      1  C   UNL     1       1.719  -1.833  -0.024  0.00  0.00    +0.304 C 
ATOM      2  O   UNL     1       2.906  -2.099  -0.037  0.00  0.00    -0.265 OA
ATOM      3  N   UNL     1       0.806  -2.825  -0.020  0.00  0.00    -0.146 N 
ATOM      4  C   UNL     1       1.105  -4.267  -0.037  0.00  0.00    +0.257 C 
ATOM      5  C   UNL     1      -0.292  -4.918  -0.021  0.00  0.00    +0.119 C 
ATOM      6  C   UNL     1      -1.240  -3.740  -0.006  0.00  0.00    +0.045 C 
ATOM      7  N   UNL     1      -0.577  -2.656  -0.006  0.00  0.00    -0.183 NA
ENDROOT
BRANCH   1  12
ATOM      8  C   UNL     1      -1.253   2.196   0.020  0.00  0.00    +0.086 C 
ATOM      9  C   UNL     1      -0.016   1.335   0.009  0.00  0.00    +0.103 A 
ATOM     10  C   UNL     1       1.257   1.788  -0.000  0.00  0.00    +0.045 A 
ATOM     11  C   UNL     1       2.095   0.662  -0.014  0.00  0.00    +0.055 A 
ATOM     12  C   UNL     1       1.281  -0.434  -0.013  0.00  0.00    +0.191 A 
ATOM     13  O   UNL     1       0.002  -0.004   0.002  0.00  0.00    -0.455 OA
ENDBRANCH   1  12
BRANCH   6  14
ATOM     14  C   UNL     1      -2.743  -3.836   0.009  0.00  0.00    +0.035 C 
ATOM     15  C   UNL     1      -3.227  -4.470  -1.297  0.00  0.00    +0.009 C 
ATOM     16  C   UNL     1      -4.753  -4.568  -1.282  0.00  0.00    +0.001 C 
ATOM     17  C   UNL     1      -5.353  -3.167  -1.143  0.00  0.00    +0.000 C 
ATOM     18  C   UNL     1      -4.870  -2.533   0.163  0.00  0.00    +0.001 C 
ATOM     19  C   UNL     1      -3.343  -2.435   0.148  0.00  0.00    +0.009 C 
ENDBRANCH   6  14
BRANCH   4  20
ATOM     20  C   UNL     1       1.866  -4.646  -1.309  0.00  0.00    +0.438 C 
ATOM     21  F   UNL     1       3.084  -3.958  -1.346  0.00  0.00    -0.166 F 
ATOM     22  F   UNL     1       2.108  -6.024  -1.315  0.00  0.00    -0.166 F 
ATOM     23  F   UNL     1       1.102  -4.302  -2.429  0.00  0.00    -0.166 F 
ENDBRANCH   4  20
BRANCH   4  24
ATOM     24  O   UNL     1       1.847  -4.641   1.126  0.00  0.00    -0.363 OA
ATOM     25  H   UNL     1       2.705  -4.202   1.204  0.00  0.00    +0.212 HD
ENDBRANCH   4  24
TORSDOF 4
