REMARK  Name = ZINC39147147
REMARK  10 active torsions:
REMARK  status: ('A' for Active; 'I' for Inactive)
REMARK    1  A    between atoms: C_1  and  C_2
REMARK    2  A    between atoms: C_2  and  C_3
REMARK    3  A    between atoms: C_2  and  C_4
REMARK    4  A    between atoms: C_8  and  N_11
REMARK    5  A    between atoms: C_12  and  C_14
REMARK    6  A    between atoms: N_19  and  C_21
REMARK    7  A    between atoms: C_21  and  C_22
REMARK    8  A    between atoms: C_22  and  C_23
REMARK    9  A    between atoms: C_26  and  O_32
REMARK   10  A    between atoms: O_32  and  C_33
REMARK                            x       y       z     vdW  Elec       q    Type
REMARK                         _______ _______ _______ _____ _____    ______ ____
ROOT
ATOM      1  C   UNL     1      -2.875  -3.803   4.988  0.00  0.00    +0.101 C 
ATOM      2  C   UNL     1      -1.448  -4.381   4.839  0.00  0.00    +0.110 C 
ATOM      3  C   UNL     1      -1.460  -5.624   5.701  0.00  0.00    +0.216 C 
ATOM      4  O   UNL     1      -0.472  -6.214   6.083  0.00  0.00    -0.276 OA
ATOM      5  N   UNL     1      -2.725  -5.980   5.982  0.00  0.00    -0.300 N 
ATOM      6  C   UNL     1      -3.689  -5.062   5.361  0.00  0.00    +0.121 C 
ENDROOT
BRANCH   1   8
ATOM      7  N   UNL     1      -2.732  -2.146   3.157  0.00  0.00    -0.290 N 
ATOM      8  C   UNL     1      -3.357  -3.216   3.687  0.00  0.00    +0.220 C 
ATOM      9  O   UNL     1      -4.309  -3.706   3.116  0.00  0.00    -0.275 OA
ATOM     10  H   UNL     1      -1.971  -1.754   3.614  0.00  0.00    +0.151 HD
BRANCH   7  14
ATOM     11  C   UNL     1      -1.433  -0.534   0.013  0.00  0.00    +0.132 C 
ATOM     12  N   UNL     1      -1.468  -2.014   0.230  0.00  0.00    -0.241 NA
ATOM     13  N   UNL     1      -2.776  -2.413   0.737  0.00  0.00    -0.227 NA
ATOM     14  C   UNL     1      -3.200  -1.575   1.892  0.00  0.00    +0.216 C 
ATOM     15  S   UNL     1      -2.342   0.015   1.522  0.00  0.00    -0.102 S 
ATOM     16  H   UNL     1      -1.243  -2.510  -0.620  0.00  0.00    +0.142 HD
ATOM     17  H   UNL     1      -3.468  -2.396   0.003  0.00  0.00    +0.143 HD
BRANCH  11  19
ATOM     18  C   UNL     1      -0.019   1.526   0.010  0.00  0.00    +0.009 C 
ATOM     19  C   UNL     1       0.002  -0.004   0.002  0.00  0.00    +0.011 C 
ATOM     20  C   UNL     1       0.742  -0.511   1.242  0.00  0.00    +0.009 C 
ENDBRANCH  11  19
ENDBRANCH   7  14
ENDBRANCH   1   8
BRANCH   5  21
ATOM     21  C   UNL     1      -3.096  -7.135   6.804  0.00  0.00    +0.112 C 
BRANCH  21  22
ATOM     22  C   UNL     1      -3.197  -6.707   8.270  0.00  0.00    +0.056 C 
BRANCH  22  23
ATOM     23  C   UNL     1      -3.579  -7.895   9.115  0.00  0.00    -0.021 A 
ATOM     24  C   UNL     1      -2.666  -8.896   9.672  0.00  0.00    +0.006 A 
ATOM     25  C   UNL     1      -1.283  -9.081   9.623  0.00  0.00    +0.056 A 
ATOM     26  C   UNL     1      -0.715 -10.158  10.274  0.00  0.00    +0.121 A 
ATOM     27  C   UNL     1      -1.516 -11.055  10.977  0.00  0.00    +0.047 A 
ATOM     28  C   UNL     1      -2.881 -10.883  11.031  0.00  0.00    +0.030 A 
ATOM     29  C   UNL     1      -3.472  -9.804  10.382  0.00  0.00    +0.047 A 
ATOM     30  N   UNL     1      -4.776  -9.374  10.257  0.00  0.00    -0.360 N 
ATOM     31  C   UNL     1      -4.818  -8.232   9.504  0.00  0.00    +0.087 A 
ATOM     32  H   UNL     1      -5.548  -9.812  10.649  0.00  0.00    +0.165 HD
BRANCH  26  33
ATOM     33  O   UNL     1       0.631 -10.343  10.229  0.00  0.00    -0.495 OA
ATOM     34  C   UNL     1       1.154 -11.477  10.925  0.00  0.00    +0.277 C 
ENDBRANCH  26  33
ENDBRANCH  22  23
ENDBRANCH  21  22
ENDBRANCH   5  21
TORSDOF 7
