REMARK  Name = ZINC63110602
REMARK  9 active torsions:
REMARK  status: ('A' for Active; 'I' for Inactive)
REMARK    1  A    between atoms: C_1  and  O_2
REMARK    2  A    between atoms: O_2  and  C_3
REMARK    3  A    between atoms: C_6  and  C_9
REMARK    4  A    between atoms: C_9  and  C_11
REMARK    5  A    between atoms: C_9  and  C_30
REMARK    6  A    between atoms: C_11  and  N_12
REMARK    7  A    between atoms: C_13  and  C_15
REMARK    8  A    between atoms: C_15  and  N_16
REMARK    9  A    between atoms: C_18  and  C_27
REMARK                            x       y       z     vdW  Elec       q    Type
REMARK                         _______ _______ _______ _____ _____    ______ ____
ROOT
ATOM      1  C   UNL     1       3.662  -3.370  -3.882  0.00  0.00    +0.116 C 
ENDROOT
BRANCH   1   2
ATOM      2  N   UNL     1       4.387  -3.925  -5.028  0.00  0.00    -0.313 N 
ATOM      3  C   UNL     1       5.453  -4.725  -4.828  0.00  0.00    +0.230 C 
ATOM      4  O   UNL     1       5.812  -4.986  -3.699  0.00  0.00    -0.274 OA
ATOM      5  H   UNL     1       4.099  -3.716  -5.931  0.00  0.00    +0.149 HD
BRANCH   3   6
ATOM      6  C   UNL     1       6.198  -5.296  -6.007  0.00  0.00    +0.201 C 
BRANCH   6   7
ATOM      7  N   UNL     1       7.307  -6.126  -5.528  0.00  0.00    -0.314 N 
ATOM      8  C   UNL     1       8.639  -5.549  -5.282  0.00  0.00    +0.160 C 
ATOM      9  C   UNL     1       9.171  -6.151  -3.974  0.00  0.00    +0.275 C 
ATOM     10  O   UNL     1       9.214  -7.574  -4.105  0.00  0.00    -0.476 OA
ATOM     11  C   UNL     1       8.102  -8.200  -4.572  0.00  0.00    +0.143 A 
ATOM     12  C   UNL     1       7.134  -7.497  -5.283  0.00  0.00    +0.073 A 
ATOM     13  C   UNL     1       6.005  -8.150  -5.752  0.00  0.00    +0.027 A 
ATOM     14  C   UNL     1       5.838  -9.501  -5.505  0.00  0.00    +0.002 A 
ATOM     15  C   UNL     1       6.795 -10.198  -4.792  0.00  0.00    +0.004 A 
ATOM     16  C   UNL     1       7.926  -9.555  -4.335  0.00  0.00    +0.047 A 
BRANCH   9  17
ATOM     17  C   UNL     1      10.556  -5.624  -3.701  0.00  0.00    +0.253 C 
ATOM     18  O   UNL     1      11.504  -6.380  -3.705  0.00  0.00    -0.272 OA
ATOM     19  N   UNL     1      10.741  -4.312  -3.453  0.00  0.00    -0.326 N 
ATOM     20  H   UNL     1       9.983  -3.707  -3.450  0.00  0.00    +0.145 HD
ATOM     21  H   UNL     1      11.633  -3.973  -3.278  0.00  0.00    +0.145 HD
ENDBRANCH   9  17
ENDBRANCH   6   7
ENDBRANCH   3   6
ENDBRANCH   1   2
BRANCH   1  22
ATOM     22  C   UNL     1       2.505  -2.503  -4.381  0.00  0.00    +0.064 C 
BRANCH  22  23
ATOM     23  C   UNL     1       1.505  -3.369  -5.104  0.00  0.00    -0.033 C 
ATOM     24  C   UNL     1       1.118  -3.260  -6.396  0.00  0.00    -0.000 A 
ATOM     25  C   UNL     1       1.498  -2.337  -7.473  0.00  0.00    +0.010 A 
ATOM     26  C   UNL     1       0.925  -2.479  -8.690  0.00  0.00    +0.001 A 
ATOM     27  C   UNL     1      -0.019  -3.482  -8.948  0.00  0.00    +0.002 A 
ATOM     28  C   UNL     1      -0.418  -4.367  -8.010  0.00  0.00    +0.026 A 
ATOM     29  C   UNL     1       0.119  -4.311  -6.694  0.00  0.00    +0.043 A 
ATOM     30  N   UNL     1      -0.103  -5.041  -5.629  0.00  0.00    -0.380 N 
ATOM     31  C   UNL     1       0.735  -4.539  -4.534  0.00  0.00    +0.145 C 
ATOM     32  H   UNL     1      -0.716  -5.791  -5.574  0.00  0.00    +0.160 HD
ENDBRANCH  22  23
BRANCH  22  36
ATOM     33  C   UNL     1       0.606  -0.607  -1.056  0.00  0.00    +0.120 A 
ATOM     34  C   UNL     1       1.173   0.161  -2.062  0.00  0.00    +0.046 A 
ATOM     35  C   UNL     1       1.786  -0.455  -3.136  0.00  0.00    +0.008 A 
ATOM     36  C   UNL     1       1.835  -1.835  -3.209  0.00  0.00    -0.038 A 
ATOM     37  C   UNL     1       1.270  -2.602  -2.207  0.00  0.00    +0.008 A 
ATOM     38  C   UNL     1       0.661  -1.992  -1.128  0.00  0.00    +0.046 A 
BRANCH  33  40
ATOM     39  C   UNL     1      -0.017   1.425   0.010  0.00  0.00    +0.277 C 
ATOM     40  O   UNL     1       0.002  -0.004   0.002  0.00  0.00    -0.495 OA
ENDBRANCH  33  40
ENDBRANCH  22  36
ENDBRANCH   1  22
TORSDOF 8
