REMARK  Name = ZINC39006821
REMARK  6 active torsions:
REMARK  status: ('A' for Active; 'I' for Inactive)
REMARK    1  A    between atoms: C_4  and  C_7
REMARK    2  A    between atoms: C_9  and  C_13
REMARK    3  A    between atoms: C_17  and  S_21
REMARK    4  A    between atoms: N_19  and  N_20
REMARK    5  A    between atoms: S_21  and  C_22
REMARK    6  A    between atoms: C_22  and  C_23
REMARK                            x       y       z     vdW  Elec       q    Type
REMARK                         _______ _______ _______ _____ _____    ______ ____
ROOT
ATOM      1  C   UNL     1       5.782  -3.012   1.181  0.00  0.00    +0.185 C 
ATOM      2  N   UNL     1       5.180  -4.371   1.200  0.00  0.00    -0.234 NA
ATOM      3  N   UNL     1       6.106  -5.133   2.051  0.00  0.00    -0.228 NA
ATOM      4  C   UNL     1       7.447  -4.615   1.695  0.00  0.00    +0.214 C 
ATOM      5  N   UNL     1       7.242  -3.258   1.143  0.00  0.00    -0.197 NA
ATOM      6  H   UNL     1       4.254  -4.351   1.600  0.00  0.00    +0.143 HD
ATOM      7  H   UNL     1       5.908  -4.981   3.029  0.00  0.00    +0.143 HD
ENDROOT
BRANCH   1  10
ATOM      8  C   UNL     1       3.699  -0.689  -0.037  0.00  0.00    +0.091 C 
ATOM      9  C   UNL     1       3.832  -2.029  -0.051  0.00  0.00    +0.034 C 
ATOM     10  C   UNL     1       5.335  -2.245  -0.065  0.00  0.00    +0.187 C 
ATOM     11  N   UNL     1       5.871  -0.874  -0.056  0.00  0.00    -0.176 NA
ATOM     12  N   UNL     1       4.919  -0.090  -0.047  0.00  0.00    -0.154 NA
BRANCH   8  16
ATOM     13  C   UNL     1      -0.017   1.379   0.010  0.00  0.00    +0.000 A 
ATOM     14  C   UNL     1       1.169   2.092   0.002  0.00  0.00    +0.001 A 
ATOM     15  C   UNL     1       2.377   1.426  -0.013  0.00  0.00    +0.010 A 
ATOM     16  C   UNL     1       2.402   0.033  -0.021  0.00  0.00    +0.002 A 
ATOM     17  C   UNL     1       1.205  -0.680  -0.013  0.00  0.00    +0.010 A 
ATOM     18  C   UNL     1       0.002  -0.004   0.002  0.00  0.00    +0.001 A 
ENDBRANCH   8  16
ENDBRANCH   1  10
BRANCH   5  19
ATOM     19  N   UNL     1       7.960  -2.262   1.921  0.00  0.00    -0.264 NA
ATOM     20  H   UNL     1       8.954  -2.429   1.895  0.00  0.00    +0.137 HD
ATOM     21  H   UNL     1       7.742  -1.329   1.603  0.00  0.00    +0.137 HD
ENDBRANCH   5  19
BRANCH   4  22
ATOM     22  S   UNL     1       8.494  -4.531   3.174  0.00  0.00    -0.119 S 
BRANCH  22  23
ATOM     23  C   UNL     1       7.582  -3.435   4.295  0.00  0.00    +0.107 C 
BRANCH  23  24
ATOM     24  C   UNL     1       8.353  -3.278   5.581  0.00  0.00    -0.037 A 
ATOM     25  C   UNL     1       8.138  -4.155   6.627  0.00  0.00    +0.005 A 
ATOM     26  C   UNL     1       8.845  -4.012   7.806  0.00  0.00    +0.015 A 
ATOM     27  C   UNL     1       9.768  -2.990   7.939  0.00  0.00    +0.018 A 
ATOM     28  C   UNL     1       9.982  -2.112   6.891  0.00  0.00    +0.015 A 
ATOM     29  C   UNL     1       9.279  -2.260   5.711  0.00  0.00    +0.005 A 
ATOM     30 BR   UNL     1      10.735  -2.792   9.552  0.00  0.00    -0.050 Br
ENDBRANCH  23  24
ENDBRANCH  22  23
ENDBRANCH   4  22
TORSDOF 6
