REMARK  Name = ZINC40286609
REMARK  7 active torsions:
REMARK  status: ('A' for Active; 'I' for Inactive)
REMARK    1  A    between atoms: C_1  and  C_2
REMARK    2  A    between atoms: C_2  and  C_27
REMARK    3  A    between atoms: C_13  and  C_15
REMARK    4  A    between atoms: C_15  and  N_16
REMARK    5  A    between atoms: N_19  and  C_22
REMARK    6  A    between atoms: C_22  and  C_23
REMARK    7  A    between atoms: C_23  and  O_24
REMARK                            x       y       z     vdW  Elec       q    Type
REMARK                         _______ _______ _______ _____ _____    ______ ____
ROOT
ATOM      1  C   UNL     1      -0.019   1.526   0.010  0.00  0.00    +0.041 C 
ATOM      2  C   UNL     1       0.002  -0.004   0.002  0.00  0.00    +0.068 C 
ATOM      3  C   UNL     1      -1.435  -0.531  -0.004  0.00  0.00    +0.071 C 
ATOM      4  C   UNL     1      -2.058  -0.227   1.357  0.00  0.00    -0.018 A 
ATOM      5  C   UNL     1      -1.252   0.069   2.406  0.00  0.00    +0.021 A 
ATOM      6  S   UNL     1      -2.349   0.352   3.769  0.00  0.00    -0.071 S 
ATOM      7  C   UNL     1      -3.880   0.076   2.934  0.00  0.00    +0.116 A 
ATOM      8  C   UNL     1      -3.485  -0.230   1.612  0.00  0.00    +0.076 A 
ATOM      9  C   UNL     1      -4.530  -0.510   0.668  0.00  0.00    +0.260 A 
ATOM     10  O   UNL     1      -4.296  -0.786  -0.496  0.00  0.00    -0.267 OA
ATOM     11  N   UNL     1      -5.792  -0.448   1.154  0.00  0.00    -0.312 N 
ATOM     12  H   UNL     1      -6.529  -0.630   0.550  0.00  0.00    +0.170 HD
ATOM     13  C   UNL     1      -6.074  -0.145   2.444  0.00  0.00    +0.094 A 
ATOM     14  N   UNL     1      -5.146   0.117   3.337  0.00  0.00    -0.229 NA
ATOM     15  C   UNL     1       0.243   0.131   2.383  0.00  0.00    +0.203 C 
ATOM     16  O   UNL     1       0.694  -0.475   1.161  0.00  0.00    -0.368 OA
ATOM     17  C   UNL     1       0.725  -0.495  -1.254  0.00  0.00    +0.041 C 
ENDROOT
BRANCH  13  18
ATOM     18  C   UNL     1      -7.518  -0.105   2.874  0.00  0.00    -0.003 C 
BRANCH  18  19
ATOM     19  N   UNL     1      -7.595   0.240   4.300  0.00  0.00    +0.386 N 
ATOM     20  C   UNL     1      -6.979  -0.829   5.097  0.00  0.00    -0.063 C 
ATOM     21  C   UNL     1      -7.042  -0.460   6.581  0.00  0.00    +0.066 C 
ATOM     22  N   UNL     1      -8.445  -0.276   6.978  0.00  0.00    -0.304 NA
ATOM     23  C   UNL     1      -9.082   0.775   6.171  0.00  0.00    +0.066 C 
ATOM     24  C   UNL     1      -9.002   0.396   4.691  0.00  0.00    -0.063 C 
ATOM     25  H   UNL     1      -7.103   1.106   4.463  0.00  0.00    -0.081 HD
BRANCH  22  26
ATOM     26  C   UNL     1      -8.551   0.024   8.412  0.00  0.00    +0.112 C 
BRANCH  26  27
ATOM     27  C   UNL     1     -10.019  -0.036   8.838  0.00  0.00    +0.171 C 
BRANCH  27  28
ATOM     28  O   UNL     1     -10.502  -1.374   8.695  0.00  0.00    -0.394 OA
ATOM     29  H   UNL     1     -11.428  -1.487   8.948  0.00  0.00    +0.209 HD
ENDBRANCH  27  28
ENDBRANCH  26  27
ENDBRANCH  22  26
ENDBRANCH  18  19
ENDBRANCH  13  18
TORSDOF 5
