REMARK  Name = ZINC65552053
REMARK  9 active torsions:
REMARK  status: ('A' for Active; 'I' for Inactive)
REMARK    1  A    between atoms: C_1  and  C_2
REMARK    2  A    between atoms: C_5  and  O_27
REMARK    3  A    between atoms: C_6  and  N_8
REMARK    4  A    between atoms: C_11  and  C_13
REMARK    5  A    between atoms: N_15  and  C_16
REMARK    6  A    between atoms: C_16  and  C_17
REMARK    7  A    between atoms: C_16  and  C_18
REMARK    8  A    between atoms: C_22  and  N_24
REMARK    9  A    between atoms: O_27  and  C_28
REMARK                            x       y       z     vdW  Elec       q    Type
REMARK                         _______ _______ _______ _____ _____    ______ ____
ROOT
ATOM      1  C   UNL     1       0.111  -5.806   4.302  0.00  0.00    +0.265 C 
ATOM      2  O   UNL     1       0.117  -5.997   5.503  0.00  0.00    -0.268 OA
ATOM      3  N   UNL     1       0.127  -6.853   3.453  0.00  0.00    -0.303 N 
ATOM      4  H   UNL     1       0.122  -6.700   2.495  0.00  0.00    +0.150 HD
ENDROOT
BRANCH   1   8
ATOM      5  N   UNL     1       0.052  -2.795   2.400  0.00  0.00    -0.236 N 
ATOM      6  C   UNL     1       0.045  -2.227   3.634  0.00  0.00    +0.115 A 
ATOM      7  C   UNL     1       0.065  -3.235   4.537  0.00  0.00    +0.054 A 
ATOM      8  C   UNL     1       0.084  -4.427   3.774  0.00  0.00    +0.147 A 
ATOM      9  N   UNL     1       0.070  -4.075   2.503  0.00  0.00    -0.162 NA
BRANCH   5  15
ATOM     10  C   UNL     1      -0.018   1.503   0.010  0.00  0.00    +0.044 C 
ATOM     11  C   UNL     1       0.002  -0.004   0.002  0.00  0.00    -0.048 A 
ATOM     12  C   UNL     1       0.006  -0.687  -1.201  0.00  0.00    +0.007 A 
ATOM     13  C   UNL     1       0.025  -2.069  -1.215  0.00  0.00    +0.048 A 
ATOM     14  C   UNL     1       0.041  -2.774  -0.022  0.00  0.00    +0.145 A 
ATOM     15  C   UNL     1       0.037  -2.087   1.190  0.00  0.00    +0.107 A 
ATOM     16  C   UNL     1       0.023  -0.699   1.196  0.00  0.00    +0.034 A 
BRANCH  14  17
ATOM     17  O   UNL     1       0.059  -4.133  -0.034  0.00  0.00    -0.493 OA
ATOM     18  C   UNL     1       0.061  -4.771  -1.313  0.00  0.00    +0.277 C 
ENDBRANCH  14  17
ENDBRANCH   5  15
ENDBRANCH   1   8
BRANCH   3  19
ATOM     19  C   UNL     1       0.153  -8.220   3.977  0.00  0.00    +0.101 C 
ATOM     20  C   UNL     1       1.599  -8.626   4.273  0.00  0.00    +0.033 C 
BRANCH  19  21
ATOM     21  C   UNL     1      -0.433  -9.161   2.955  0.00  0.00    -0.025 A 
ATOM     22  C   UNL     1      -0.142  -8.993   1.614  0.00  0.00    +0.005 A 
ATOM     23  C   UNL     1      -0.680  -9.856   0.678  0.00  0.00    +0.003 A 
ATOM     24  C   UNL     1      -1.508 -10.886   1.082  0.00  0.00    +0.033 A 
ATOM     25  C   UNL     1      -1.798 -11.054   2.423  0.00  0.00    +0.127 A 
ATOM     26  C   UNL     1      -1.257 -10.194   3.360  0.00  0.00    +0.038 A 
BRANCH  25  27
ATOM     27  N   UNL     1      -2.685 -12.157   2.856  0.00  0.00    +0.056 N 
ATOM     28  O   UNL     1      -3.156 -12.911   2.036  0.00  0.00    -0.126 OA
ATOM     29  O   UNL     1      -2.939 -12.304   4.029  0.00  0.00    -0.126 OA
ENDBRANCH  25  27
ENDBRANCH  19  21
ENDBRANCH   3  19
TORSDOF 6
