REMARK  Name = ZINC31160293
REMARK  10 active torsions:
REMARK  status: ('A' for Active; 'I' for Inactive)
REMARK    1  A    between atoms: C_1  and  C_2
REMARK    2  A    between atoms: C_6  and  C_33
REMARK    3  A    between atoms: C_7  and  C_32
REMARK    4  A    between atoms: C_13  and  C_17
REMARK    5  A    between atoms: C_18  and  C_31
REMARK    6  A    between atoms: C_23  and  C_29
REMARK    7  A    between atoms: C_23  and  C_30
REMARK    8  A    between atoms: C_25  and  O_28
REMARK    9  A    between atoms: C_33  and  O_35
REMARK   10  A    between atoms: O_35  and  C_36
REMARK                            x       y       z     vdW  Elec       q    Type
REMARK                         _______ _______ _______ _____ _____    ______ ____
ROOT
ATOM      1  C   UNL     1      -1.165   4.473  -0.548  0.00  0.00    +0.060 C 
ATOM      2  C   UNL     1       0.201   4.481   0.147  0.00  0.00    +0.240 C 
ATOM      3  C   UNL     1       1.060   3.354  -0.388  0.00  0.00    +0.192 C 
ATOM      4  O   UNL     1       1.564   3.461  -1.487  0.00  0.00    -0.292 OA
ATOM      5  C   UNL     1       1.256   2.112   0.448  0.00  0.00    +0.161 C 
ATOM      6  C   UNL     1       2.295   1.150  -0.096  0.00  0.00    +0.062 C 
ATOM      7  C   UNL     1       2.462  -0.031   0.854  0.00  0.00    +0.018 C 
ATOM      8  C   UNL     1       2.915   0.438   2.234  0.00  0.00    +0.036 C 
ATOM      9  C   UNL     1       1.886   1.434   2.764  0.00  0.00    -0.058 C 
ATOM     10  C   UNL     1       1.381   1.254   3.962  0.00  0.00    +0.009 C 
ATOM     11  C   UNL     1       1.533   2.587   1.880  0.00  0.00    +0.109 C 
ATOM     12  C   UNL     1       0.259   3.312   2.272  0.00  0.00    +0.319 C 
ATOM     13  O   UNL     1      -0.504   2.930   3.115  0.00  0.00    -0.250 OA
ATOM     14  O   UNL     1       0.028   4.451   1.578  0.00  0.00    -0.453 OA
ATOM     15  C   UNL     1       2.656   3.634   1.935  0.00  0.00    +0.029 C 
ATOM     16  C   UNL     1       3.311  -1.174   0.335  0.00  0.00    -0.002 C 
ATOM     17  C   UNL     1       2.879  -2.446   1.086  0.00  0.00    +0.019 C 
ATOM     18  C   UNL     1       3.765  -3.636   0.750  0.00  0.00    +0.076 C 
ATOM     19  C   UNL     1       4.423  -3.487  -0.595  0.00  0.00    +0.143 C 
ATOM     20  O   UNL     1       5.512  -3.987  -0.800  0.00  0.00    -0.296 OA
ATOM     21  C   UNL     1       3.732  -2.720  -1.701  0.00  0.00    +0.049 C 
ATOM     22  C   UNL     1       3.159  -1.433  -1.137  0.00  0.00    -0.006 C 
ATOM     23  C   UNL     1       2.505  -0.604  -1.951  0.00  0.00    +0.160 C 
ATOM     24  C   UNL     1       1.826   0.598  -1.432  0.00  0.00    +0.205 C 
ATOM     25  O   UNL     1       0.951   1.125  -2.093  0.00  0.00    -0.288 OA
ATOM     26  C   UNL     1       2.611  -3.590  -2.281  0.00  0.00    +0.023 C 
ATOM     27  C   UNL     1       4.761  -2.416  -2.796  0.00  0.00    +0.023 C 
ATOM     28  C   UNL     1       4.778  -0.918   0.659  0.00  0.00    +0.016 C 
ATOM     29  C   UNL     1       3.638   1.852  -0.347  0.00  0.00    +0.021 C 
ENDROOT
BRANCH  23  30
ATOM     30  O   UNL     1       2.412  -0.845  -3.291  0.00  0.00    -0.503 OA
ATOM     31  H   UNL     1       1.865  -0.144  -3.939  0.00  0.00    +0.292 HD
ENDBRANCH  23  30
BRANCH   5  32
ATOM     32  C   UNL     1      -0.087   1.390   0.482  0.00  0.00    +0.323 C 
ATOM     33  O   UNL     1      -0.180   0.265   0.051  0.00  0.00    -0.250 OA
BRANCH  32  34
ATOM     34  O   UNL     1      -1.168   2.006   0.987  0.00  0.00    -0.467 OA
ATOM     35  C   UNL     1      -2.414   1.260   0.983  0.00  0.00    +0.280 C 
ENDBRANCH  32  34
ENDBRANCH   5  32
TORSDOF 3
