REMARK  Name = ZINC40729220
REMARK  7 active torsions:
REMARK  status: ('A' for Active; 'I' for Inactive)
REMARK    1  A    between atoms: C_1  and  N_2
REMARK    2  A    between atoms: N_2  and  C_3
REMARK    3  A    between atoms: N_2  and  N_4
REMARK    4  A    between atoms: C_6  and  N_24
REMARK    5  A    between atoms: C_7  and  N_11
REMARK    6  A    between atoms: C_14  and  C_17
REMARK    7  A    between atoms: C_17  and  C_18
REMARK                            x       y       z     vdW  Elec       q    Type
REMARK                         _______ _______ _______ _____ _____    ______ ____
ROOT
ATOM      1  N   UNL     1       0.004  -3.304  -0.973  0.00  0.00    -0.263 N 
ATOM      2  C   UNL     1      -1.020  -2.635  -1.632  0.00  0.00    +0.136 A 
ATOM      3  C   UNL     1      -2.276  -3.227  -1.774  0.00  0.00    +0.105 A 
ATOM      4  C   UNL     1      -3.270  -2.512  -2.444  0.00  0.00    +0.147 A 
ATOM      5  N   UNL     1      -2.984  -1.302  -2.919  0.00  0.00    -0.221 NA
ATOM      6  C   UNL     1      -1.785  -0.779  -2.763  0.00  0.00    +0.200 A 
ATOM      7  N   UNL     1      -0.820  -1.419  -2.132  0.00  0.00    -0.332 N 
ATOM      8  H   UNL     1      -0.149  -4.191  -0.611  0.00  0.00    +0.168 HD
ATOM      9  H   UNL     1       0.048  -0.998  -2.034  0.00  0.00    +0.168 HD
ENDROOT
BRANCH   4  10
ATOM     10  N   UNL     1      -4.538  -3.055  -2.614  0.00  0.00    -0.314 N 
ATOM     11  C   UNL     1      -5.611  -2.764  -1.653  0.00  0.00    +0.107 C 
ATOM     12  C   UNL     1      -6.826  -2.228  -2.418  0.00  0.00    +0.023 C 
ATOM     13  C   UNL     1      -7.214  -3.224  -3.513  0.00  0.00    -0.004 C 
ATOM     14  C   UNL     1      -6.053  -3.381  -4.498  0.00  0.00    +0.023 C 
ATOM     15  C   UNL     1      -4.832  -3.925  -3.760  0.00  0.00    +0.107 C 
BRANCH  13  16
ATOM     16  C   UNL     1      -8.448  -2.709  -4.257  0.00  0.00    +0.038 C 
BRANCH  16  17
ATOM     17  C   UNL     1      -8.904  -3.745  -5.252  0.00  0.00    -0.047 A 
ATOM     18  C   UNL     1      -8.402  -3.735  -6.540  0.00  0.00    +0.003 A 
ATOM     19  C   UNL     1      -8.821  -4.685  -7.452  0.00  0.00    +0.000 A 
ATOM     20  C   UNL     1      -9.741  -5.646  -7.077  0.00  0.00    +0.000 A 
ATOM     21  C   UNL     1     -10.242  -5.657  -5.788  0.00  0.00    +0.000 A 
ATOM     22  C   UNL     1      -9.820  -4.709  -4.875  0.00  0.00    +0.003 A 
ENDBRANCH  16  17
ENDBRANCH  13  16
ENDBRANCH   4  10
BRANCH   1  24
ATOM     23  C   UNL     1       1.539  -2.472   0.581  0.00  0.00    +0.127 C 
ATOM     24  N   UNL     1       1.228  -2.713  -0.834  0.00  0.00    -0.234 NA
ATOM     25  C   UNL     1       2.277  -3.518  -1.474  0.00  0.00    +0.127 C 
ENDBRANCH   1  24
BRANCH   3  26
ATOM     26  N   UNL     1      -2.534  -4.508  -1.257  0.00  0.00    -0.353 N 
ATOM     27  H   UNL     1      -1.812  -5.030  -0.874  0.00  0.00    +0.143 HD
ATOM     28  H   UNL     1      -3.433  -4.870  -1.283  0.00  0.00    +0.143 HD
ENDBRANCH   3  26
TORSDOF 5
