REMARK  Name = ZINC39674528
REMARK  12 active torsions:
REMARK  status: ('A' for Active; 'I' for Inactive)
REMARK    1  A    between atoms: C_1  and  C_2
REMARK    2  A    between atoms: C_4  and  C_9
REMARK    3  A    between atoms: C_5  and  C_8
REMARK    4  A    between atoms: C_9  and  C_11
REMARK    5  A    between atoms: C_9  and  N_12
REMARK    6  A    between atoms: C_13  and  C_15
REMARK    7  A    between atoms: C_26  and  C_28
REMARK    8  A    between atoms: C_28  and  C_30
REMARK    9  A    between atoms: C_28  and  O_33
REMARK   10  A    between atoms: C_30  and  C_31
REMARK   11  A    between atoms: C_30  and  C_32
REMARK   12  A    between atoms: O_33  and  C_34
REMARK                            x       y       z     vdW  Elec       q    Type
REMARK                         _______ _______ _______ _____ _____    ______ ____
ROOT
ATOM      1  C   UNL     1      -3.661  -1.857  -5.135  0.00  0.00    +0.100 C 
ATOM      2  C   UNL     1      -2.889  -0.532  -5.323  0.00  0.00    +0.121 C 
ATOM      3  N   UNL     1      -3.317  -0.035  -6.652  0.00  0.00    -0.297 N 
ATOM      4  C   UNL     1      -4.765  -0.346  -6.713  0.00  0.00    +0.115 C 
ATOM      5  C   UNL     1      -4.892  -1.731  -6.048  0.00  0.00    -0.004 C 
ATOM      6  C   UNL     1      -6.172  -1.804  -5.222  0.00  0.00    -0.010 C 
ATOM      7  C   UNL     1      -7.383  -1.735  -6.157  0.00  0.00    -0.082 C 
ATOM      8  N   UNL     1      -7.329  -2.848  -7.113  0.00  0.00    +0.379 N 
ATOM      9  C   UNL     1      -6.141  -2.718  -7.966  0.00  0.00    -0.082 C 
ATOM     10  C   UNL     1      -4.879  -2.829  -7.107  0.00  0.00    -0.010 C 
ATOM     11  C   UNL     1      -2.560   0.563  -7.593  0.00  0.00    +0.257 C 
ATOM     12  O   UNL     1      -3.078   1.003  -8.598  0.00  0.00    -0.272 OA
ATOM     13  H   UNL     1      -7.285  -3.721  -6.609  0.00  0.00    -0.086 HD
ATOM     14  H   UNL     1      -8.158  -2.836  -7.689  0.00  0.00    -0.086 HD
ENDROOT
BRANCH   1  16
ATOM     15  N   UNL     1      -4.281  -3.248  -3.185  0.00  0.00    -0.309 N 
ATOM     16  C   UNL     1      -4.088  -2.017  -3.698  0.00  0.00    +0.219 C 
ATOM     17  O   UNL     1      -4.257  -1.037  -3.004  0.00  0.00    -0.275 OA
ATOM     18  H   UNL     1      -4.145  -4.032  -3.740  0.00  0.00    +0.149 HD
BRANCH  15  19
ATOM     19  C   UNL     1      -4.695  -3.403  -1.788  0.00  0.00    +0.100 C 
ATOM     20  C   UNL     1      -3.461  -3.379  -0.884  0.00  0.00    +0.033 C 
BRANCH  19  23
ATOM     21  C   UNL     1      -3.663  -6.475  -1.275  0.00  0.00    +0.039 C 
ATOM     22  C   UNL     1      -4.943  -6.101  -2.025  0.00  0.00    +0.154 C 
ATOM     23  C   UNL     1      -5.416  -4.716  -1.621  0.00  0.00    -0.001 C 
ATOM     24  C   UNL     1      -6.618  -4.931  -1.083  0.00  0.00    +0.063 C 
ATOM     25  N   UNL     1      -6.927  -6.246  -1.109  0.00  0.00    -0.159 NA
ATOM     26  N   UNL     1      -6.059  -6.969  -1.615  0.00  0.00    -0.180 NA
ATOM     27  C   UNL     1      -7.510  -3.854  -0.522  0.00  0.00    +0.067 C 
ENDBRANCH  19  23
ENDBRANCH  15  19
ENDBRANCH   1  16
BRANCH  11  28
ATOM     28  C   UNL     1      -1.071   0.685  -7.397  0.00  0.00    +0.261 C 
BRANCH  28  29
ATOM     29  C   UNL     1      -0.379  -0.560  -7.956  0.00  0.00    +0.033 C 
ATOM     30  C   UNL     1       1.137  -0.409  -7.812  0.00  0.00    +0.011 C 
ATOM     31  C   UNL     1      -0.846  -1.794  -7.181  0.00  0.00    +0.011 C 
ENDBRANCH  28  29
BRANCH  28  32
ATOM     32  O   UNL     1      -0.593   1.844  -8.083  0.00  0.00    -0.479 OA
BRANCH  32  33
ATOM     33  C   UNL     1       0.379   2.568  -7.468  0.00  0.00    +0.122 A 
ATOM     34  C   UNL     1       0.852   3.733  -8.053  0.00  0.00    +0.045 A 
ATOM     35  C   UNL     1       1.840   4.468  -7.426  0.00  0.00    +0.004 A 
ATOM     36  C   UNL     1       2.358   4.042  -6.217  0.00  0.00    +0.000 A 
ATOM     37  C   UNL     1       1.888   2.880  -5.632  0.00  0.00    +0.004 A 
ATOM     38  C   UNL     1       0.896   2.146  -6.252  0.00  0.00    +0.045 A 
ENDBRANCH  32  33
ENDBRANCH  28  32
ENDBRANCH  11  28
TORSDOF 7
