REMARK  Name = ZINC27577777
REMARK  6 active torsions:
REMARK  status: ('A' for Active; 'I' for Inactive)
REMARK    1  A    between atoms: C_1  and  C_2
REMARK    2  A    between atoms: C_2  and  C_3
REMARK    3  A    between atoms: C_7  and  C_24
REMARK    4  A    between atoms: C_8  and  O_9
REMARK    5  A    between atoms: C_13  and  C_14
REMARK    6  A    between atoms: C_24  and  C_25
REMARK                            x       y       z     vdW  Elec       q    Type
REMARK                         _______ _______ _______ _____ _____    ______ ____
ROOT
ATOM      1  C   UNL     1      -1.433  -0.534   0.013  0.00  0.00    +0.023 C 
ATOM      2  C   UNL     1      -2.185  -0.038  -1.228  0.00  0.00    +0.097 C 
ATOM      3  N   UNL     1      -3.572  -0.524  -1.172  0.00  0.00    -0.281 NA
ATOM      4  C   UNL     1      -3.610  -1.994  -1.216  0.00  0.00    +0.097 C 
ATOM      5  C   UNL     1      -2.899  -2.548   0.025  0.00  0.00    +0.023 C 
ATOM      6  C   UNL     1      -1.427  -2.068   0.005  0.00  0.00    +0.132 C 
ATOM      7  C   UNL     1      -3.591  -1.993   1.275  0.00  0.00    +0.097 C 
ATOM      8  N   UNL     1      -3.554  -0.523   1.229  0.00  0.00    -0.281 NA
ATOM      9  C   UNL     1      -2.162  -0.051   1.273  0.00  0.00    +0.097 C 
ATOM     10  C   UNL     1      -4.250  -0.025   0.034  0.00  0.00    +0.175 C 
ENDROOT
BRANCH  10  11
ATOM     11  C   UNL     1      -5.677  -0.508   0.044  0.00  0.00    +0.049 A 
ATOM     12  C   UNL     1      -6.413  -0.762  -1.049  0.00  0.00    +0.034 A 
ATOM     13  C   UNL     1      -7.729  -1.208  -0.586  0.00  0.00    +0.000 A 
ATOM     14  C   UNL     1      -8.901  -1.608  -1.231  0.00  0.00    +0.010 A 
ATOM     15  C   UNL     1      -9.990  -1.976  -0.493  0.00  0.00    +0.001 A 
ATOM     16  C   UNL     1      -9.942  -1.955   0.895  0.00  0.00    +0.002 A 
ATOM     17  C   UNL     1      -8.796  -1.563   1.552  0.00  0.00    +0.026 A 
ATOM     18  C   UNL     1      -7.675  -1.185   0.820  0.00  0.00    +0.047 A 
ATOM     19  N   UNL     1      -6.413  -0.760   1.170  0.00  0.00    -0.356 N 
ATOM     20  H   UNL     1      -6.093  -0.654   2.080  0.00  0.00    +0.166 HD
ENDBRANCH  10  11
BRANCH   1  22
ATOM     21  C   UNL     1      -0.019   1.526   0.010  0.00  0.00    +0.004 C 
ATOM     22  C   UNL     1       0.002  -0.004   0.002  0.00  0.00    +0.008 C 
ENDBRANCH   1  22
BRANCH   6  23
ATOM     23  O   UNL     1      -0.762  -2.538  -1.169  0.00  0.00    -0.391 OA
ATOM     24  H   UNL     1      -0.722  -3.502  -1.239  0.00  0.00    +0.210 HD
ENDBRANCH   6  23
BRANCH   5  25
ATOM     25  C   UNL     1      -2.947  -4.077   0.017  0.00  0.00    +0.008 C 
ATOM     26  C   UNL     1      -4.404  -4.542   0.023  0.00  0.00    +0.004 C 
ENDBRANCH   5  25
TORSDOF 4
