REMARK  Name = ZINC39468817
REMARK  2 active torsions:
REMARK  status: ('A' for Active; 'I' for Inactive)
REMARK    1  A    between atoms: C_4  and  O_27
REMARK    2  A    between atoms: C_5  and  C_7
REMARK                            x       y       z     vdW  Elec       q    Type
REMARK                         _______ _______ _______ _____ _____    ______ ____
ROOT
ATOM      1  C   UNL     1       1.245  -2.165  -0.023  0.00  0.00    -0.004 C 
ATOM      2  C   UNL     1       0.950  -2.839  -1.146  0.00  0.00    -0.013 C 
ATOM      3  C   UNL     1       0.993  -4.349  -1.139  0.00  0.00    +0.016 C 
ATOM      4  C   UNL     1      -0.314  -4.875  -0.543  0.00  0.00    -0.003 C 
ATOM      5  C   UNL     1      -0.263  -6.400  -0.397  0.00  0.00    -0.020 C 
ATOM      6  C   UNL     1      -1.603  -6.840   0.207  0.00  0.00    +0.159 C 
ATOM      7  O   UNL     1      -1.633  -8.274   0.319  0.00  0.00    -0.297 OA
ATOM      8  P   UNL     1      -0.368  -9.002   1.039  0.00  0.00    +0.421 P 
ATOM      9  O   UNL     1      -0.273 -10.477   0.591  0.00  0.00    -0.239 OA
ATOM     10  N   UNL     1       0.960  -8.163   0.531  0.00  0.00    -0.267 NA
ATOM     11  N   UNL     1       0.859  -6.789   0.460  0.00  0.00    +0.399 N 
ATOM     12  C   UNL     1       2.130  -6.322  -0.116  0.00  0.00    -0.046 C 
ATOM     13  C   UNL     1       2.164  -4.806  -0.263  0.00  0.00    +0.005 C 
ATOM     14  C   UNL     1       2.060  -4.163   1.093  0.00  0.00    -0.009 C 
ATOM     15  C   UNL     1       1.601  -2.912   1.204  0.00  0.00    +0.022 C 
ATOM     16 BR   UNL     1       1.438  -2.092   2.900  0.00  0.00    -0.050 Br
ATOM     17  O   UNL     1      -0.503  -8.916   2.575  0.00  0.00    -0.128 OA
ATOM     18  H   UNL     1       1.781  -8.621   0.293  0.00  0.00    +0.113 HD
ATOM     19  H   UNL     1       0.730  -6.406   1.385  0.00  0.00    -0.055 HD
ENDROOT
BRANCH   1  24
ATOM     20  C   UNL     1      -0.017   1.376   0.010  0.00  0.00    +0.001 A 
ATOM     21  C   UNL     1       1.169   2.089   0.002  0.00  0.00    +0.004 A 
ATOM     22  C   UNL     1       2.382   1.426  -0.013  0.00  0.00    +0.046 A 
ATOM     23  C   UNL     1       2.415   0.041  -0.022  0.00  0.00    +0.125 A 
ATOM     24  C   UNL     1       1.219  -0.683  -0.014  0.00  0.00    +0.024 A 
ATOM     25  C   UNL     1       0.002  -0.004   0.002  0.00  0.00    +0.012 A 
BRANCH  23  26
ATOM     26  O   UNL     1       3.607  -0.612  -0.038  0.00  0.00    -0.506 OA
ATOM     27  H   UNL     1       3.961  -0.806   0.841  0.00  0.00    +0.292 HD
ENDBRANCH  23  26
ENDBRANCH   1  24
TORSDOF 2
