REMARK  Name = ZINC28624370
REMARK  10 active torsions:
REMARK  status: ('A' for Active; 'I' for Inactive)
REMARK    1  A    between atoms: C_4  and  O_22
REMARK    2  A    between atoms: C_5  and  C_7
REMARK    3  A    between atoms: C_7  and  O_9
REMARK    4  A    between atoms: O_9  and  C_10
REMARK    5  A    between atoms: C_10  and  C_11
REMARK    6  A    between atoms: N_13  and  C_14
REMARK    7  A    between atoms: C_15  and  C_19
REMARK    8  A    between atoms: O_22  and  C_23
REMARK    9  A    between atoms: C_23  and  C_24
REMARK   10  A    between atoms: N_26  and  C_27
REMARK                            x       y       z     vdW  Elec       q    Type
REMARK                         _______ _______ _______ _____ _____    ______ ____
ROOT
ATOM      1  C   UNL     1       1.953  -4.551  -0.090  0.00  0.00    +0.001 A 
ATOM      2  C   UNL     1       0.668  -4.032  -0.072  0.00  0.00    +0.004 A 
ATOM      3  C   UNL     1       0.467  -2.666  -0.046  0.00  0.00    +0.046 A 
ATOM      4  C   UNL     1       1.553  -1.803  -0.051  0.00  0.00    +0.135 A 
ATOM      5  C   UNL     1       2.854  -2.324  -0.070  0.00  0.00    +0.101 A 
ATOM      6  C   UNL     1       3.043  -3.709  -0.090  0.00  0.00    +0.018 A 
ENDROOT
BRANCH   5   7
ATOM      7  C   UNL     1       4.016  -1.417  -0.069  0.00  0.00    +0.343 C 
ATOM      8  O   UNL     1       3.847  -0.214  -0.052  0.00  0.00    -0.245 OA
BRANCH   7   9
ATOM      9  O   UNL     1       5.265  -1.923  -0.088  0.00  0.00    -0.452 OA
BRANCH   9  10
ATOM     10  C   UNL     1       6.361  -0.971  -0.085  0.00  0.00    +0.328 C 
BRANCH  10  11
ATOM     11  C   UNL     1       7.672  -1.714  -0.107  0.00  0.00    +0.255 C 
ATOM     12  O   UNL     1       7.681  -2.926  -0.123  0.00  0.00    -0.272 OA
ATOM     13  N   UNL     1       8.834  -1.031  -0.109  0.00  0.00    -0.277 N 
ATOM     14  H   UNL     1       8.825   0.069  -0.095  0.00  0.00    +0.155 HD
BRANCH  13  15
ATOM     15  C   UNL     1      10.040  -1.715  -0.130  0.00  0.00    +0.084 A 
ATOM     16  C   UNL     1      11.328  -1.193  -0.140  0.00  0.00    +0.065 A 
ATOM     17  C   UNL     1      12.414  -2.144  -0.158  0.00  0.00    +0.022 A 
ATOM     18  C   UNL     1      12.087  -3.449  -0.172  0.00  0.00    +0.048 A 
ATOM     19  S   UNL     1      10.306  -3.425  -0.155  0.00  0.00    -0.081 S 
BRANCH  16  20
ATOM     20  C   UNL     1      11.573   0.253  -0.131  0.00  0.00    +0.244 C 
ATOM     21  O   UNL     1      10.635   1.028  -0.113  0.00  0.00    -0.270 OA
ATOM     22  N   UNL     1      12.836   0.723  -0.142  0.00  0.00    -0.325 N 
ATOM     23  H   UNL     1      13.019   1.807  -0.135  0.00  0.00    +0.145 HD
ATOM     24  H   UNL     1      13.683   0.022  -0.158  0.00  0.00    +0.145 HD
ENDBRANCH  16  20
ENDBRANCH  13  15
ENDBRANCH  10  11
ENDBRANCH   9  10
ENDBRANCH   7   9
ENDBRANCH   5   7
BRANCH   4  25
ATOM     25  O   UNL     1       1.356  -0.461  -0.033  0.00  0.00    -0.482 OA
BRANCH  25  26
ATOM     26  C   UNL     1       0.003  -0.004  -0.014  0.00  0.00    +0.324 C 
BRANCH  26  27
ATOM     27  C   UNL     1      -0.018   1.503   0.005  0.00  0.00    +0.255 C 
ATOM     28  O   UNL     1       1.024   2.124   0.004  0.00  0.00    -0.272 OA
ATOM     29  N   UNL     1      -1.195   2.161   0.019  0.00  0.00    -0.280 N 
ATOM     30  H   UNL     1      -2.138   1.601  -0.058  0.00  0.00    +0.155 HD
BRANCH  29  31
ATOM     31  C   UNL     1      -1.215   3.556   0.133  0.00  0.00    +0.069 A 
ATOM     32  C   UNL     1      -0.216   4.317  -0.459  0.00  0.00    +0.026 A 
ATOM     33  C   UNL     1      -0.243   5.694  -0.350  0.00  0.00    +0.002 A 
ATOM     34  C   UNL     1      -1.256   6.315   0.357  0.00  0.00    +0.003 A 
ATOM     35  C   UNL     1      -2.250   5.561   0.953  0.00  0.00    +0.040 A 
ATOM     36  C   UNL     1      -2.233   4.183   0.843  0.00  0.00    +0.144 A 
ATOM     37  F   UNL     1      -3.204   3.446   1.426  0.00  0.00    -0.204 F 
ENDBRANCH  29  31
ENDBRANCH  26  27
ENDBRANCH  25  26
ENDBRANCH   4  25
TORSDOF 10
