REMARK  Name = ZINC15046243
REMARK  13 active torsions:
REMARK  status: ('A' for Active; 'I' for Inactive)
REMARK    1  A    between atoms: C_1  and  C_2
REMARK    2  A    between atoms: C_2  and  N_3
REMARK    3  A    between atoms: N_3  and  C_4
REMARK    4  A    between atoms: C_5  and  N_20
REMARK    5  A    between atoms: N_6  and  C_13
REMARK    6  A    between atoms: C_13  and  C_14
REMARK    7  A    between atoms: C_21  and  C_23
REMARK    8  A    between atoms: C_23  and  N_62
REMARK    9  A    between atoms: C_24  and  N_62
REMARK   10  A    between atoms: C_25  and  C_26
REMARK   11  A    between atoms: C_25  and  N_62
REMARK   12  A    between atoms: C_26  and  O_27
REMARK   13  A    between atoms: O_27  and  C_28
REMARK                            x       y       z     vdW  Elec       q    Type
REMARK                         _______ _______ _______ _____ _____    ______ ____
ROOT
ATOM      1  N   UNL     1       2.359   3.682   0.046  0.00  0.00    -0.266 N 
ATOM      2  C   UNL     1       2.319   5.023  -0.094  0.00  0.00    +0.203 C 
ATOM      3  O   UNL     1       1.251   5.598  -0.129  0.00  0.00    -0.277 OA
ENDROOT
BRANCH   1   4
ATOM      4  C   UNL     1       1.160   2.937   0.045  0.00  0.00    +0.140 A 
ATOM      5  C   UNL     1       0.749   2.269   1.181  0.00  0.00    +0.128 A 
ATOM      6  N   UNL     1      -0.424   1.551   1.150  0.00  0.00    -0.276 N 
ATOM      7  C   UNL     1      -1.165   1.505   0.027  0.00  0.00    +0.331 A 
ATOM      8  O   UNL     1      -2.201   0.869   0.021  0.00  0.00    -0.246 OA
ATOM      9  N   UNL     1      -0.777   2.146  -1.090  0.00  0.00    -0.273 N 
ATOM     10  H   UNL     1      -1.342   2.089  -1.913  0.00  0.00    +0.173 HD
ATOM     11  C   UNL     1       0.364   2.862  -1.113  0.00  0.00    +0.277 A 
ATOM     12  O   UNL     1       0.704   3.443  -2.130  0.00  0.00    -0.266 OA
BRANCH   5  13
ATOM     13  N   UNL     1       1.503   2.319   2.329  0.00  0.00    -0.343 N 
ATOM     14  H   UNL     1       2.350   2.792   2.332  0.00  0.00    +0.144 HD
ATOM     15  H   UNL     1       1.188   1.883   3.135  0.00  0.00    +0.144 HD
ENDBRANCH   5  13
BRANCH   6  16
ATOM     16  C   UNL     1      -0.873   0.837   2.348  0.00  0.00    +0.163 C 
BRANCH  16  17
ATOM     17  C   UNL     1      -1.743   1.746   3.177  0.00  0.00    -0.028 A 
ATOM     18  C   UNL     1      -1.177   2.544   4.153  0.00  0.00    +0.005 A 
ATOM     19  C   UNL     1      -1.974   3.381   4.911  0.00  0.00    +0.000 A 
ATOM     20  C   UNL     1      -3.340   3.412   4.700  0.00  0.00    +0.000 A 
ATOM     21  C   UNL     1      -3.908   2.610   3.727  0.00  0.00    +0.000 A 
ATOM     22  C   UNL     1      -3.109   1.777   2.966  0.00  0.00    +0.005 A 
ENDBRANCH  16  17
ENDBRANCH   6  16
ENDBRANCH   1   4
BRANCH   1  24
ATOM     23  C   UNL     1       4.247   2.732  -1.184  0.00  0.00    +0.025 C 
ATOM     24  C   UNL     1       3.646   2.998   0.197  0.00  0.00    +0.110 C 
ENDBRANCH   1  24
BRANCH   2  25
ATOM     25  C   UNL     1       3.601   5.807  -0.205  0.00  0.00    +0.019 C 
BRANCH  25  27
ATOM     26  C   UNL     1       2.607   7.502  -1.620  0.00  0.00    -0.095 C 
ATOM     27  N   UNL     1       3.273   7.243  -0.326  0.00  0.00    +0.386 N 
ATOM     28  H   UNL     1       2.636   7.505   0.435  0.00  0.00    -0.081 HD
BRANCH  27  29
ATOM     29  C   UNL     1       4.505   8.053  -0.222  0.00  0.00    -0.037 C 
BRANCH  29  30
ATOM     30  C   UNL     1       4.117   9.530  -0.125  0.00  0.00    +0.211 C 
BRANCH  30  31
ATOM     31  O   UNL     1       3.385   9.752   1.082  0.00  0.00    -0.491 OA
BRANCH  31  32
ATOM     32  C   UNL     1       2.963  11.022   1.323  0.00  0.00    +0.155 A 
ATOM     33  C   UNL     1       3.252  12.034   0.419  0.00  0.00    +0.048 A 
ATOM     34  C   UNL     1       2.818  13.322   0.664  0.00  0.00    +0.004 A 
ATOM     35  C   UNL     1       2.104  13.607   1.813  0.00  0.00    +0.003 A 
ATOM     36  C   UNL     1       1.818  12.603   2.719  0.00  0.00    +0.042 A 
ATOM     37  C   UNL     1       2.245  11.310   2.477  0.00  0.00    +0.165 A 
ATOM     38  F   UNL     1       1.966  10.328   3.362  0.00  0.00    -0.202 F 
ENDBRANCH  31  32
ENDBRANCH  30  31
ENDBRANCH  29  30
ENDBRANCH  27  29
ENDBRANCH  25  27
ENDBRANCH   2  25
TORSDOF 11
