REMARK  Name = ZINC50830646
REMARK  3 active torsions:
REMARK  status: ('A' for Active; 'I' for Inactive)
REMARK    1  A    between atoms: C_4  and  O_8
REMARK    2  A    between atoms: O_8  and  C_9
REMARK    3  A    between atoms: C_9  and  C_10
REMARK                            x       y       z     vdW  Elec       q    Type
REMARK                         _______ _______ _______ _____ _____    ______ ____
ROOT
ATOM      1  C   UNL     1       4.933  -2.616  -0.062  0.00  0.00    +0.169 A 
ATOM      2  N   UNL     1       5.524  -2.843  -1.221  0.00  0.00    -0.214 NA
ATOM      3  C   UNL     1       6.751  -3.330  -1.304  0.00  0.00    +0.128 A 
ATOM      4  C   UNL     1       7.464  -3.620  -0.107  0.00  0.00    +0.047 A 
ATOM      5  C   UNL     1       8.804  -4.152   0.070  0.00  0.00    +0.021 A 
ATOM      6  C   UNL     1       9.272  -4.346   1.312  0.00  0.00    +0.048 A 
ATOM      7  S   UNL     1       7.924  -3.818   2.353  0.00  0.00    -0.077 S 
ATOM      8  C   UNL     1       6.768  -3.352   1.092  0.00  0.00    +0.114 A 
ATOM      9  N   UNL     1       5.544  -2.860   1.081  0.00  0.00    -0.221 NA
ATOM     10  N   UNL     1       7.335  -3.554  -2.538  0.00  0.00    -0.343 N 
ATOM     11  H   UNL     1       6.843  -3.354  -3.350  0.00  0.00    +0.144 HD
ATOM     12  H   UNL     1       8.235  -3.911  -2.591  0.00  0.00    +0.144 HD
ENDROOT
BRANCH   1  13
ATOM     13  C   UNL     1       3.532  -2.061  -0.044  0.00  0.00    +0.305 C 
BRANCH  13  14
ATOM     14  O   UNL     1       3.586  -0.633  -0.037  0.00  0.00    -0.483 OA
BRANCH  14  18
ATOM     15  C   UNL     1      -0.017   1.379   0.010  0.00  0.00    +0.021 A 
ATOM     16  C   UNL     1       1.170   2.089   0.002  0.00  0.00    +0.025 A 
ATOM     17  C   UNL     1       2.378   1.418  -0.013  0.00  0.00    +0.083 A 
ATOM     18  C   UNL     1       2.400   0.029  -0.021  0.00  0.00    +0.141 A 
ATOM     19  C   UNL     1       1.208  -0.680  -0.013  0.00  0.00    +0.067 A 
ATOM     20  C   UNL     1       0.002  -0.004   0.002  0.00  0.00    +0.045 A 
ATOM     21 CL   UNL     1      -1.490  -0.892   0.012  0.00  0.00    -0.083 Cl
ATOM     22 CL   UNL     1       3.867   2.310  -0.024  0.00  0.00    -0.080 Cl
ENDBRANCH  14  18
ENDBRANCH  13  14
ENDBRANCH   1  13
TORSDOF 3
