REMARK  Name = ZINC12143073
REMARK  6 active torsions:
REMARK  status: ('A' for Active; 'I' for Inactive)
REMARK    1  A    between atoms: C_1  and  C_2
REMARK    2  A    between atoms: C_3  and  C_7
REMARK    3  A    between atoms: N_9  and  C_10
REMARK    4  A    between atoms: C_10  and  C_15
REMARK    5  A    between atoms: C_20  and  O_21
REMARK    6  A    between atoms: O_21  and  C_22
REMARK                            x       y       z     vdW  Elec       q    Type
REMARK                         _______ _______ _______ _____ _____    ______ ____
ROOT
ATOM      1  C   UNL     1       2.575   5.569   0.007  0.00  0.00    +0.063 C 
ATOM      2  C   UNL     1       3.425   5.696   1.294  0.00  0.00    +0.031 C 
ATOM      3  C   UNL     1       2.387   6.185   2.339  0.00  0.00    +0.002 C 
ATOM      4  C   UNL     1       1.487   7.160   1.552  0.00  0.00    +0.002 C 
ATOM      5  C   UNL     1       1.607   6.768   0.069  0.00  0.00    +0.031 C 
ENDROOT
BRANCH   1   6
ATOM      6  C   UNL     1       3.451   5.661  -1.216  0.00  0.00    +0.017 A 
ATOM      7  C   UNL     1       3.456   4.636  -2.142  0.00  0.00    +0.009 A 
ATOM      8  C   UNL     1       4.256   4.722  -3.266  0.00  0.00    +0.001 A 
ATOM      9  C   UNL     1       5.061   5.829  -3.461  0.00  0.00    +0.004 A 
ATOM     10  C   UNL     1       5.064   6.854  -2.536  0.00  0.00    +0.046 A 
ATOM     11  C   UNL     1       4.258   6.773  -1.409  0.00  0.00    +0.125 A 
BRANCH  11  12
ATOM     12  O   UNL     1       4.259   7.780  -0.497  0.00  0.00    -0.495 OA
ATOM     13  C   UNL     1       5.114   8.893  -0.761  0.00  0.00    +0.277 C 
ENDBRANCH  11  12
ENDBRANCH   1   6
BRANCH   1  16
ATOM     14  C   UNL     1       2.490   3.134  -0.005  0.00  0.00    +0.255 C 
ATOM     15  O   UNL     1       3.706   3.121  -0.017  0.00  0.00    -0.269 OA
ATOM     16  N   UNL     1       1.829   4.308   0.007  0.00  0.00    -0.301 N 
ATOM     17  H   UNL     1       0.859   4.318   0.017  0.00  0.00    +0.150 HD
BRANCH  14  20
ATOM     18  C   UNL     1       3.666   0.194  -0.032  0.00  0.00    +0.069 C 
ATOM     19  C   UNL     1       2.203   0.556  -0.016  0.00  0.00    +0.081 A 
ATOM     20  C   UNL     1       1.741   1.867  -0.004  0.00  0.00    +0.117 A 
ATOM     21  S   UNL     1      -0.019   1.576   0.011  0.00  0.00    +0.041 S 
ATOM     22  N   UNL     1       0.002  -0.004   0.002  0.00  0.00    -0.110 NA
ATOM     23  N   UNL     1       1.241  -0.336  -0.012  0.00  0.00    -0.146 NA
ENDBRANCH  14  20
ENDBRANCH   1  16
TORSDOF 4
