REMARK  Name = ZINC43025248
REMARK  7 active torsions:
REMARK  status: ('A' for Active; 'I' for Inactive)
REMARK    1  A    between atoms: C_1  and  C_2
REMARK    2  A    between atoms: C_2  and  C_4
REMARK    3  A    between atoms: C_2  and  N_23
REMARK    4  A    between atoms: C_4  and  C_6
REMARK    5  A    between atoms: C_4  and  S_13
REMARK    6  A    between atoms: S_13  and  C_14
REMARK    7  A    between atoms: C_20  and  N_22
REMARK                            x       y       z     vdW  Elec       q    Type
REMARK                         _______ _______ _______ _____ _____    ______ ____
ROOT
ATOM      1  C   UNL     1       0.839  -0.534   1.174  0.00  0.00    +0.069 C 
ENDROOT
BRANCH   1   2
ATOM      2  C   UNL     1       1.081  -2.017   1.059  0.00  0.00    -0.035 A 
ATOM      3  C   UNL     1       0.011  -2.893   1.052  0.00  0.00    +0.005 A 
ATOM      4  C   UNL     1       0.232  -4.253   0.947  0.00  0.00    +0.001 A 
ATOM      5  C   UNL     1       1.523  -4.739   0.849  0.00  0.00    +0.015 A 
ATOM      6  C   UNL     1       2.593  -3.863   0.856  0.00  0.00    +0.018 A 
ATOM      7  C   UNL     1       2.371  -2.501   0.956  0.00  0.00    +0.020 A 
ATOM      8 BR   UNL     1       4.359  -4.526   0.723  0.00  0.00    -0.050 Br
ENDBRANCH   1   2
BRANCH   1  10
ATOM      9  C   UNL     1      -0.216   1.450   0.082  0.00  0.00    -0.013 C 
ATOM     10  C   UNL     1      -0.021  -0.065  -0.001  0.00  0.00    -0.060 C 
BRANCH  10  11
ATOM     11  N   UNL     1       0.649  -0.403  -1.264  0.00  0.00    +0.381 N 
ATOM     12  H   UNL     1       1.547   0.054  -1.302  0.00  0.00    -0.090 HD
ATOM     13  H   UNL     1       0.777  -1.403  -1.319  0.00  0.00    -0.090 HD
ATOM     14  H   UNL     1       0.081  -0.094  -2.039  0.00  0.00    -0.090 HD
ENDBRANCH  10  11
ENDBRANCH   1  10
BRANCH   1  15
ATOM     15  S   UNL     1      -0.020  -0.179   2.732  0.00  0.00    -0.081 S 
BRANCH  15  16
ATOM     16  C   UNL     1       1.181  -0.535   3.971  0.00  0.00    +0.171 A 
ATOM     17  N   UNL     1       0.882  -0.295   5.278  0.00  0.00    -0.302 N 
ATOM     18  H   UNL     1       0.014   0.067   5.518  0.00  0.00    +0.171 HD
ATOM     19  C   UNL     1       1.789  -0.561   6.241  0.00  0.00    +0.254 A 
ATOM     20  O   UNL     1       1.529  -0.350   7.415  0.00  0.00    -0.268 OA
ATOM     21  C   UNL     1       3.032  -1.084   5.871  0.00  0.00    +0.113 A 
ATOM     22  C   UNL     1       3.288  -1.310   4.526  0.00  0.00    +0.124 A 
ATOM     23  N   UNL     1       2.348  -1.032   3.615  0.00  0.00    -0.209 NA
BRANCH  22  24
ATOM     24  N   UNL     1       4.505  -1.825   4.129  0.00  0.00    -0.343 N 
ATOM     25  H   UNL     1       5.184  -2.030   4.791  0.00  0.00    +0.144 HD
ATOM     26  H   UNL     1       4.682  -1.982   3.188  0.00  0.00    +0.144 HD
ENDBRANCH  22  24
ENDBRANCH  15  16
ENDBRANCH   1  15
TORSDOF 6
