REMARK  Name = ZINC51101461
REMARK  13 active torsions:
REMARK  status: ('A' for Active; 'I' for Inactive)
REMARK    1  A    between atoms: C_1  and  C_2
REMARK    2  A    between atoms: C_2  and  C_3
REMARK    3  A    between atoms: C_2  and  S_4
REMARK    4  A    between atoms: S_4  and  N_7
REMARK    5  A    between atoms: N_7  and  C_8
REMARK    6  A    between atoms: C_8  and  C_9
REMARK    7  A    between atoms: N_13  and  C_15
REMARK    8  A    between atoms: C_15  and  C_16
REMARK    9  A    between atoms: C_15  and  C_17
REMARK   10  A    between atoms: N_22  and  C_23
REMARK   11  A    between atoms: C_23  and  C_24
REMARK   12  A    between atoms: C_23  and  C_25
REMARK   13  A    between atoms: C_23  and  C_26
REMARK                            x       y       z     vdW  Elec       q    Type
REMARK                         _______ _______ _______ _____ _____    ______ ____
ROOT
ATOM      1  C   UNL     1      -2.833   1.077   3.902  0.00  0.00    -0.012 C 
ATOM      2  C   UNL     1      -3.632   2.383   3.928  0.00  0.00    +0.001 C 
ATOM      3  C   UNL     1      -4.122   2.642   5.356  0.00  0.00    -0.018 C 
ATOM      4  C   UNL     1      -4.950   1.446   5.830  0.00  0.00    -0.078 C 
ATOM      5  N   UNL     1      -4.123   0.234   5.807  0.00  0.00    +0.387 N 
ATOM      6  C   UNL     1      -3.710  -0.061   4.430  0.00  0.00    -0.073 C 
ATOM      7  H   UNL     1      -3.305   0.375   6.380  0.00  0.00    -0.081 HD
ENDROOT
BRANCH   5   8
ATOM      8  C   UNL     1      -4.899  -0.896   6.337  0.00  0.00    +0.017 C 
ATOM      9  C   UNL     1      -4.058  -2.172   6.262  0.00  0.00    -0.004 C 
BRANCH   8  10
ATOM     10  C   UNL     1      -5.270  -0.623   7.771  0.00  0.00    +0.207 C 
ATOM     11  O   UNL     1      -4.572   0.100   8.450  0.00  0.00    -0.277 OA
ATOM     12  N   UNL     1      -6.377  -1.182   8.300  0.00  0.00    -0.242 N 
ATOM     13  C   UNL     1      -6.708  -0.937   9.583  0.00  0.00    +0.306 C 
ATOM     14  O   UNL     1      -6.009  -0.212  10.264  0.00  0.00    -0.252 OA
ATOM     15  N   UNL     1      -7.815  -1.496  10.111  0.00  0.00    -0.294 N 
ATOM     16  H   UNL     1      -6.934  -1.760   7.756  0.00  0.00    +0.159 HD
ATOM     17  H   UNL     1      -8.373  -2.074   9.568  0.00  0.00    +0.151 HD
BRANCH  15  18
ATOM     18  C   UNL     1      -8.175  -1.230  11.506  0.00  0.00    +0.028 C 
ATOM     19  C   UNL     1      -8.391   0.272  11.700  0.00  0.00    +0.031 C 
ATOM     20  C   UNL     1      -9.464  -1.979  11.852  0.00  0.00    +0.031 C 
ATOM     21  C   UNL     1      -7.047  -1.705  12.424  0.00  0.00    +0.031 C 
ENDBRANCH  15  18
ENDBRANCH   8  10
ENDBRANCH   5   8
BRANCH   1  22
ATOM     22  C   UNL     1      -2.406   0.768   2.466  0.00  0.00    +0.107 C 
BRANCH  22  23
ATOM     23  N   UNL     1      -1.472   1.797   2.003  0.00  0.00    -0.194 NA
ATOM     24  H   UNL     1      -1.387   2.630   2.491  0.00  0.00    +0.148 HD
BRANCH  23  25
ATOM     25  S   UNL     1      -0.560   1.537   0.644  0.00  0.00    +0.032 S 
ATOM     26  O   UNL     1       0.049   0.270   0.853  0.00  0.00    -0.158 OA
ATOM     27  O   UNL     1       0.232   2.709   0.510  0.00  0.00    -0.158 OA
BRANCH  25  29
ATOM     28  C   UNL     1      -2.545   2.748  -0.797  0.00  0.00    +0.033 C 
ATOM     29  C   UNL     1      -1.762   1.436  -0.711  0.00  0.00    +0.142 C 
ATOM     30  C   UNL     1      -1.025   1.195  -2.029  0.00  0.00    +0.033 C 
ENDBRANCH  25  29
ENDBRANCH  23  25
ENDBRANCH  22  23
ENDBRANCH   1  22
TORSDOF 7
