REMARK  Name = ZINC33272636
REMARK  10 active torsions:
REMARK  status: ('A' for Active; 'I' for Inactive)
REMARK    1  A    between atoms: C_1  and  C_2
REMARK    2  A    between atoms: C_2  and  N_3
REMARK    3  A    between atoms: N_10  and  C_15
REMARK    4  A    between atoms: C_15  and  C_16
REMARK    5  A    between atoms: C_19  and  C_22
REMARK    6  A    between atoms: N_24  and  C_25
REMARK    7  A    between atoms: C_25  and  C_26
REMARK    8  A    between atoms: C_26  and  C_27
REMARK    9  A    between atoms: C_27  and  C_29
REMARK   10  A    between atoms: C_27  and  N_30
REMARK                            x       y       z     vdW  Elec       q    Type
REMARK                         _______ _______ _______ _____ _____    ______ ____
ROOT
ATOM      1  C   UNL     1      -2.648   4.593  -2.223  0.00  0.00    -0.028 A 
ATOM      2  C   UNL     1      -2.200   5.852  -2.581  0.00  0.00    +0.006 A 
ATOM      3  C   UNL     1      -2.486   6.360  -3.832  0.00  0.00    +0.013 A 
ATOM      4  C   UNL     1      -3.238   5.604  -4.733  0.00  0.00    +0.037 A 
ATOM      5  C   UNL     1      -3.692   4.337  -4.363  0.00  0.00    +0.013 A 
ATOM      6  C   UNL     1      -3.394   3.839  -3.111  0.00  0.00    +0.006 A 
ENDROOT
BRANCH   4   7
ATOM      7  C   UNL     1      -3.553   6.144  -6.073  0.00  0.00    +0.244 C 
ATOM      8  O   UNL     1      -4.208   5.484  -6.856  0.00  0.00    -0.270 OA
ATOM      9  N   UNL     1      -3.113   7.368  -6.427  0.00  0.00    -0.311 N 
ATOM     10  H   UNL     1      -2.521   7.966  -5.718  0.00  0.00    +0.149 HD
BRANCH   9  11
ATOM     11  C   UNL     1      -3.425   7.903  -7.755  0.00  0.00    +0.103 C 
BRANCH  11  12
ATOM     12  C   UNL     1      -2.813   9.297  -7.899  0.00  0.00    +0.003 C 
BRANCH  12  13
ATOM     13  C   UNL     1      -3.139   9.856  -9.286  0.00  0.00    -0.070 C 
ATOM     14  C   UNL     1      -2.424  11.195  -9.477  0.00  0.00    -0.013 C 
BRANCH  13  15
ATOM     15  N   UNL     1      -4.589  10.053  -9.406  0.00  0.00    +0.381 N 
ATOM     16  C   UNL     1      -5.043  11.193  -8.568  0.00  0.00    -0.079 C 
ATOM     17  C   UNL     1      -6.404  11.578  -9.199  0.00  0.00    -0.020 C 
ATOM     18  C   UNL     1      -6.154  11.374 -10.711  0.00  0.00    -0.020 C 
ATOM     19  C   UNL     1      -4.964  10.400 -10.794  0.00  0.00    -0.079 C 
ATOM     20  H   UNL     1      -5.048   9.105  -9.090  0.00  0.00    -0.081 HD
ENDBRANCH  13  15
ENDBRANCH  12  13
ENDBRANCH  11  12
ENDBRANCH   9  11
ENDBRANCH   4   7
BRANCH   1  21
ATOM     21  C   UNL     1      -2.328   4.043  -0.857  0.00  0.00    +0.160 C 
BRANCH  21  29
ATOM     22  N   UNL     1       1.346   1.860  -1.027  0.00  0.00    -0.303 N 
ATOM     23  C   UNL     1       0.129   1.226  -1.261  0.00  0.00    +0.069 A 
ATOM     24  C   UNL     1       0.105  -0.133  -1.555  0.00  0.00    +0.028 A 
ATOM     25  C   UNL     1      -1.097  -0.768  -1.789  0.00  0.00    +0.002 A 
ATOM     26  C   UNL     1      -2.284  -0.055  -1.738  0.00  0.00    +0.002 A 
ATOM     27  C   UNL     1      -2.273   1.292  -1.443  0.00  0.00    +0.028 A 
ATOM     28  C   UNL     1      -1.067   1.943  -1.205  0.00  0.00    +0.069 A 
ATOM     29  N   UNL     1      -1.064   3.304  -0.913  0.00  0.00    -0.298 N 
ATOM     30  C   UNL     1       0.100   3.943  -0.681  0.00  0.00    +0.317 A 
ATOM     31  O   UNL     1       0.108   5.131  -0.425  0.00  0.00    -0.262 OA
ATOM     32  C   UNL     1       1.379   3.177  -0.741  0.00  0.00    +0.317 A 
ATOM     33  O   UNL     1       2.438   3.735  -0.536  0.00  0.00    -0.262 OA
BRANCH  22  35
ATOM     34  C   UNL     1       3.142   1.128  -2.517  0.00  0.00    +0.027 C 
ATOM     35  C   UNL     1       2.594   1.094  -1.089  0.00  0.00    +0.122 C 
ENDBRANCH  22  35
ENDBRANCH  21  29
ENDBRANCH   1  21
TORSDOF 8
