REMARK  Name = ZINC20878974
REMARK  12 active torsions:
REMARK  status: ('A' for Active; 'I' for Inactive)
REMARK    1  A    between atoms: C_1  and  C_2
REMARK    2  A    between atoms: C_4  and  C_25
REMARK    3  A    between atoms: C_7  and  N_8
REMARK    4  A    between atoms: N_8  and  C_9
REMARK    5  A    between atoms: C_9  and  C_10
REMARK    6  A    between atoms: C_15  and  O_16
REMARK    7  A    between atoms: O_16  and  C_17
REMARK    8  A    between atoms: C_17  and  C_18
REMARK    9  A    between atoms: N_20  and  C_21
REMARK   10  A    between atoms: C_21  and  C_22
REMARK   11  A    between atoms: C_21  and  C_23
REMARK   12  A    between atoms: C_21  and  C_24
REMARK                            x       y       z     vdW  Elec       q    Type
REMARK                         _______ _______ _______ _____ _____    ______ ____
ROOT
ATOM      1  C   UNL     1      -3.809  -0.952   0.016  0.00  0.00    +0.011 A 
ATOM      2  C   UNL     1      -4.377  -1.399   1.194  0.00  0.00    +0.009 A 
ATOM      3  C   UNL     1      -5.674  -1.878   1.199  0.00  0.00    +0.001 A 
ATOM      4  C   UNL     1      -6.403  -1.919   0.025  0.00  0.00    +0.004 A 
ATOM      5  C   UNL     1      -5.838  -1.478  -1.156  0.00  0.00    +0.046 A 
ATOM      6  C   UNL     1      -4.538  -0.993  -1.163  0.00  0.00    +0.126 A 
ENDROOT
BRANCH   1   7
ATOM      7  C   UNL     1      -2.397  -0.426   0.012  0.00  0.00    +0.140 C 
BRANCH   7   8
ATOM      8  N   UNL     1      -2.421   1.038   0.020  0.00  0.00    -0.339 N 
ATOM      9  H   UNL     1      -3.383   1.572   0.027  0.00  0.00    +0.146 HD
BRANCH   8  16
ATOM     10  C   UNL     1      -2.572   3.876   0.046  0.00  0.00    +0.045 C 
ATOM     11  C   UNL     1      -1.254   3.146   0.030  0.00  0.00    -0.029 A 
ATOM     12  C   UNL     1      -0.074   3.854   0.022  0.00  0.00    +0.020 A 
ATOM     13  C   UNL     1       1.147   3.171   0.007  0.00  0.00    +0.064 A 
ATOM     14  C   UNL     1       1.162   1.773   0.001  0.00  0.00    +0.017 A 
ATOM     15  C   UNL     1      -0.013   1.076   0.008  0.00  0.00    +0.024 A 
ATOM     16  C   UNL     1      -1.229   1.753   0.017  0.00  0.00    +0.030 A 
BRANCH  13  17
ATOM     17  C   UNL     1       2.414   3.924  -0.001  0.00  0.00    +0.387 C 
ATOM     18  O   UNL     1       2.399   5.139   0.005  0.00  0.00    -0.241 OA
ATOM     19  O   UNL     1       3.589   3.264  -0.015  0.00  0.00    -0.241 OA
ENDBRANCH  13  17
ENDBRANCH   8  16
ENDBRANCH   7   8
ENDBRANCH   1   7
BRANCH   6  20
ATOM     20  O   UNL     1      -3.980  -0.559  -2.324  0.00  0.00    -0.482 OA
BRANCH  20  21
ATOM     21  C   UNL     1      -4.789  -0.630  -3.499  0.00  0.00    +0.324 C 
BRANCH  21  22
ATOM     22  C   UNL     1      -4.009  -0.110  -4.679  0.00  0.00    +0.251 C 
ATOM     23  O   UNL     1      -2.872   0.283  -4.527  0.00  0.00    -0.272 OA
ATOM     24  N   UNL     1      -4.575  -0.081  -5.902  0.00  0.00    -0.308 N 
ATOM     25  H   UNL     1      -5.606  -0.438  -6.039  0.00  0.00    +0.149 HD
BRANCH  24  26
ATOM     26  C   UNL     1      -3.816   0.425  -7.048  0.00  0.00    +0.026 C 
ATOM     27  C   UNL     1      -2.559  -0.425  -7.242  0.00  0.00    +0.031 C 
ATOM     28  C   UNL     1      -4.683   0.348  -8.307  0.00  0.00    +0.031 C 
ATOM     29  C   UNL     1      -3.415   1.879  -6.793  0.00  0.00    +0.031 C 
ENDBRANCH  24  26
ENDBRANCH  21  22
ENDBRANCH  20  21
ENDBRANCH   6  20
TORSDOF 8
