REMARK  Name = ZINC51886012
REMARK  5 active torsions:
REMARK  status: ('A' for Active; 'I' for Inactive)
REMARK    1  A    between atoms: C_1  and  C_2
REMARK    2  A    between atoms: C_5  and  S_7
REMARK    3  A    between atoms: S_7  and  N_10
REMARK    4  A    between atoms: C_13  and  C_16
REMARK    5  A    between atoms: C_16  and  O_17
REMARK                            x       y       z     vdW  Elec       q    Type
REMARK                         _______ _______ _______ _____ _____    ______ ____
ROOT
ATOM      1  S   UNL     1       1.134  -4.300  -0.029  0.00  0.00    +0.067 S 
ATOM      2  O   UNL     1       2.445  -4.240   0.516  0.00  0.00    -0.152 OA
ATOM      3  O   UNL     1       0.117  -5.126   0.522  0.00  0.00    -0.152 OA
ENDROOT
BRANCH   1   8
ATOM      4  C   UNL     1      -0.018   1.503   0.010  0.00  0.00    +0.051 C 
ATOM      5  C   UNL     1       0.002  -0.004   0.002  0.00  0.00    -0.011 A 
ATOM      6  C   UNL     1      -1.039  -0.872   0.002  0.00  0.00    +0.013 A 
ATOM      7  C   UNL     1      -0.780  -2.230  -0.007  0.00  0.00    +0.036 A 
ATOM      8  C   UNL     1       0.507  -2.653  -0.016  0.00  0.00    +0.143 A 
ATOM      9  S   UNL     1       1.404  -1.109  -0.018  0.00  0.00    -0.074 S 
ENDBRANCH   1   8
BRANCH   1  10
ATOM     10  N   UNL     1       1.300  -4.748  -1.614  0.00  0.00    -0.176 NA
ATOM     11  C   UNL     1       0.268  -5.399  -2.434  0.00  0.00    +0.110 C 
ATOM     12  C   UNL     1       0.861  -5.600  -3.844  0.00  0.00    +0.024 C 
ATOM     13  C   UNL     1       1.993  -4.540  -3.899  0.00  0.00    +0.031 C 
ATOM     14  C   UNL     1       2.506  -4.555  -2.439  0.00  0.00    +0.115 C 
BRANCH  13  15
ATOM     15  C   UNL     1       3.093  -4.963  -4.875  0.00  0.00    +0.160 C 
BRANCH  15  16
ATOM     16  O   UNL     1       2.574  -4.963  -6.206  0.00  0.00    -0.395 OA
ATOM     17  H   UNL     1       3.218  -5.221  -6.879  0.00  0.00    +0.209 HD
ENDBRANCH  15  16
ENDBRANCH  13  15
ENDBRANCH   1  10
TORSDOF 4
