REMARK  Name = ZINC22883509
REMARK  11 active torsions:
REMARK  status: ('A' for Active; 'I' for Inactive)
REMARK    1  A    between atoms: C_1  and  C_2
REMARK    2  A    between atoms: C_4  and  C_14
REMARK    3  A    between atoms: C_5  and  C_13
REMARK    4  A    between atoms: N_6  and  C_7
REMARK    5  A    between atoms: N_16  and  N_17
REMARK    6  A    between atoms: C_18  and  C_20
REMARK    7  A    between atoms: C_20  and  C_22
REMARK    8  A    between atoms: C_20  and  N_25
REMARK    9  A    between atoms: C_22  and  C_23
REMARK   10  A    between atoms: C_22  and  C_24
REMARK   11  A    between atoms: C_26  and  C_28
REMARK                            x       y       z     vdW  Elec       q    Type
REMARK                         _______ _______ _______ _____ _____    ______ ____
ROOT
ATOM      1  C   UNL     1      -0.617  -3.684  -1.392  0.00  0.00    +0.262 C 
ATOM      2  O   UNL     1      -0.816  -4.805  -0.963  0.00  0.00    -0.269 OA
ATOM      3  N   UNL     1      -0.340  -3.501  -2.698  0.00  0.00    -0.230 N 
ATOM      4  H   UNL     1      -0.181  -2.607  -3.040  0.00  0.00    +0.173 HD
ENDROOT
BRANCH   1   8
ATOM      5  C   UNL     1      -0.492   1.080   0.432  0.00  0.00    +0.064 C 
ATOM      6  C   UNL     1      -0.618  -0.416   0.302  0.00  0.00    +0.022 A 
ATOM      7  C   UNL     1      -0.466  -1.118  -0.835  0.00  0.00    +0.036 A 
ATOM      8  C   UNL     1      -0.678  -2.527  -0.483  0.00  0.00    +0.059 A 
ATOM      9  C   UNL     1      -0.945  -2.549   0.858  0.00  0.00    +0.033 A 
ATOM     10  N   UNL     1      -0.901  -1.282   1.321  0.00  0.00    -0.317 N 
ATOM     11  C   UNL     1      -1.233  -3.778   1.680  0.00  0.00    +0.064 C 
BRANCH  10  12
ATOM     12  C   UNL     1      -1.118  -0.908   2.654  0.00  0.00    +0.047 A 
ATOM     13  C   UNL     1      -0.231  -1.312   3.643  0.00  0.00    +0.026 A 
ATOM     14  C   UNL     1      -0.448  -0.942   4.956  0.00  0.00    +0.002 A 
ATOM     15  C   UNL     1      -1.547  -0.169   5.286  0.00  0.00    +0.000 A 
ATOM     16  C   UNL     1      -2.431   0.235   4.303  0.00  0.00    +0.002 A 
ATOM     17  C   UNL     1      -2.217  -0.128   2.987  0.00  0.00    +0.026 A 
ENDBRANCH  10  12
ENDBRANCH   1   8
BRANCH   3  18
ATOM     18  N   UNL     1      -0.282  -4.602  -3.563  0.00  0.00    -0.233 N 
ATOM     19  C   UNL     1      -0.005  -4.420  -4.869  0.00  0.00    +0.250 C 
ATOM     20  O   UNL     1       0.110  -3.297  -5.313  0.00  0.00    -0.272 OA
ATOM     21  H   UNL     1      -0.441  -5.496  -3.221  0.00  0.00    +0.173 HD
BRANCH  19  22
ATOM     22  C   UNL     1       0.161  -5.610  -5.778  0.00  0.00    +0.163 C 
BRANCH  22  23
ATOM     23  N   UNL     1      -0.203  -5.235  -7.146  0.00  0.00    -0.299 N 
ATOM     24  C   UNL     1      -0.620  -6.177  -8.015  0.00  0.00    +0.251 C 
ATOM     25  O   UNL     1      -0.695  -7.339  -7.663  0.00  0.00    -0.270 OA
ATOM     26  H   UNL     1      -0.143  -4.308  -7.427  0.00  0.00    +0.150 HD
BRANCH  24  27
ATOM     27  C   UNL     1      -0.984  -5.801  -9.384  0.00  0.00    +0.074 A 
ATOM     28  C   UNL     1      -1.437  -6.604 -10.420  0.00  0.00    +0.021 A 
ATOM     29  C   UNL     1      -1.700  -5.959 -11.605  0.00  0.00    +0.008 A 
ATOM     30  C   UNL     1      -1.505  -4.620 -11.683  0.00  0.00    +0.046 A 
ATOM     31  S   UNL     1      -0.967  -4.191 -10.150  0.00  0.00    -0.092 S 
ENDBRANCH  24  27
ENDBRANCH  22  23
BRANCH  22  32
ATOM     32  C   UNL     1       1.618  -6.076  -5.747  0.00  0.00    +0.012 C 
ATOM     33  C   UNL     1       1.983  -6.516  -4.327  0.00  0.00    +0.009 C 
ATOM     34  C   UNL     1       1.798  -7.252  -6.708  0.00  0.00    +0.009 C 
ENDBRANCH  22  32
ENDBRANCH  19  22
ENDBRANCH   3  18
TORSDOF 7
