REMARK  Name = ZINC38672834
REMARK  7 active torsions:
REMARK  status: ('A' for Active; 'I' for Inactive)
REMARK    1  A    between atoms: C_1  and  N_2
REMARK    2  A    between atoms: N_5  and  C_8
REMARK    3  A    between atoms: C_8  and  C_10
REMARK    4  A    between atoms: C_8  and  C_25
REMARK    5  A    between atoms: C_10  and  N_11
REMARK    6  A    between atoms: C_12  and  C_14
REMARK    7  A    between atoms: N_34  and  C_35
REMARK                            x       y       z     vdW  Elec       q    Type
REMARK                         _______ _______ _______ _____ _____    ______ ____
ROOT
ATOM      1  C   UNL     1       1.486  -4.103  -0.171  0.00  0.00    +0.104 C 
ENDROOT
BRANCH   1   2
ATOM      2  C   UNL     1       2.213  -4.654   1.029  0.00  0.00    -0.028 A 
ATOM      3  C   UNL     1       3.388  -4.062   1.456  0.00  0.00    +0.007 A 
ATOM      4  C   UNL     1       4.054  -4.568   2.553  0.00  0.00    +0.024 A 
ATOM      5  C   UNL     1       3.545  -5.672   3.229  0.00  0.00    +0.033 A 
ATOM      6  C   UNL     1       2.366  -6.263   2.802  0.00  0.00    -0.026 A 
ATOM      7  C   UNL     1       1.702  -5.747   1.702  0.00  0.00    +0.010 A 
ATOM      8  C   UNL     1       1.779  -7.452   3.515  0.00  0.00    +0.038 C 
ATOM      9  C   UNL     1       2.851  -8.164   4.341  0.00  0.00    +0.024 C 
ATOM     10  C   UNL     1       3.564  -7.130   5.223  0.00  0.00    +0.105 C 
ATOM     11  N   UNL     1       4.239  -6.172   4.336  0.00  0.00    -0.333 N 
ATOM     12  C   UNL     1       5.615  -5.749   4.607  0.00  0.00    +0.129 C 
ENDBRANCH   1   2
BRANCH   1  17
ATOM     13  C   UNL     1       0.477   1.439  -0.042  0.00  0.00    -0.096 C 
ATOM     14  N   UNL     1       0.373  -0.026  -0.071  0.00  0.00    +0.379 N 
ATOM     15  C   UNL     1       1.015  -0.537  -1.290  0.00  0.00    -0.064 C 
ATOM     16  C   UNL     1       0.891  -2.062  -1.331  0.00  0.00    +0.066 C 
ATOM     17  N   UNL     1       1.534  -2.635  -0.140  0.00  0.00    -0.297 NA
ATOM     18  C   UNL     1       0.919  -2.113   1.088  0.00  0.00    +0.066 C 
ATOM     19  C   UNL     1       1.043  -0.588   1.109  0.00  0.00    -0.064 C 
ATOM     20  H   UNL     1      -0.599  -0.294  -0.066  0.00  0.00    -0.082 HD
ENDBRANCH   1  17
BRANCH   1  21
ATOM     21  C   UNL     1       2.156  -4.609  -1.450  0.00  0.00    +0.128 C 
BRANCH  21  22
ATOM     22  N   UNL     1       2.036  -6.067  -1.520  0.00  0.00    -0.310 N 
ATOM     23  C   UNL     1       2.654  -6.747  -2.506  0.00  0.00    +0.257 C 
ATOM     24  O   UNL     1       3.309  -6.152  -3.335  0.00  0.00    -0.272 OA
ATOM     25  H   UNL     1       1.512  -6.543  -0.857  0.00  0.00    +0.149 HD
BRANCH  23  26
ATOM     26  C   UNL     1       2.530  -8.247  -2.578  0.00  0.00    +0.296 C 
ATOM     27  C   UNL     1       3.213  -8.882  -1.359  0.00  0.00    +0.283 C 
ATOM     28  O   UNL     1       3.090 -10.304  -1.466  0.00  0.00    -0.484 OA
ATOM     29  C   UNL     1       3.378 -10.854  -2.678  0.00  0.00    +0.162 A 
ATOM     30  C   UNL     1       3.633 -12.214  -2.765  0.00  0.00    +0.049 A 
ATOM     31  C   UNL     1       3.924 -12.787  -3.989  0.00  0.00    +0.004 A 
ATOM     32  C   UNL     1       3.962 -12.006  -5.129  0.00  0.00    +0.004 A 
ATOM     33  C   UNL     1       3.711 -10.649  -5.048  0.00  0.00    +0.049 A 
ATOM     34  C   UNL     1       3.419 -10.068  -3.823  0.00  0.00    +0.163 A 
ATOM     35  O   UNL     1       3.181  -8.729  -3.759  0.00  0.00    -0.473 OA
ENDBRANCH  23  26
ENDBRANCH  21  22
ENDBRANCH   1  21
TORSDOF 5
