REMARK  Name = ZINC44357063
REMARK  6 active torsions:
REMARK  status: ('A' for Active; 'I' for Inactive)
REMARK    1  A    between atoms: C_1  and  C_2
REMARK    2  A    between atoms: C_9  and  N_14
REMARK    3  A    between atoms: C_10  and  C_11
REMARK    4  A    between atoms: C_15  and  C_17
REMARK    5  A    between atoms: N_22  and  S_23
REMARK    6  A    between atoms: S_23  and  C_26
REMARK                            x       y       z     vdW  Elec       q    Type
REMARK                         _______ _______ _______ _____ _____    ______ ____
ROOT
ATOM      1  C   UNL     1      -0.019   1.526   0.010  0.00  0.00    +0.008 C 
ATOM      2  C   UNL     1       0.002  -0.004   0.002  0.00  0.00    -0.009 C 
ATOM      3  C   UNL     1       0.724  -0.500  -1.254  0.00  0.00    +0.008 C 
ATOM      4  C   UNL     1       0.537  -2.012  -1.399  0.00  0.00    +0.037 C 
ATOM      5  C   UNL     1       0.935  -2.680  -0.091  0.00  0.00    -0.023 A 
ATOM      6  C   UNL     1       1.019  -1.977   1.059  0.00  0.00    -0.004 A 
ATOM      7  S   UNL     1       1.508  -3.164   2.276  0.00  0.00    -0.077 S 
ATOM      8  C   UNL     1       1.599  -4.539   1.315  0.00  0.00    +0.084 A 
ATOM      9  C   UNL     1       1.254  -4.090   0.050  0.00  0.00    +0.068 A 
ATOM     10  C   UNL     1       0.750  -0.515   1.242  0.00  0.00    +0.046 C 
ENDROOT
BRANCH   9  11
ATOM     11  C   UNL     1       1.212  -5.001  -1.099  0.00  0.00    +0.244 C 
ATOM     12  O   UNL     1       2.208  -5.170  -1.778  0.00  0.00    -0.270 OA
ATOM     13  N   UNL     1       0.071  -5.651  -1.402  0.00  0.00    -0.325 N 
ATOM     14  H   UNL     1      -0.722  -5.516  -0.860  0.00  0.00    +0.145 HD
ATOM     15  H   UNL     1       0.043  -6.254  -2.161  0.00  0.00    +0.145 HD
ENDBRANCH   9  11
BRANCH   8  16
ATOM     16  N   UNL     1       1.942  -5.826   1.699  0.00  0.00    -0.278 N 
ATOM     17  C   UNL     1       2.253  -6.086   2.984  0.00  0.00    +0.236 C 
ATOM     18  O   UNL     1       2.232  -5.193   3.805  0.00  0.00    -0.274 OA
ATOM     19  H   UNL     1       1.959  -6.540   1.042  0.00  0.00    +0.155 HD
BRANCH  17  20
ATOM     20  C   UNL     1       2.626  -7.485   3.402  0.00  0.00    +0.165 C 
ATOM     21  C   UNL     1       3.899  -7.934   2.654  0.00  0.00    +0.031 C 
ATOM     22  C   UNL     1       5.025  -7.647   3.683  0.00  0.00    +0.019 C 
ATOM     23  C   UNL     1       4.317  -7.981   5.020  0.00  0.00    +0.110 C 
ATOM     24  N   UNL     1       2.927  -7.514   4.841  0.00  0.00    -0.170 NA
BRANCH  24  25
ATOM     25  S   UNL     1       1.883  -7.091   6.054  0.00  0.00    +0.030 S 
ATOM     26  O   UNL     1       2.720  -6.686   7.128  0.00  0.00    -0.158 OA
ATOM     27  O   UNL     1       0.980  -6.174   5.453  0.00  0.00    -0.158 OA
ATOM     28  C   UNL     1       1.019  -8.628   6.482  0.00  0.00    +0.215 C 
ENDBRANCH  24  25
ENDBRANCH  17  20
ENDBRANCH   8  16
TORSDOF 4
