REMARK  Name = ZINC48342986
REMARK  3 active torsions:
REMARK  status: ('A' for Active; 'I' for Inactive)
REMARK    1  A    between atoms: C_3  and  C_7
REMARK    2  A    between atoms: C_13  and  C_15
REMARK    3  A    between atoms: C_18  and  N_22
REMARK                            x       y       z     vdW  Elec       q    Type
REMARK                         _______ _______ _______ _____ _____    ______ ____
ROOT
ATOM      1  C   UNL     1       3.617   0.686  -0.033  0.00  0.00    +0.123 C 
ATOM      2  C   UNL     1       4.188   0.656   1.400  0.00  0.00    +0.030 C 
ATOM      3  C   UNL     1       5.437  -0.253   1.258  0.00  0.00    +0.021 C 
ATOM      4  C   UNL     1       4.953  -1.284   0.208  0.00  0.00    +0.109 C 
ATOM      5  N   UNL     1       4.121  -0.505  -0.732  0.00  0.00    -0.289 N 
ATOM      6  C   UNL     1       3.865  -0.830  -2.015  0.00  0.00    +0.249 C 
ATOM      7  O   UNL     1       3.104  -0.148  -2.674  0.00  0.00    -0.270 OA
ENDROOT
BRANCH   6   8
ATOM      8  C   UNL     1       4.508  -2.015  -2.619  0.00  0.00    +0.055 A 
ATOM      9  C   UNL     1       4.724  -3.163  -1.854  0.00  0.00    +0.017 A 
ATOM     10  C   UNL     1       5.324  -4.265  -2.425  0.00  0.00    +0.033 A 
ATOM     11  C   UNL     1       5.713  -4.237  -3.753  0.00  0.00    +0.128 A 
ATOM     12  C   UNL     1       5.503  -3.104  -4.518  0.00  0.00    +0.053 A 
ATOM     13  C   UNL     1       4.897  -1.994  -3.961  0.00  0.00    +0.055 A 
ATOM     14 CL   UNL     1       4.628  -0.575  -4.924  0.00  0.00    -0.083 Cl
BRANCH  11  15
ATOM     15  N   UNL     1       6.357  -5.425  -4.357  0.00  0.00    +0.056 N 
ATOM     16  O   UNL     1       6.543  -6.416  -3.691  0.00  0.00    -0.126 OA
ATOM     17  O   UNL     1       6.698  -5.403  -5.517  0.00  0.00    -0.126 OA
ENDBRANCH  11  15
ENDBRANCH   6   8
BRANCH   1  20
ATOM     18  C   UNL     1      -0.028   1.252   0.082  0.00  0.00    +0.019 A 
ATOM     19  C   UNL     1       1.297   1.728   0.039  0.00  0.00    +0.024 A 
ATOM     20  C   UNL     1       2.111   0.653   0.015  0.00  0.00    +0.037 A 
ATOM     21  N   UNL     1       1.337  -0.469   0.041  0.00  0.00    -0.363 N 
ATOM     22  H   UNL     1       1.664  -1.382   0.031  0.00  0.00    +0.165 HD
ATOM     23  C   UNL     1       0.026  -0.095   0.081  0.00  0.00    +0.083 A 
ENDBRANCH   1  20
TORSDOF 3
