REMARK  Name = ZINC36540167
REMARK  13 active torsions:
REMARK  status: ('A' for Active; 'I' for Inactive)
REMARK    1  A    between atoms: C_1  and  C_2
REMARK    2  A    between atoms: C_2  and  C_3
REMARK    3  A    between atoms: N_5  and  C_6
REMARK    4  A    between atoms: N_5  and  C_7
REMARK    5  A    between atoms: C_7  and  C_9
REMARK    6  A    between atoms: C_7  and  C_18
REMARK    7  A    between atoms: C_12  and  N_15
REMARK    8  A    between atoms: N_15  and  C_16
REMARK    9  A    between atoms: N_15  and  C_17
REMARK   10  A    between atoms: N_20  and  C_21
REMARK   11  A    between atoms: C_21  and  C_22
REMARK   12  A    between atoms: C_21  and  C_23
REMARK   13  A    between atoms: C_21  and  C_24
REMARK                            x       y       z     vdW  Elec       q    Type
REMARK                         _______ _______ _______ _____ _____    ______ ____
ROOT
ATOM      1  C   UNL     1      -3.086  -2.291   0.013  0.00  0.00    +0.192 C 
ENDROOT
BRANCH   1   2
ATOM      2  C   UNL     1      -3.799  -1.755   1.227  0.00  0.00    -0.018 A 
ATOM      3  C   UNL     1      -3.474  -0.506   1.723  0.00  0.00    +0.008 A 
ATOM      4  C   UNL     1      -4.125  -0.012   2.836  0.00  0.00    +0.023 A 
ATOM      5  C   UNL     1      -5.109  -0.772   3.457  0.00  0.00    +0.029 A 
ATOM      6  C   UNL     1      -5.433  -2.026   2.956  0.00  0.00    +0.023 A 
ATOM      7  C   UNL     1      -4.781  -2.512   1.839  0.00  0.00    +0.008 A 
BRANCH   5   8
ATOM      8  N   UNL     1      -5.770  -0.276   4.583  0.00  0.00    -0.336 N 
ATOM      9  C   UNL     1      -5.426   1.047   5.111  0.00  0.00    +0.129 C 
ATOM     10  C   UNL     1      -6.807  -1.078   5.237  0.00  0.00    +0.129 C 
ENDBRANCH   5   8
ENDBRANCH   1   2
BRANCH   1  13
ATOM     11  C   UNL     1      -0.811  -2.871  -0.642  0.00  0.00    +0.216 C 
ATOM     12  O   UNL     1      -1.259  -3.370  -1.653  0.00  0.00    -0.276 OA
ATOM     13  N   UNL     1      -1.645  -2.345   0.276  0.00  0.00    -0.289 N 
ATOM     14  C   UNL     1      -1.112  -1.826   1.538  0.00  0.00    +0.133 C 
BRANCH  11  16
ATOM     15  C   UNL     1       1.389  -3.498  -1.597  0.00  0.00    +0.013 C 
ATOM     16  C   UNL     1       0.678  -2.841  -0.413  0.00  0.00    +0.092 C 
ENDBRANCH  11  16
ENDBRANCH   1  13
BRANCH   1  17
ATOM     17  C   UNL     1      -3.347  -1.386  -1.164  0.00  0.00    +0.238 C 
ATOM     18  O   UNL     1      -2.515  -0.570  -1.498  0.00  0.00    -0.273 OA
ATOM     19  N   UNL     1      -4.507  -1.483  -1.843  0.00  0.00    -0.309 N 
ATOM     20  H   UNL     1      -5.173  -2.135  -1.576  0.00  0.00    +0.149 HD
BRANCH  19  21
ATOM     21  C   UNL     1      -4.762  -0.603  -2.987  0.00  0.00    +0.026 C 
ATOM     22  C   UNL     1      -3.688  -0.829  -4.053  0.00  0.00    +0.031 C 
ATOM     23  C   UNL     1      -6.139  -0.917  -3.575  0.00  0.00    +0.031 C 
ATOM     24  C   UNL     1      -4.724   0.855  -2.526  0.00  0.00    +0.031 C 
ENDBRANCH  19  21
ENDBRANCH   1  17
TORSDOF 6
