REMARK  Name = ZINC13712383
REMARK  8 active torsions:
REMARK  status: ('A' for Active; 'I' for Inactive)
REMARK    1  A    between atoms: C_1  and  C_2
REMARK    2  A    between atoms: C_7  and  N_8
REMARK    3  A    between atoms: C_9  and  O_35
REMARK    4  A    between atoms: C_10  and  C_23
REMARK    5  A    between atoms: N_13  and  C_16
REMARK    6  A    between atoms: C_21  and  C_22
REMARK    7  A    between atoms: C_29  and  C_32
REMARK    8  A    between atoms: C_30  and  O_31
REMARK                            x       y       z     vdW  Elec       q    Type
REMARK                         _______ _______ _______ _____ _____    ______ ____
ROOT
ATOM      1  N   UNL     1       1.127   5.506  -1.176  0.00  0.00    -0.259 N 
ATOM      2  C   UNL     1       1.130   6.220  -0.003  0.00  0.00    +0.211 A 
ATOM      3  C   UNL     1       1.148   5.555   1.187  0.00  0.00    +0.110 A 
ATOM      4  C   UNL     1       1.159   4.149   1.183  0.00  0.00    +0.269 A 
ATOM      5  O   UNL     1       1.172   3.533   2.235  0.00  0.00    -0.267 OA
ATOM      6  N   UNL     1       1.161   3.487   0.010  0.00  0.00    -0.256 N 
ATOM      7  C   UNL     1       1.143   4.161  -1.155  0.00  0.00    +0.175 A 
ATOM      8  S   UNL     1       1.139   3.293  -2.631  0.00  0.00    -0.012 S 
ENDROOT
BRANCH   3   9
ATOM      9  C   UNL     1       1.151   6.316   2.487  0.00  0.00    +0.193 C 
ATOM     10  C   UNL     1       2.422   6.038   3.249  0.00  0.00    +0.036 A 
ATOM     11  C   UNL     1       2.074   5.841   4.579  0.00  0.00    +0.006 A 
ATOM     12  C   UNL     1       3.062   5.567   5.500  0.00  0.00    +0.117 A 
ATOM     13  N   UNL     1       4.327   5.491   5.127  0.00  0.00    -0.256 NA
ATOM     14  C   UNL     1       4.697   5.672   3.875  0.00  0.00    +0.080 A 
ATOM     15  C   UNL     1       3.757   5.952   2.890  0.00  0.00    +0.144 A 
ATOM     16  C   UNL     1       6.155   5.574   3.507  0.00  0.00    +0.069 C 
ATOM     17  C   UNL     1       0.576   5.993   4.675  0.00  0.00    +0.198 C 
ATOM     18  O   UNL     1       0.076   5.861   3.331  0.00  0.00    -0.362 OA
BRANCH  15  19
ATOM     19  O   UNL     1       4.140   6.138   1.599  0.00  0.00    -0.505 OA
ATOM     20  H   UNL     1       4.154   5.327   1.073  0.00  0.00    +0.292 HD
ENDBRANCH  15  19
ENDBRANCH   3   9
BRANCH   1  27
ATOM     21  C   UNL     1       3.617   6.184  -2.378  0.00  0.00    +0.046 C 
ATOM     22  C   UNL     1       2.300   6.532  -3.023  0.00  0.00    -0.026 A 
ATOM     23  C   UNL     1       2.278   7.198  -4.233  0.00  0.00    +0.005 A 
ATOM     24  C   UNL     1       1.070   7.517  -4.826  0.00  0.00    +0.000 A 
ATOM     25  C   UNL     1      -0.119   7.170  -4.211  0.00  0.00    +0.002 A 
ATOM     26  C   UNL     1      -0.103   6.500  -3.004  0.00  0.00    +0.026 A 
ATOM     27  C   UNL     1       1.108   6.182  -2.403  0.00  0.00    +0.055 A 
ENDBRANCH   1  27
BRANCH   6  28
ATOM     28  C   UNL     1       1.177   2.086   0.002  0.00  0.00    +0.055 A 
ATOM     29  C   UNL     1       2.386   1.404  -0.014  0.00  0.00    +0.026 A 
ATOM     30  C   UNL     1       2.399   0.023  -0.022  0.00  0.00    +0.002 A 
ATOM     31  C   UNL     1       1.208  -0.680  -0.014  0.00  0.00    +0.000 A 
ATOM     32  C   UNL     1       0.002  -0.004   0.002  0.00  0.00    +0.005 A 
ATOM     33  C   UNL     1      -0.017   1.377   0.010  0.00  0.00    -0.026 A 
ATOM     34  C   UNL     1      -1.331   2.114   0.020  0.00  0.00    +0.046 C 
ENDBRANCH   6  28
BRANCH   2  35
ATOM     35  O   UNL     1       1.114   7.570  -0.029  0.00  0.00    -0.493 OA
ATOM     36  H   UNL     1       1.102   7.947  -0.919  0.00  0.00    +0.294 HD
ENDBRANCH   2  35
TORSDOF 5
