REMARK  Name = ZINC08910769
REMARK  8 active torsions:
REMARK  status: ('A' for Active; 'I' for Inactive)
REMARK    1  A    between atoms: C_1  and  C_2
REMARK    2  A    between atoms: C_5  and  C_8
REMARK    3  A    between atoms: N_10  and  C_11
REMARK    4  A    between atoms: C_12  and  N_33
REMARK    5  A    between atoms: C_14  and  S_19
REMARK    6  A    between atoms: S_19  and  C_20
REMARK    7  A    between atoms: C_20  and  C_21
REMARK    8  A    between atoms: C_20  and  C_27
REMARK                            x       y       z     vdW  Elec       q    Type
REMARK                         _______ _______ _______ _____ _____    ______ ____
ROOT
ATOM      1  C   UNL     1       1.814  -2.550  -4.434  0.00  0.00    +0.139 A 
ATOM      2  C   UNL     1       1.459  -2.083  -3.173  0.00  0.00    +0.146 A 
ATOM      3  N   UNL     1       2.389  -1.530  -2.385  0.00  0.00    -0.207 NA
ATOM      4  C   UNL     1       3.639  -1.418  -2.781  0.00  0.00    +0.172 A 
ATOM      5  N   UNL     1       4.038  -1.854  -4.008  0.00  0.00    -0.300 N 
ATOM      6  H   UNL     1       4.965  -1.756  -4.278  0.00  0.00    +0.171 HD
ATOM      7  C   UNL     1       3.149  -2.426  -4.846  0.00  0.00    +0.275 A 
ATOM      8  O   UNL     1       3.499  -2.824  -5.947  0.00  0.00    -0.266 OA
ENDROOT
BRANCH   1  11
ATOM      9  C   UNL     1       0.625  -2.617  -6.503  0.00  0.00    +0.248 C 
ATOM     10  O   UNL     1       1.183  -1.591  -6.841  0.00  0.00    -0.270 OA
ATOM     11  N   UNL     1       0.853  -3.136  -5.280  0.00  0.00    -0.274 N 
ATOM     12  H   UNL     1       0.354  -3.913  -4.982  0.00  0.00    +0.155 HD
BRANCH   9  17
ATOM     13  C   UNL     1      -2.990  -5.255 -10.120  0.00  0.00    +0.044 C 
ATOM     14  C   UNL     1      -2.044  -4.564  -9.173  0.00  0.00    -0.050 A 
ATOM     15  C   UNL     1      -1.410  -3.397  -9.561  0.00  0.00    +0.004 A 
ATOM     16  C   UNL     1      -0.542  -2.760  -8.699  0.00  0.00    +0.013 A 
ATOM     17  C   UNL     1      -0.304  -3.295  -7.432  0.00  0.00    +0.037 A 
ATOM     18  C   UNL     1      -0.942  -4.475  -7.048  0.00  0.00    +0.013 A 
ATOM     19  C   UNL     1      -1.812  -5.099  -7.918  0.00  0.00    +0.004 A 
ENDBRANCH   9  17
ENDBRANCH   1  11
BRANCH   2  20
ATOM     20  N   UNL     1       0.152  -2.189  -2.735  0.00  0.00    -0.341 N 
ATOM     21  H   UNL     1      -0.093  -1.863  -1.855  0.00  0.00    +0.144 HD
ATOM     22  H   UNL     1      -0.520  -2.591  -3.308  0.00  0.00    +0.144 HD
ENDBRANCH   2  20
BRANCH   4  23
ATOM     23  S   UNL     1       4.821  -0.681  -1.702  0.00  0.00    -0.075 S 
BRANCH  23  24
ATOM     24  C   UNL     1       3.761  -0.306  -0.283  0.00  0.00    +0.114 C 
BRANCH  24  25
ATOM     25  C   UNL     1       2.734   0.722  -0.682  0.00  0.00    -0.030 A 
ATOM     26  C   UNL     1       1.395   0.497  -0.423  0.00  0.00    +0.005 A 
ATOM     27  C   UNL     1       0.452   1.439  -0.789  0.00  0.00    +0.000 A 
ATOM     28  C   UNL     1       0.848   2.606  -1.414  0.00  0.00    +0.000 A 
ATOM     29  C   UNL     1       2.187   2.832  -1.673  0.00  0.00    +0.000 A 
ATOM     30  C   UNL     1       3.130   1.889  -1.308  0.00  0.00    +0.005 A 
ENDBRANCH  24  25
BRANCH  24  31
ATOM     31  C   UNL     1       4.603   0.237   0.843  0.00  0.00    -0.030 A 
ATOM     32  C   UNL     1       5.472   1.286   0.613  0.00  0.00    +0.005 A 
ATOM     33  C   UNL     1       6.240   1.787   1.647  0.00  0.00    +0.000 A 
ATOM     34  C   UNL     1       6.147   1.231   2.910  0.00  0.00    +0.000 A 
ATOM     35  C   UNL     1       5.282   0.178   3.139  0.00  0.00    +0.000 A 
ATOM     36  C   UNL     1       4.510  -0.320   2.105  0.00  0.00    +0.005 A 
ENDBRANCH  24  31
ENDBRANCH  23  24
ENDBRANCH   4  23
TORSDOF 7
