REMARK  Name = ZINC39771556
REMARK  6 active torsions:
REMARK  status: ('A' for Active; 'I' for Inactive)
REMARK    1  A    between atoms: C_1  and  C_2
REMARK    2  A    between atoms: C_6  and  C_7
REMARK    3  A    between atoms: N_9  and  C_10
REMARK    4  A    between atoms: C_13  and  N_16
REMARK    5  A    between atoms: C_20  and  C_24
REMARK    6  A    between atoms: C_20  and  C_25
REMARK                            x       y       z     vdW  Elec       q    Type
REMARK                         _______ _______ _______ _____ _____    ______ ____
ROOT
ATOM      1  C   UNL     1      -0.014   1.502   0.010  0.00  0.00    +0.048 C 
ATOM      2  C   UNL     1      -0.004  -0.005   0.002  0.00  0.00    +0.011 A 
ATOM      3  C   UNL     1      -0.007  -0.841  -1.125  0.00  0.00    +0.062 A 
ATOM      4  C   UNL     1       0.004  -2.152  -0.662  0.00  0.00    +0.117 A 
ATOM      5  O   UNL     1       0.018  -2.114   0.664  0.00  0.00    -0.454 OA
ATOM      6  C   UNL     1       0.018  -0.830   1.089  0.00  0.00    +0.193 A 
ATOM      7  C   UNL     1      -0.003  -3.345  -1.584  0.00  0.00    +0.082 C 
ATOM      8  C   UNL     1      -0.526  -2.917  -2.958  0.00  0.00    -0.021 C 
ATOM      9  C   UNL     1       0.254  -1.707  -3.482  0.00  0.00    +0.086 C 
ATOM     10  C   UNL     1      -0.018  -0.527  -2.562  0.00  0.00    +0.167 C 
ATOM     11  O   UNL     1      -0.227   0.592  -2.982  0.00  0.00    -0.292 OA
ATOM     12  C   UNL     1      -2.007  -2.551  -2.843  0.00  0.00    +0.012 C 
ATOM     13  C   UNL     1      -0.370  -4.080  -3.940  0.00  0.00    +0.012 C 
ENDROOT
BRANCH   6  14
ATOM     14  C   UNL     1       0.033  -0.395   2.490  0.00  0.00    +0.284 C 
ATOM     15  O   UNL     1       0.028   0.792   2.759  0.00  0.00    -0.266 OA
ATOM     16  N   UNL     1       0.054  -1.309   3.480  0.00  0.00    -0.279 N 
ATOM     17  H   UNL     1      -0.010  -2.254   3.269  0.00  0.00    +0.155 HD
BRANCH  16  18
ATOM     18  C   UNL     1       0.166  -0.897   4.811  0.00  0.00    +0.034 A 
ATOM     19  C   UNL     1       0.887  -1.663   5.719  0.00  0.00    +0.025 A 
ATOM     20  C   UNL     1       0.996  -1.253   7.033  0.00  0.00    +0.034 A 
ATOM     21  C   UNL     1       0.389  -0.081   7.446  0.00  0.00    +0.126 A 
ATOM     22  C   UNL     1      -0.330   0.683   6.545  0.00  0.00    +0.034 A 
ATOM     23  C   UNL     1      -0.438   0.282   5.228  0.00  0.00    +0.025 A 
BRANCH  21  24
ATOM     24  N   UNL     1       0.507   0.355   8.855  0.00  0.00    +0.056 N 
ATOM     25  O   UNL     1       1.135  -0.312   9.644  0.00  0.00    -0.126 OA
ATOM     26  O   UNL     1      -0.023   1.379   9.218  0.00  0.00    -0.126 OA
ENDBRANCH  21  24
ENDBRANCH  16  18
ENDBRANCH   6  14
TORSDOF 3
