REMARK  Name = ZINC64166614
REMARK  4 active torsions:
REMARK  status: ('A' for Active; 'I' for Inactive)
REMARK    1  A    between atoms: C_1  and  C_2
REMARK    2  A    between atoms: C_7  and  C_12
REMARK    3  A    between atoms: C_18  and  C_20
REMARK    4  A    between atoms: N_26  and  C_28
REMARK                            x       y       z     vdW  Elec       q    Type
REMARK                         _______ _______ _______ _____ _____    ______ ____
ROOT
ATOM      1  C   UNL     1      -0.046  -5.739   1.822  0.00  0.00    +0.035 C 
ATOM      2  C   UNL     1       0.201  -5.795   3.331  0.00  0.00    +0.026 C 
ATOM      3  C   UNL     1       1.666  -6.160   3.591  0.00  0.00    +0.108 C 
ATOM      4  N   UNL     1       1.976  -7.409   2.882  0.00  0.00    -0.301 N 
ATOM      5  C   UNL     1       1.691  -7.493   1.443  0.00  0.00    +0.108 C 
ATOM      6  C   UNL     1       0.226  -7.113   1.207  0.00  0.00    +0.026 C 
ATOM      7  C   UNL     1       2.511  -8.457   3.538  0.00  0.00    +0.220 C 
ATOM      8  O   UNL     1       2.818  -8.348   4.707  0.00  0.00    -0.275 OA
ENDROOT
BRANCH   1  15
ATOM      9  C   UNL     1      -3.215   0.171  -0.206  0.00  0.00    +0.044 C 
ATOM     10  C   UNL     1      -2.824  -1.284  -0.150  0.00  0.00    -0.048 A 
ATOM     11  C   UNL     1      -2.809  -2.025  -1.345  0.00  0.00    +0.005 A 
ATOM     12  C   UNL     1      -2.472  -3.330  -1.386  0.00  0.00    +0.027 A 
ATOM     13  C   UNL     1      -2.103  -4.023  -0.144  0.00  0.00    +0.060 A 
ATOM     14  N   UNL     1      -1.742  -5.247   0.113  0.00  0.00    -0.363 N 
ATOM     15  C   UNL     1      -1.500  -5.341   1.558  0.00  0.00    +0.177 C 
ATOM     16  N   UNL     1      -1.767  -4.007   2.110  0.00  0.00    -0.363 N 
ATOM     17  C   UNL     1      -2.118  -3.238   1.121  0.00  0.00    +0.060 A 
ATOM     18  C   UNL     1      -2.497  -1.820   1.043  0.00  0.00    +0.030 A 
ATOM     19  H   UNL     1      -1.651  -5.966  -0.532  0.00  0.00    +0.162 HD
ATOM     20  H   UNL     1      -1.695  -3.746   3.042  0.00  0.00    +0.162 HD
ENDBRANCH   1  15
BRANCH   7  21
ATOM     21  C   UNL     1       2.729  -9.764   2.821  0.00  0.00    +0.093 C 
ATOM     22  C   UNL     1       4.065  -9.722   2.069  0.00  0.00    +0.023 C 
ATOM     23  C   UNL     1       4.174 -10.982   1.207  0.00  0.00    +0.097 C 
ATOM     24  C   UNL     1       3.850 -12.195   2.031  0.00  0.00    +0.216 C 
ATOM     25  O   UNL     1       4.194 -13.281   1.615  0.00  0.00    -0.276 OA
ATOM     26  N   UNL     1       3.204 -12.142   3.196  0.00  0.00    -0.298 N 
ATOM     27  C   UNL     1       2.770 -10.906   3.837  0.00  0.00    +0.120 C 
BRANCH  26  28
ATOM     28  C   UNL     1       2.908 -13.406   3.875  0.00  0.00    +0.076 C 
ATOM     29  C   UNL     1       2.105 -13.338   5.176  0.00  0.00    +0.024 C 
ATOM     30  C   UNL     1       3.599 -13.667   5.215  0.00  0.00    +0.024 C 
ENDBRANCH  26  28
ENDBRANCH   7  21
TORSDOF 3
