REMARK  Name = ZINC26458158
REMARK  9 active torsions:
REMARK  status: ('A' for Active; 'I' for Inactive)
REMARK    1  A    between atoms: C_1  and  C_2
REMARK    2  A    between atoms: C_5  and  N_29
REMARK    3  A    between atoms: C_6  and  N_9
REMARK    4  A    between atoms: C_7  and  C_8
REMARK    5  A    between atoms: C_10  and  C_12
REMARK    6  A    between atoms: C_12  and  C_14
REMARK    7  A    between atoms: C_12  and  N_15
REMARK    8  A    between atoms: N_18  and  C_21
REMARK    9  A    between atoms: C_21  and  C_22
REMARK                            x       y       z     vdW  Elec       q    Type
REMARK                         _______ _______ _______ _____ _____    ______ ____
ROOT
ATOM      1  C   UNL     1      -4.816   1.167  -1.319  0.00  0.00    +0.017 C 
ATOM      2  C   UNL     1      -4.323   2.110  -2.420  0.00  0.00    -0.004 C 
ENDROOT
BRANCH   1   3
ATOM      3  N   UNL     1      -6.259   1.360  -1.120  0.00  0.00    +0.389 N 
ATOM      4  C   UNL     1      -7.029   0.726  -2.200  0.00  0.00    -0.062 C 
ATOM      5  C   UNL     1      -8.525   0.880  -1.915  0.00  0.00    +0.066 C 
ATOM      6  N   UNL     1      -8.855   2.307  -1.804  0.00  0.00    -0.302 NA
ATOM      7  C   UNL     1      -8.086   2.941  -0.725  0.00  0.00    +0.066 C 
ATOM      8  C   UNL     1      -6.590   2.787  -1.010  0.00  0.00    -0.062 C 
ATOM      9  H   UNL     1      -6.537   0.873  -0.174  0.00  0.00    -0.081 HD
BRANCH   6  10
ATOM     10  C   UNL     1     -10.298   2.500  -1.605  0.00  0.00    +0.119 C 
BRANCH  10  11
ATOM     11  C   UNL     1     -11.039   2.058  -2.841  0.00  0.00    -0.033 A 
ATOM     12  C   UNL     1     -11.297   2.964  -3.853  0.00  0.00    +0.006 A 
ATOM     13  C   UNL     1     -11.972   2.558  -4.989  0.00  0.00    +0.020 A 
ATOM     14  C   UNL     1     -12.398   1.247  -5.109  0.00  0.00    +0.041 A 
ATOM     15  C   UNL     1     -12.144   0.342  -4.093  0.00  0.00    +0.020 A 
ATOM     16  C   UNL     1     -11.464   0.748  -2.960  0.00  0.00    +0.006 A 
ATOM     17 CL   UNL     1     -13.251   0.738  -6.532  0.00  0.00    -0.084 Cl
ENDBRANCH  10  11
ENDBRANCH   6  10
ENDBRANCH   1   3
BRANCH   1  19
ATOM     18  N   UNL     1      -2.798   1.107   0.109  0.00  0.00    -0.285 N 
ATOM     19  C   UNL     1      -4.088   1.470  -0.035  0.00  0.00    +0.203 C 
ATOM     20  O   UNL     1      -4.662   2.039   0.869  0.00  0.00    -0.277 OA
ATOM     21  H   UNL     1      -2.303   0.512  -0.673  0.00  0.00    +0.155 HD
BRANCH  18  27
ATOM     22  C   UNL     1      -2.359   1.127   5.005  0.00  0.00    +0.044 C 
ATOM     23  C   UNL     1      -1.852   1.510   3.639  0.00  0.00    -0.046 A 
ATOM     24  C   UNL     1      -0.680   2.234   3.515  0.00  0.00    +0.006 A 
ATOM     25  C   UNL     1      -0.212   2.587   2.263  0.00  0.00    +0.035 A 
ATOM     26  C   UNL     1      -0.913   2.218   1.132  0.00  0.00    +0.148 A 
ATOM     27  C   UNL     1      -2.087   1.487   1.253  0.00  0.00    +0.067 A 
ATOM     28  C   UNL     1      -2.558   1.138   2.512  0.00  0.00    -0.024 A 
ATOM     29  C   UNL     1      -3.836   0.350   2.648  0.00  0.00    +0.046 C 
BRANCH  26  30
ATOM     30  N   UNL     1      -0.411   2.597  -0.208  0.00  0.00    +0.058 N 
ATOM     31  O   UNL     1       0.666   3.154  -0.319  0.00  0.00    -0.126 OA
ATOM     32  O   UNL     1      -1.075   2.351  -1.199  0.00  0.00    -0.126 OA
ENDBRANCH  26  30
ENDBRANCH  18  27
ENDBRANCH   1  19
TORSDOF 6
