REMARK  Name = ZINC08764779
REMARK  8 active torsions:
REMARK  status: ('A' for Active; 'I' for Inactive)
REMARK    1  A    between atoms: C_1  and  C_2
REMARK    2  A    between atoms: C_6  and  O_27
REMARK    3  A    between atoms: C_7  and  C_26
REMARK    4  A    between atoms: C_12  and  C_13
REMARK    5  A    between atoms: C_13  and  C_14
REMARK    6  A    between atoms: O_27  and  C_28
REMARK    7  A    between atoms: C_28  and  C_29
REMARK    8  A    between atoms: C_29  and  C_31
REMARK                            x       y       z     vdW  Elec       q    Type
REMARK                         _______ _______ _______ _____ _____    ______ ____
ROOT
ATOM      1  C   UNL     1       0.011   1.491   0.253  0.00  0.00    +0.045 C 
ATOM      2  C   UNL     1       0.016  -0.009   0.116  0.00  0.00    -0.029 A 
ATOM      3  C   UNL     1      -1.226  -0.778   0.223  0.00  0.00    +0.021 A 
ATOM      4  C   UNL     1      -2.450  -0.141   0.454  0.00  0.00    +0.015 A 
ATOM      5  C   UNL     1      -3.593  -0.881   0.548  0.00  0.00    +0.047 A 
ATOM      6  C   UNL     1      -3.548  -2.268   0.416  0.00  0.00    +0.127 A 
ATOM      7  C   UNL     1      -2.345  -2.915   0.187  0.00  0.00    +0.034 A 
ATOM      8  C   UNL     1      -1.174  -2.178   0.088  0.00  0.00    +0.146 A 
ATOM      9  O   UNL     1       0.009  -2.789  -0.135  0.00  0.00    -0.422 OA
ATOM     10  C   UNL     1       1.151  -2.090  -0.234  0.00  0.00    +0.341 A 
ATOM     11  O   UNL     1       2.194  -2.684  -0.436  0.00  0.00    -0.245 OA
ATOM     12  C   UNL     1       1.172  -0.685  -0.114  0.00  0.00    +0.049 A 
ATOM     13  C   UNL     1      -2.308  -4.415   0.046  0.00  0.00    +0.051 C 
ENDROOT
BRANCH  12  14
ATOM     14  C   UNL     1       2.473   0.064  -0.238  0.00  0.00    +0.138 C 
BRANCH  14  15
ATOM     15  C   UNL     1       3.164   0.094   1.101  0.00  0.00    +0.220 C 
ATOM     16  O   UNL     1       2.651  -0.441   2.061  0.00  0.00    -0.275 OA
ATOM     17  N   UNL     1       4.354   0.714   1.232  0.00  0.00    -0.295 N 
ATOM     18  C   UNL     1       5.046   0.749   2.529  0.00  0.00    +0.114 C 
ATOM     19  C   UNL     1       6.366  -0.024   2.413  0.00  0.00    +0.074 C 
ATOM     20  C   UNL     1       7.055   0.379   1.136  0.00  0.00    +0.039 A 
ATOM     21  C   UNL     1       6.453   0.995   0.096  0.00  0.00    +0.054 A 
ATOM     22  N   UNL     1       7.367   1.192  -0.856  0.00  0.00    -0.348 N 
ATOM     23  C   UNL     1       8.518   0.725  -0.447  0.00  0.00    +0.171 A 
ATOM     24  N   UNL     1       8.363   0.210   0.794  0.00  0.00    -0.349 N 
ATOM     25  H   UNL     1       9.052  -0.202   1.338  0.00  0.00    +0.166 HD
ATOM     26  C   UNL     1       4.994   1.370   0.077  0.00  0.00    +0.162 C 
ATOM     27  H   UNL     1       7.204   1.614  -1.714  0.00  0.00    +0.166 HD
ENDBRANCH  14  15
ENDBRANCH  12  14
BRANCH   6  28
ATOM     28  O   UNL     1      -4.693  -2.991   0.513  0.00  0.00    -0.487 OA
BRANCH  28  29
ATOM     29  C   UNL     1      -5.901  -2.264   0.751  0.00  0.00    +0.259 C 
BRANCH  29  30
ATOM     30  C   UNL     1      -7.059  -3.226   0.828  0.00  0.00    -0.043 C 
ATOM     31  C   UNL     1      -6.853  -4.511   0.682  0.00  0.00    +0.011 C 
ATOM     32  C   UNL     1      -8.453  -2.708   1.073  0.00  0.00    +0.042 C 
ENDBRANCH  29  30
ENDBRANCH  28  29
ENDBRANCH   6  28
TORSDOF 5
