REMARK  Name = ZINC44785001
REMARK  7 active torsions:
REMARK  status: ('A' for Active; 'I' for Inactive)
REMARK    1  A    between atoms: C_1  and  C_2
REMARK    2  A    between atoms: C_2  and  C_3
REMARK    3  A    between atoms: C_2  and  C_4
REMARK    4  A    between atoms: C_2  and  C_8
REMARK    5  A    between atoms: N_5  and  O_6
REMARK    6  A    between atoms: N_10  and  C_11
REMARK    7  A    between atoms: C_11  and  C_12
REMARK                            x       y       z     vdW  Elec       q    Type
REMARK                         _______ _______ _______ _____ _____    ______ ____
ROOT
ATOM      1  C   UNL     1       0.707  -0.490  -1.238  0.00  0.00    +0.226 C 
ATOM      2  O   UNL     1       0.120  -1.191  -2.034  0.00  0.00    -0.275 OA
ATOM      3  N   UNL     1       1.991  -0.146  -1.462  0.00  0.00    -0.314 N 
ATOM      4  H   UNL     1       2.461   0.415  -0.825  0.00  0.00    +0.149 HD
ENDROOT
BRANCH   1   6
ATOM      5  C   UNL     1      -0.019   1.526   0.010  0.00  0.00    +0.028 C 
ATOM      6  C   UNL     1       0.002  -0.004   0.002  0.00  0.00    +0.099 C 
ATOM      7  C   UNL     1       0.742  -0.511   1.242  0.00  0.00    +0.028 C 
BRANCH   6   8
ATOM      8  C   UNL     1      -1.412  -0.526   0.013  0.00  0.00    +0.146 C 
ATOM      9  N   UNL     1      -2.405   0.300   0.027  0.00  0.00    -0.076 NA
ATOM     10  N   UNL     1      -1.645  -1.883   0.008  0.00  0.00    -0.343 N 
ATOM     11  H   UNL     1      -0.899  -2.503  -0.003  0.00  0.00    +0.144 HD
ATOM     12  H   UNL     1      -2.555  -2.219   0.015  0.00  0.00    +0.144 HD
BRANCH   9  13
ATOM     13  O   UNL     1      -3.733  -0.190   0.037  0.00  0.00    -0.408 OA
ATOM     14  H   UNL     1      -4.408   0.503   0.047  0.00  0.00    +0.328 HD
ENDBRANCH   9  13
ENDBRANCH   6   8
ENDBRANCH   1   6
BRANCH   3  15
ATOM     15  C   UNL     1       2.677  -0.618  -2.667  0.00  0.00    +0.107 C 
BRANCH  15  16
ATOM     16  C   UNL     1       4.112  -0.089  -2.678  0.00  0.00    +0.006 C 
ATOM     17  C   UNL     1       4.092   1.437  -2.795  0.00  0.00    +0.005 C 
ATOM     18  C   UNL     1       5.528   1.966  -2.806  0.00  0.00    +0.000 C 
ATOM     19  C   UNL     1       6.281   1.373  -3.998  0.00  0.00    +0.000 C 
ATOM     20  C   UNL     1       6.301  -0.152  -3.881  0.00  0.00    +0.000 C 
ATOM     21  C   UNL     1       4.866  -0.682  -3.870  0.00  0.00    +0.005 C 
ENDBRANCH  15  16
ENDBRANCH   3  15
TORSDOF 5
