REMARK  Name = ZINC30552722
REMARK  7 active torsions:
REMARK  status: ('A' for Active; 'I' for Inactive)
REMARK    1  A    between atoms: C_1  and  C_2
REMARK    2  A    between atoms: C_3  and  C_22
REMARK    3  A    between atoms: C_4  and  C_15
REMARK    4  A    between atoms: N_9  and  C_10
REMARK    5  A    between atoms: C_10  and  C_11
REMARK    6  A    between atoms: C_22  and  O_24
REMARK    7  A    between atoms: O_24  and  C_25
REMARK                            x       y       z     vdW  Elec       q    Type
REMARK                         _______ _______ _______ _____ _____    ______ ____
ROOT
ATOM      1  C   UNL     1       0.345   1.484  -0.019  0.00  0.00    +0.061 C 
ATOM      2  C   UNL     1       0.178  -0.013  -0.012  0.00  0.00    +0.024 C 
ATOM      3  C   UNL     1       0.309  -0.691   1.148  0.00  0.00    +0.078 C 
ATOM      4  C   UNL     1       0.134  -2.196   1.110  0.00  0.00    +0.144 C 
ATOM      5  N   UNL     1      -0.166  -2.799  -0.199  0.00  0.00    -0.288 N 
ATOM      6  C   UNL     1      -0.266  -1.989  -1.272  0.00  0.00    +0.307 C 
ATOM      7  O   UNL     1      -0.514  -2.477  -2.357  0.00  0.00    -0.252 OA
ATOM      8  N   UNL     1      -0.107  -0.662  -1.179  0.00  0.00    -0.250 N 
ATOM      9  H   UNL     1      -0.303  -3.887  -0.285  0.00  0.00    +0.151 HD
ENDROOT
BRANCH   4  10
ATOM     10  C   UNL     1      -0.982  -2.558   2.055  0.00  0.00    -0.021 A 
ATOM     11  C   UNL     1      -0.689  -3.038   3.318  0.00  0.00    +0.006 A 
ATOM     12  C   UNL     1      -1.712  -3.371   4.186  0.00  0.00    +0.002 A 
ATOM     13  C   UNL     1      -3.029  -3.223   3.792  0.00  0.00    +0.020 A 
ATOM     14  C   UNL     1      -3.322  -2.742   2.529  0.00  0.00    +0.041 A 
ATOM     15  C   UNL     1      -2.298  -2.405   1.662  0.00  0.00    +0.025 A 
ATOM     16 CL   UNL     1      -4.976  -2.556   2.033  0.00  0.00    -0.084 Cl
ENDBRANCH   4  10
BRANCH   3  17
ATOM     17  C   UNL     1       0.600  -0.019   2.359  0.00  0.00    +0.339 C 
ATOM     18  O   UNL     1       0.631   1.197   2.388  0.00  0.00    -0.245 OA
BRANCH  17  19
ATOM     19  O   UNL     1       0.843  -0.727   3.482  0.00  0.00    -0.465 OA
ATOM     20  C   UNL     1       1.130   0.016   4.668  0.00  0.00    +0.280 C 
ENDBRANCH  17  19
ENDBRANCH   3  17
BRANCH   8  21
ATOM     21  C   UNL     1      -0.241   0.137  -2.400  0.00  0.00    +0.228 C 
BRANCH  21  22
ATOM     22  C   UNL     1       1.133   0.310  -3.049  0.00  0.00    +0.406 C 
ATOM     23  F   UNL     1       1.660  -0.946  -3.369  0.00  0.00    -0.169 F 
ATOM     24  F   UNL     1       1.005   1.073  -4.215  0.00  0.00    -0.169 F 
ATOM     25  F   UNL     1       1.991   0.962  -2.157  0.00  0.00    -0.169 F 
ENDBRANCH  21  22
ENDBRANCH   8  21
TORSDOF 5
