REMARK  Name = ZINC40838882
REMARK  6 active torsions:
REMARK  status: ('A' for Active; 'I' for Inactive)
REMARK    1  A    between atoms: C_1  and  C_2
REMARK    2  A    between atoms: C_5  and  C_26
REMARK    3  A    between atoms: C_6  and  N_8
REMARK    4  A    between atoms: C_9  and  C_11
REMARK    5  A    between atoms: C_11  and  C_13
REMARK    6  A    between atoms: C_11  and  C_14
REMARK                            x       y       z     vdW  Elec       q    Type
REMARK                         _______ _______ _______ _____ _____    ______ ____
ROOT
ATOM      1  C   UNL     1       0.280  -2.900   4.854  0.00  0.00    +0.094 C 
ATOM      2  C   UNL     1      -0.944  -3.798   5.039  0.00  0.00    +0.019 C 
ENDROOT
BRANCH   1   3
ATOM      3  C   UNL     1       0.374  -1.917   6.022  0.00  0.00    +0.149 C 
ATOM      4  C   UNL     1       0.619  -2.673   7.299  0.00  0.00    +0.231 C 
ATOM      5  O   UNL     1       1.765  -2.805   7.676  0.00  0.00    -0.274 OA
ATOM      6  N   UNL     1      -0.351  -3.205   8.038  0.00  0.00    -0.284 N 
ATOM      7  C   UNL     1      -1.715  -3.163   7.761  0.00  0.00    +0.047 A 
ATOM      8  C   UNL     1      -2.559  -4.107   8.336  0.00  0.00    +0.024 A 
ATOM      9  C   UNL     1      -3.915  -4.077   8.076  0.00  0.00    +0.002 A 
ATOM     10  C   UNL     1      -4.448  -3.110   7.244  0.00  0.00    +0.001 A 
ATOM     11  C   UNL     1      -3.620  -2.167   6.664  0.00  0.00    +0.016 A 
ATOM     12  C   UNL     1      -2.260  -2.193   6.918  0.00  0.00    +0.030 A 
ATOM     13  S   UNL     1      -1.189  -0.999   6.173  0.00  0.00    -0.110 S 
ATOM     14  H   UNL     1      -0.082  -3.666   8.848  0.00  0.00    +0.155 HD
ENDBRANCH   1   3
BRANCH   1  16
ATOM     15  N   UNL     1       0.052  -2.797   2.393  0.00  0.00    -0.285 N 
ATOM     16  C   UNL     1       0.150  -2.135   3.562  0.00  0.00    +0.222 C 
ATOM     17  O   UNL     1       0.134  -0.922   3.575  0.00  0.00    -0.275 OA
ATOM     18  H   UNL     1      -0.016  -3.765   2.388  0.00  0.00    +0.155 HD
BRANCH  15  24
ATOM     19  C   UNL     1       1.264   1.227  -0.158  0.00  0.00    +0.044 C 
ATOM     20  C   UNL     1       0.628  -0.137  -0.079  0.00  0.00    -0.049 A 
ATOM     21  C   UNL     1       0.038  -0.690  -1.201  0.00  0.00    +0.004 A 
ATOM     22  C   UNL     1      -0.546  -1.941  -1.133  0.00  0.00    +0.005 A 
ATOM     23  C   UNL     1      -0.543  -2.643   0.057  0.00  0.00    -0.029 A 
ATOM     24  C   UNL     1       0.048  -2.090   1.185  0.00  0.00    +0.037 A 
ATOM     25  C   UNL     1       0.639  -0.835   1.112  0.00  0.00    +0.027 A 
ATOM     26  C   UNL     1      -1.181  -4.006   0.131  0.00  0.00    +0.045 C 
ENDBRANCH  15  24
ENDBRANCH   1  16
TORSDOF 3
