REMARK  Name = ZINC39327007
REMARK  8 active torsions:
REMARK  status: ('A' for Active; 'I' for Inactive)
REMARK    1  A    between atoms: C_1  and  C_2
REMARK    2  A    between atoms: C_8  and  C_10
REMARK    3  A    between atoms: C_11  and  N_31
REMARK    4  A    between atoms: C_16  and  C_30
REMARK    5  A    between atoms: C_17  and  C_26
REMARK    6  A    between atoms: C_18  and  C_20
REMARK    7  A    between atoms: C_26  and  O_28
REMARK    8  A    between atoms: O_28  and  C_29
REMARK                            x       y       z     vdW  Elec       q    Type
REMARK                         _______ _______ _______ _____ _____    ______ ____
ROOT
ATOM      1  C   UNL     1      -3.588  -4.309  -0.004  0.00  0.00    +0.097 A 
ATOM      2  C   UNL     1      -4.981  -4.399  -0.003  0.00  0.00    +0.050 A 
ATOM      3  C   UNL     1      -5.575  -5.648  -0.008  0.00  0.00    +0.014 A 
ATOM      4  C   UNL     1      -4.728  -6.737  -0.016  0.00  0.00    +0.076 A 
ATOM      5  S   UNL     1      -3.107  -6.029  -0.018  0.00  0.00    -0.067 S 
ATOM      6  N   UNL     1      -5.127  -8.051  -0.029  0.00  0.00    -0.312 N 
ATOM      7  C   UNL     1      -6.449  -8.302  -0.308  0.00  0.00    +0.016 C 
ATOM      8  C   UNL     1      -7.367  -7.324  -0.312  0.00  0.00    +0.065 C 
ATOM      9  C   UNL     1      -7.080  -5.885  -0.002  0.00  0.00    +0.092 C 
ATOM     10  C   UNL     1      -6.879  -9.712  -0.618  0.00  0.00    +0.061 C 
ATOM     11  H   UNL     1      -4.502  -8.771   0.150  0.00  0.00    +0.152 HD
ENDROOT
BRANCH   1  19
ATOM     12  C   UNL     1      -0.018   1.503   0.010  0.00  0.00    +0.089 C 
ATOM     13  C   UNL     1       0.002  -0.004   0.002  0.00  0.00    +0.136 A 
ATOM     14  C   UNL     1      -1.076  -0.807   0.003  0.00  0.00    +0.091 A 
ATOM     15  C   UNL     1      -0.625  -2.147  -0.008  0.00  0.00    +0.168 A 
ATOM     16  N   UNL     1       0.683  -2.130  -0.014  0.00  0.00    -0.063 NA
ATOM     17  O   UNL     1       1.100  -0.776  -0.013  0.00  0.00    -0.358 OA
ATOM     18  N   UNL     1      -1.431  -3.284  -0.010  0.00  0.00    -0.263 N 
ATOM     19  C   UNL     1      -2.773  -3.159  -0.002  0.00  0.00    +0.258 C 
ATOM     20  O   UNL     1      -3.282  -2.051   0.007  0.00  0.00    -0.269 OA
ATOM     21  H   UNL     1      -1.026  -4.165  -0.017  0.00  0.00    +0.157 HD
ENDBRANCH   1  19
BRANCH   9  22
ATOM     22  C   UNL     1      -7.636  -5.543   1.356  0.00  0.00    -0.032 A 
ATOM     23  C   UNL     1      -7.194  -6.205   2.491  0.00  0.00    +0.024 A 
ATOM     24  C   UNL     1      -7.726  -5.864   3.720  0.00  0.00    +0.111 A 
ATOM     25  N   UNL     1      -8.645  -4.923   3.820  0.00  0.00    -0.263 NA
ATOM     26  C   UNL     1      -9.089  -4.273   2.762  0.00  0.00    +0.111 A 
ATOM     27  C   UNL     1      -8.598  -4.555   1.501  0.00  0.00    +0.024 A 
ENDBRANCH   9  22
BRANCH   2  28
ATOM     28  N   UNL     1      -5.762  -3.247   0.003  0.00  0.00    -0.357 N 
ATOM     29  H   UNL     1      -5.339  -2.374   0.006  0.00  0.00    +0.142 HD
ATOM     30  H   UNL     1      -6.729  -3.317   0.004  0.00  0.00    +0.142 HD
ENDBRANCH   2  28
BRANCH   8  31
ATOM     31  C   UNL     1      -8.698  -7.675  -0.629  0.00  0.00    +0.337 C 
ATOM     32  O   UNL     1      -8.977  -8.831  -0.886  0.00  0.00    -0.245 OA
BRANCH  31  33
ATOM     33  O   UNL     1      -9.659  -6.728  -0.646  0.00  0.00    -0.465 OA
ATOM     34  C   UNL     1     -10.983  -7.154  -0.975  0.00  0.00    +0.280 C 
ENDBRANCH  31  33
ENDBRANCH   8  31
TORSDOF 5
