REMARK  Name = ZINC41834193
REMARK  6 active torsions:
REMARK  status: ('A' for Active; 'I' for Inactive)
REMARK    1  A    between atoms: C_1  and  C_2
REMARK    2  A    between atoms: C_2  and  C_3
REMARK    3  A    between atoms: C_2  and  C_4
REMARK    4  A    between atoms: C_2  and  N_7
REMARK    5  A    between atoms: N_7  and  C_8
REMARK    6  A    between atoms: C_8  and  C_18
REMARK                            x       y       z     vdW  Elec       q    Type
REMARK                         _______ _______ _______ _____ _____    ______ ____
ROOT
ATOM      1  C   UNL     1       2.143   1.348  -0.368  0.00  0.00    +0.069 C 
ATOM      2  C   UNL     1       2.376   1.235  -1.877  0.00  0.00    +0.045 C 
ATOM      3  C   UNL     1       3.356   0.083  -2.128  0.00  0.00    +0.228 C 
ATOM      4  O   UNL     1       4.614   0.426  -1.546  0.00  0.00    -0.492 OA
ATOM      5  C   UNL     1       4.619   0.876  -0.264  0.00  0.00    +0.123 A 
ATOM      6  C   UNL     1       3.466   1.332   0.353  0.00  0.00    -0.006 A 
ATOM      7  C   UNL     1       3.519   1.786   1.660  0.00  0.00    +0.006 A 
ATOM      8  C   UNL     1       4.714   1.782   2.353  0.00  0.00    +0.000 A 
ATOM      9  C   UNL     1       5.866   1.324   1.740  0.00  0.00    +0.004 A 
ATOM     10  C   UNL     1       5.820   0.872   0.437  0.00  0.00    +0.046 A 
ENDROOT
BRANCH   1  11
ATOM     11  N   UNL     1       1.325   0.215   0.086  0.00  0.00    +0.402 N 
ATOM     12  H   UNL     1       1.833  -0.645  -0.058  0.00  0.00    -0.082 HD
ATOM     13  H   UNL     1       0.464   0.189  -0.439  0.00  0.00    -0.082 HD
BRANCH  11  15
ATOM     14  C   UNL     1       0.743   1.844   1.819  0.00  0.00    -0.001 C 
ATOM     15  C   UNL     1       1.023   0.371   1.515  0.00  0.00    +0.006 C 
ATOM     16  C   UNL     1       2.218  -0.103   2.344  0.00  0.00    -0.001 C 
BRANCH  15  17
ATOM     17  C   UNL     1      -0.190  -0.453   1.865  0.00  0.00    +0.199 C 
ATOM     18  O   UNL     1      -0.266  -0.990   2.949  0.00  0.00    -0.278 OA
ATOM     19  N   UNL     1      -1.190  -0.592   0.972  0.00  0.00    -0.330 N 
ATOM     20  H   UNL     1      -1.130  -0.161   0.105  0.00  0.00    +0.145 HD
ATOM     21  H   UNL     1      -1.971  -1.122   1.197  0.00  0.00    +0.145 HD
ENDBRANCH  15  17
ENDBRANCH  11  15
ENDBRANCH   1  11
BRANCH   1  22
ATOM     22  C   UNL     1       1.423   2.638  -0.068  0.00  0.00    +0.350 C 
ATOM     23  O   UNL     1       0.227   2.733  -0.283  0.00  0.00    -0.248 OA
ATOM     24  O   UNL     1       2.037   3.586   0.391  0.00  0.00    -0.248 OA
ENDBRANCH   1  22
TORSDOF 4
