REMARK  Name = ZINC36764995
REMARK  7 active torsions:
REMARK  status: ('A' for Active; 'I' for Inactive)
REMARK    1  A    between atoms: C_1  and  C_2
REMARK    2  A    between atoms: C_2  and  C_3
REMARK    3  A    between atoms: C_2  and  C_4
REMARK    4  A    between atoms: C_2  and  C_5
REMARK    5  A    between atoms: C_11  and  C_12
REMARK    6  A    between atoms: C_11  and  N_21
REMARK    7  A    between atoms: C_14  and  C_17
REMARK                            x       y       z     vdW  Elec       q    Type
REMARK                         _______ _______ _______ _____ _____    ______ ____
ROOT
ATOM      1  C   UNL     1       1.226  -1.190  -2.118  0.00  0.00    -0.010 C 
ATOM      2  C   UNL     1       1.965  -2.519  -2.281  0.00  0.00    +0.003 C 
ATOM      3  C   UNL     1       3.176  -2.321  -3.195  0.00  0.00    +0.000 C 
ATOM      4  C   UNL     1       4.118  -1.287  -2.576  0.00  0.00    -0.001 C 
ATOM      5  C   UNL     1       3.379   0.043  -2.413  0.00  0.00    -0.005 C 
ATOM      6  C   UNL     1       2.168  -0.155  -1.499  0.00  0.00    -0.003 C 
ENDROOT
BRANCH   6   7
ATOM      7  C   UNL     1       1.440   1.155  -1.339  0.00  0.00    +0.161 A 
ATOM      8  N   UNL     1       1.409   1.896  -0.225  0.00  0.00    -0.190 NA
ATOM      9  C   UNL     1       0.692   2.967  -0.421  0.00  0.00    +0.332 A 
ATOM     10  O   UNL     1       0.237   2.944  -1.680  0.00  0.00    -0.329 OA
ATOM     11  N   UNL     1       0.744   1.752  -2.263  0.00  0.00    -0.062 NA
BRANCH   9  12
ATOM     12  C   UNL     1       0.421   4.046   0.596  0.00  0.00    +0.472 C 
ATOM     13  F   UNL     1       1.414   5.028   0.510  0.00  0.00    -0.162 F 
ATOM     14  F   UNL     1      -0.828   4.623   0.342  0.00  0.00    -0.162 F 
ATOM     15  F   UNL     1       0.425   3.490   1.879  0.00  0.00    -0.162 F 
ENDBRANCH   9  12
ENDBRANCH   6   7
BRANCH   1  17
ATOM     16  C   UNL     1      -0.535  -0.023  -0.783  0.00  0.00    +0.011 C 
ATOM     17  C   UNL     1       0.015  -1.388  -1.204  0.00  0.00    -0.036 C 
ATOM     18  C   UNL     1       0.438  -2.172   0.040  0.00  0.00    +0.011 C 
ATOM     19  C   UNL     1      -1.068  -2.166  -1.954  0.00  0.00    +0.011 C 
ENDBRANCH   1  17
BRANCH   6  20
ATOM     20  N   UNL     1       2.619  -0.629  -0.184  0.00  0.00    +0.387 N 
ATOM     21  H   UNL     1       2.630  -1.638  -0.175  0.00  0.00    -0.089 HD
ATOM     22  H   UNL     1       3.549  -0.281  -0.002  0.00  0.00    -0.089 HD
ATOM     23  H   UNL     1       1.990  -0.293   0.529  0.00  0.00    -0.089 HD
ENDBRANCH   6  20
TORSDOF 4
