REMARK  Name = ZINC32738665
REMARK  10 active torsions:
REMARK  status: ('A' for Active; 'I' for Inactive)
REMARK    1  A    between atoms: C_3  and  N_33
REMARK    2  A    between atoms: C_6  and  C_7
REMARK    3  A    between atoms: N_9  and  N_10
REMARK    4  A    between atoms: C_11  and  C_13
REMARK    5  A    between atoms: C_13  and  O_14
REMARK    6  A    between atoms: O_14  and  C_15
REMARK    7  A    between atoms: C_15  and  C_17
REMARK    8  A    between atoms: C_17  and  N_18
REMARK    9  A    between atoms: N_18  and  S_19
REMARK   10  A    between atoms: S_19  and  C_22
REMARK                            x       y       z     vdW  Elec       q    Type
REMARK                         _______ _______ _______ _____ _____    ______ ____
ROOT
ATOM      1  O   UNL     1      -1.890   4.717  -3.452  0.00  0.00    -0.454 OA
ENDROOT
BRANCH   1   2
ATOM      2  C   UNL     1      -1.614   3.488  -2.988  0.00  0.00    +0.323 C 
ATOM      3  O   UNL     1      -1.758   2.525  -3.704  0.00  0.00    -0.249 OA
BRANCH   2   4
ATOM      4  C   UNL     1      -1.125   3.309  -1.574  0.00  0.00    +0.226 C 
BRANCH   4   5
ATOM      5  N   UNL     1      -0.897   1.885  -1.312  0.00  0.00    -0.179 NA
ATOM      6  H   UNL     1      -1.442   1.126  -1.892  0.00  0.00    +0.149 HD
BRANCH   5   7
ATOM      7  S   UNL     1      -0.017   1.417   0.010  0.00  0.00    +0.059 S 
ATOM      8  O   UNL     1       0.002  -0.004   0.002  0.00  0.00    -0.153 OA
ATOM      9  O   UNL     1       1.172   2.195   0.003  0.00  0.00    -0.153 OA
BRANCH   7  10
ATOM     10  C   UNL     1      -0.927   1.900   1.439  0.00  0.00    +0.109 A 
ATOM     11  C   UNL     1      -0.715   3.145   2.002  0.00  0.00    +0.032 A 
ATOM     12  C   UNL     1      -1.429   3.534   3.122  0.00  0.00    +0.051 A 
ATOM     13  C   UNL     1      -2.350   2.666   3.683  0.00  0.00    +0.162 A 
ATOM     14  C   UNL     1      -2.559   1.414   3.122  0.00  0.00    +0.164 A 
ATOM     15  C   UNL     1      -1.846   1.030   1.998  0.00  0.00    +0.078 A 
ATOM     16  O   UNL     1      -3.469   0.567   3.683  0.00  0.00    -0.488 OA
ATOM     17  C   UNL     1      -3.130   0.048   4.970  0.00  0.00    +0.232 C 
ATOM     18  C   UNL     1      -3.529   1.024   6.067  0.00  0.00    +0.082 C 
ATOM     19  C   UNL     1      -2.750   2.328   5.993  0.00  0.00    +0.232 C 
ATOM     20  O   UNL     1      -3.058   3.035   4.790  0.00  0.00    -0.488 OA
ENDBRANCH   7  10
ENDBRANCH   5   7
ENDBRANCH   4   5
ENDBRANCH   2   4
ENDBRANCH   1   2
BRANCH   1  21
ATOM     21  C   UNL     1      -2.357   4.814  -4.823  0.00  0.00    +0.329 C 
BRANCH  21  23
ATOM     22  N   UNL     1      -3.056   6.592  -6.394  0.00  0.00    -0.231 N 
ATOM     23  C   UNL     1      -2.614   6.259  -5.166  0.00  0.00    +0.267 C 
ATOM     24  O   UNL     1      -2.421   7.122  -4.335  0.00  0.00    -0.271 OA
ATOM     25  H   UNL     1      -3.231   5.809  -7.147  0.00  0.00    +0.173 HD
BRANCH  22  28
ATOM     26  C   UNL     1      -3.737   8.269  -7.941  0.00  0.00    +0.260 C 
ATOM     27  O   UNL     1      -3.930   7.404  -8.773  0.00  0.00    -0.269 OA
ATOM     28  N   UNL     1      -3.295   7.936  -6.712  0.00  0.00    -0.230 N 
ATOM     29  H   UNL     1      -3.120   8.718  -5.960  0.00  0.00    +0.173 HD
BRANCH  26  35
ATOM     30  C   UNL     1      -3.774  10.682  -7.322  0.00  0.00    +0.015 A 
ATOM     31  C   UNL     1      -4.007  12.003  -7.643  0.00  0.00    +0.033 A 
ATOM     32  C   UNL     1      -4.461  12.342  -8.905  0.00  0.00    +0.126 A 
ATOM     33  C   UNL     1      -4.681  11.360  -9.855  0.00  0.00    +0.033 A 
ATOM     34  C   UNL     1      -4.447  10.035  -9.548  0.00  0.00    +0.015 A 
ATOM     35  C   UNL     1      -3.989   9.687  -8.277  0.00  0.00    +0.038 A 
BRANCH  32  36
ATOM     36  N   UNL     1      -4.713  13.761  -9.241  0.00  0.00    +0.056 N 
ATOM     37  O   UNL     1      -5.113  14.062 -10.351  0.00  0.00    -0.126 OA
ATOM     38  O   UNL     1      -4.521  14.628  -8.407  0.00  0.00    -0.126 OA
ENDBRANCH  32  36
ENDBRANCH  26  35
ENDBRANCH  22  28
ENDBRANCH  21  23
ENDBRANCH   1  21
TORSDOF 10
