REMARK  Name = ZINC06901667
REMARK  6 active torsions:
REMARK  status: ('A' for Active; 'I' for Inactive)
REMARK    1  A    between atoms: C_1  and  C_2
REMARK    2  A    between atoms: C_3  and  O_21
REMARK    3  A    between atoms: C_4  and  C_10
REMARK    4  A    between atoms: C_5  and  C_8
REMARK    5  A    between atoms: C_8  and  O_9
REMARK    6  A    between atoms: N_11  and  N_12
REMARK                            x       y       z     vdW  Elec       q    Type
REMARK                         _______ _______ _______ _____ _____    ______ ____
ROOT
ATOM      1  C   UNL     1      -0.018   1.503   0.010  0.00  0.00    +0.069 C 
ATOM      2  C   UNL     1       0.002  -0.004   0.002  0.00  0.00    +0.080 A 
ATOM      3  C   UNL     1       0.006  -0.681  -1.206  0.00  0.00    +0.147 A 
ATOM      4  C   UNL     1       0.025  -2.087  -1.196  0.00  0.00    +0.045 A 
ATOM      5  C   UNL     1       0.040  -2.737   0.045  0.00  0.00    +0.008 A 
ATOM      6  C   UNL     1       0.035  -1.980   1.197  0.00  0.00    +0.117 A 
ATOM      7  N   UNL     1       0.022  -0.661   1.145  0.00  0.00    -0.256 NA
ENDROOT
BRANCH   4   8
ATOM      8  C   UNL     1       0.029  -2.853  -2.454  0.00  0.00    +0.142 C 
ATOM      9  N   UNL     1       0.015  -2.231  -3.594  0.00  0.00    -0.189 NA
BRANCH   9  10
ATOM     10  N   UNL     1       0.018  -2.961  -4.790  0.00  0.00    -0.220 N 
ATOM     11  C   UNL     1       0.003  -2.294  -6.010  0.00  0.00    +0.157 A 
ATOM     12  C   UNL     1       0.001  -3.026  -7.196  0.00  0.00    +0.084 A 
ATOM     13  C   UNL     1      -0.015  -2.350  -8.403  0.00  0.00    +0.045 A 
ATOM     14  C   UNL     1      -0.028  -0.960  -8.385  0.00  0.00    +0.061 A 
ATOM     15  C   UNL     1      -0.025  -0.300  -7.171  0.00  0.00    +0.133 A 
ATOM     16  N   UNL     1      -0.016  -0.971  -6.035  0.00  0.00    -0.236 NA
ATOM     17 CL   UNL     1      -0.048  -0.064  -9.871  0.00  0.00    -0.082 Cl
ATOM     18 CL   UNL     1       0.019  -4.761  -7.159  0.00  0.00    -0.080 Cl
ATOM     19  H   UNL     1       0.032  -3.930  -4.767  0.00  0.00    +0.176 HD
ENDBRANCH   9  10
ENDBRANCH   4   8
BRANCH   3  20
ATOM     20  O   UNL     1      -0.010   0.001  -2.380  0.00  0.00    -0.504 OA
ATOM     21  H   UNL     1       0.869   0.212  -2.725  0.00  0.00    +0.292 HD
ENDBRANCH   3  20
BRANCH   5  22
ATOM     22  C   UNL     1       0.061  -4.242   0.119  0.00  0.00    +0.193 C 
BRANCH  22  23
ATOM     23  O   UNL     1       0.074  -4.651   1.488  0.00  0.00    -0.390 OA
ATOM     24  H   UNL     1       0.087  -5.610   1.612  0.00  0.00    +0.210 HD
ENDBRANCH  22  23
ENDBRANCH   5  22
TORSDOF 5
