REMARK  Name = ZINC06460136
REMARK  11 active torsions:
REMARK  status: ('A' for Active; 'I' for Inactive)
REMARK    1  A    between atoms: C_3  and  O_32
REMARK    2  A    between atoms: C_6  and  C_7
REMARK    3  A    between atoms: C_9  and  C_23
REMARK    4  A    between atoms: C_11  and  O_12
REMARK    5  A    between atoms: N_15  and  C_16
REMARK    6  A    between atoms: C_16  and  C_17
REMARK    7  A    between atoms: C_17  and  C_18
REMARK    8  A    between atoms: C_18  and  C_19
REMARK    9  A    between atoms: C_19  and  C_20
REMARK   10  A    between atoms: C_20  and  C_21
REMARK   11  A    between atoms: C_23  and  C_25
REMARK                            x       y       z     vdW  Elec       q    Type
REMARK                         _______ _______ _______ _____ _____    ______ ____
ROOT
ATOM      1  C   UNL     1      -2.938  -4.906  -1.359  0.00  0.00    +0.144 C 
ATOM      2  C   UNL     1      -2.770  -6.298  -0.729  0.00  0.00    +0.071 C 
ATOM      3  C   UNL     1      -2.686  -6.028   0.759  0.00  0.00    +0.188 C 
ATOM      4  C   UNL     1      -2.798  -4.551   0.925  0.00  0.00    +0.282 C 
ATOM      5  O   UNL     1      -2.770  -3.977   1.994  0.00  0.00    -0.267 OA
ATOM      6  N   UNL     1      -2.934  -3.942  -0.259  0.00  0.00    -0.284 N 
ENDROOT
BRANCH   1  12
ATOM      7  C   UNL     1      -0.529  -4.376  -1.786  0.00  0.00    +0.009 A 
ATOM      8  C   UNL     1       0.525  -4.124  -2.642  0.00  0.00    +0.046 A 
ATOM      9  C   UNL     1       0.316  -4.111  -4.013  0.00  0.00    +0.117 A 
ATOM     10  C   UNL     1      -0.951  -4.356  -4.521  0.00  0.00    +0.046 A 
ATOM     11  C   UNL     1      -2.002  -4.612  -3.661  0.00  0.00    +0.009 A 
ATOM     12  C   UNL     1      -1.790  -4.626  -2.295  0.00  0.00    -0.022 A 
BRANCH   9  13
ATOM     13  O   UNL     1       1.351  -3.858  -4.857  0.00  0.00    -0.507 OA
ATOM     14  H   UNL     1       1.469  -2.921  -5.065  0.00  0.00    +0.292 HD
ENDBRANCH   9  13
ENDBRANCH   1  12
BRANCH   3  16
ATOM     15  H   UNL     1      -2.507  -7.761   1.235  0.00  0.00    +0.292 HD
ATOM     16  O   UNL     1      -2.555  -6.847   1.637  0.00  0.00    -0.502 OA
ENDBRANCH   3  16
BRANCH   2  17
ATOM     17  C   UNL     1      -2.660  -7.776  -1.003  0.00  0.00    +0.195 C 
ATOM     18  O   UNL     1      -2.125  -8.505  -0.195  0.00  0.00    -0.287 OA
BRANCH  17  19
ATOM     19  C   UNL     1      -3.201  -8.335  -2.251  0.00  0.00    +0.022 A 
ATOM     20  C   UNL     1      -3.824  -7.498  -3.183  0.00  0.00    +0.014 A 
ATOM     21  C   UNL     1      -4.324  -8.027  -4.353  0.00  0.00    +0.039 A 
ATOM     22  C   UNL     1      -4.222  -9.388  -4.601  0.00  0.00    +0.123 A 
ATOM     23  C   UNL     1      -3.610 -10.223  -3.679  0.00  0.00    +0.039 A 
ATOM     24  C   UNL     1      -3.100  -9.707  -2.508  0.00  0.00    +0.014 A 
ATOM     25  F   UNL     1      -4.720  -9.901  -5.748  0.00  0.00    -0.205 F 
ENDBRANCH  17  19
ENDBRANCH   2  17
BRANCH   6  26
ATOM     26  C   UNL     1      -3.067  -2.493  -0.431  0.00  0.00    +0.109 C 
BRANCH  26  27
ATOM     27  C   UNL     1      -1.680  -1.869  -0.594  0.00  0.00    +0.019 C 
BRANCH  27  28
ATOM     28  C   UNL     1      -1.819  -0.356  -0.773  0.00  0.00    +0.002 C 
BRANCH  28  29
ATOM     29  C   UNL     1      -0.432   0.269  -0.936  0.00  0.00    +0.011 C 
BRANCH  29  30
ATOM     30  C   UNL     1      -0.572   1.782  -1.116  0.00  0.00    +0.125 C 
BRANCH  30  31
ATOM     31  C   UNL     1       0.795   2.396  -1.276  0.00  0.00    +0.356 C 
ATOM     32  O   UNL     1       1.779   1.696  -1.250  0.00  0.00    -0.246 OA
ATOM     33  O   UNL     1       0.918   3.722  -1.449  0.00  0.00    -0.246 OA
ENDBRANCH  30  31
ENDBRANCH  29  30
ENDBRANCH  28  29
ENDBRANCH  27  28
ENDBRANCH  26  27
ENDBRANCH   6  26
TORSDOF 11
