REMARK  Name = ZINC36635751
REMARK  6 active torsions:
REMARK  status: ('A' for Active; 'I' for Inactive)
REMARK    1  A    between atoms: C_1  and  C_2
REMARK    2  A    between atoms: C_4  and  C_25
REMARK    3  A    between atoms: C_5  and  N_9
REMARK    4  A    between atoms: C_6  and  C_8
REMARK    5  A    between atoms: N_9  and  C_10
REMARK    6  A    between atoms: N_15  and  C_18
REMARK                            x       y       z     vdW  Elec       q    Type
REMARK                         _______ _______ _______ _____ _____    ______ ____
ROOT
ATOM      1  C   UNL     1       2.271  -4.422   0.481  0.00  0.00    +0.166 C 
ATOM      2  C   UNL     1       3.625  -5.080   0.147  0.00  0.00    +0.128 C 
ATOM      3  C   UNL     1       3.270  -6.536  -0.063  0.00  0.00    +0.228 C 
ATOM      4  O   UNL     1       4.053  -7.416  -0.348  0.00  0.00    -0.275 OA
ATOM      5  N   UNL     1       1.953  -6.698   0.116  0.00  0.00    -0.209 N 
ATOM      6  C   UNL     1       1.290  -5.574   0.428  0.00  0.00    +0.247 C 
ATOM      7  O   UNL     1       0.099  -5.491   0.634  0.00  0.00    -0.273 OA
ENDROOT
BRANCH   5   8
ATOM      8  C   UNL     1       1.317  -7.942  -0.011  0.00  0.00    +0.044 A 
ATOM      9  C   UNL     1       1.570  -8.949   0.910  0.00  0.00    +0.027 A 
ATOM     10  C   UNL     1       0.944 -10.173   0.784  0.00  0.00    +0.040 A 
ATOM     11  C   UNL     1       0.063 -10.397  -0.261  0.00  0.00    +0.124 A 
ATOM     12  C   UNL     1      -0.191  -9.393  -1.181  0.00  0.00    +0.040 A 
ATOM     13  C   UNL     1       0.429  -8.166  -1.055  0.00  0.00    +0.027 A 
ATOM     14  F   UNL     1      -0.549 -11.595  -0.384  0.00  0.00    -0.205 F 
ENDBRANCH   5   8
BRANCH   1  15
ATOM     15  N   UNL     1       1.930  -3.408  -0.519  0.00  0.00    -0.332 N 
ATOM     16  H   UNL     1       1.407  -3.652  -1.299  0.00  0.00    +0.147 HD
BRANCH  15  21
ATOM     17  C   UNL     1       3.665   1.947   0.170  0.00  0.00    +0.044 C 
ATOM     18  C   UNL     1       3.204   0.524  -0.013  0.00  0.00    -0.050 A 
ATOM     19  C   UNL     1       2.173   0.028   0.763  0.00  0.00    +0.008 A 
ATOM     20  C   UNL     1       1.748  -1.276   0.598  0.00  0.00    -0.029 A 
ATOM     21  C   UNL     1       2.357  -2.089  -0.349  0.00  0.00    +0.034 A 
ATOM     22  C   UNL     1       3.392  -1.587  -1.128  0.00  0.00    -0.029 A 
ATOM     23  C   UNL     1       3.809  -0.281  -0.962  0.00  0.00    +0.008 A 
ATOM     24  C   UNL     1       4.056  -2.465  -2.157  0.00  0.00    +0.045 C 
ATOM     25  C   UNL     1       0.624  -1.816   1.445  0.00  0.00    +0.045 C 
ENDBRANCH  15  21
ENDBRANCH   1  15
TORSDOF 3
