REMARK  Name = ZINC13014081
REMARK  5 active torsions:
REMARK  status: ('A' for Active; 'I' for Inactive)
REMARK    1  A    between atoms: C_5  and  N_7
REMARK    2  A    between atoms: C_9  and  C_14
REMARK    3  A    between atoms: N_16  and  C_17
REMARK    4  A    between atoms: N_21  and  C_22
REMARK    5  A    between atoms: C_22  and  C_23
REMARK                            x       y       z     vdW  Elec       q    Type
REMARK                         _______ _______ _______ _____ _____    ______ ____
ROOT
ATOM      1  N   UNL     1       3.462  -2.563   0.179  0.00  0.00    -0.297 N 
ATOM      2  C   UNL     1       4.406  -1.577   0.401  0.00  0.00    +0.135 A 
ATOM      3  C   UNL     1       4.118  -0.244   0.059  0.00  0.00    +0.077 A 
ATOM      4  C   UNL     1       5.087   0.738   0.299  0.00  0.00    +0.018 A 
ATOM      5  C   UNL     1       6.291   0.350   0.858  0.00  0.00    +0.021 A 
ATOM      6  C   UNL     1       6.504  -0.983   1.162  0.00  0.00    +0.113 A 
ATOM      7  N   UNL     1       5.579  -1.893   0.929  0.00  0.00    -0.239 NA
ATOM      8  H   UNL     1       2.571  -2.324  -0.119  0.00  0.00    +0.154 HD
ENDROOT
BRANCH   1  13
ATOM      9  C   UNL     1       5.442  -5.604   0.780  0.00  0.00    +0.002 A 
ATOM     10  C   UNL     1       4.449  -6.566   0.792  0.00  0.00    +0.003 A 
ATOM     11  C   UNL     1       3.128  -6.204   0.602  0.00  0.00    +0.040 A 
ATOM     12  C   UNL     1       2.796  -4.877   0.398  0.00  0.00    +0.144 A 
ATOM     13  C   UNL     1       3.794  -3.907   0.385  0.00  0.00    +0.068 A 
ATOM     14  C   UNL     1       5.119  -4.277   0.571  0.00  0.00    +0.026 A 
ATOM     15  F   UNL     1       1.506  -4.523   0.213  0.00  0.00    -0.204 F 
ENDBRANCH   1  13
BRANCH   3  16
ATOM     16  C   UNL     1       2.818   0.114  -0.535  0.00  0.00    +0.253 C 
ATOM     17  O   UNL     1       2.011  -0.756  -0.803  0.00  0.00    -0.270 OA
ATOM     18  N   UNL     1       2.522   1.406  -0.781  0.00  0.00    -0.266 N 
ATOM     19  H   UNL     1       3.165   2.100  -0.567  0.00  0.00    +0.157 HD
BRANCH  18  20
ATOM     20  C   UNL     1       1.292   1.744  -1.343  0.00  0.00    +0.124 A 
ATOM     21  C   UNL     1       0.301   0.879  -1.692  0.00  0.00    +0.065 A 
ATOM     22  C   UNL     1      -0.754   1.627  -2.222  0.00  0.00    +0.136 A 
ATOM     23  N   UNL     1      -0.422   2.892  -2.187  0.00  0.00    -0.178 NA
ATOM     24  N   UNL     1       0.863   2.998  -1.642  0.00  0.00    -0.243 N 
BRANCH  24  25
ATOM     25  C   UNL     1       1.612   4.239  -1.432  0.00  0.00    +0.219 C 
BRANCH  25  26
ATOM     26  C   UNL     1       2.430   4.546  -2.660  0.00  0.00    +0.126 A 
ATOM     27  C   UNL     1       2.022   5.274  -3.715  0.00  0.00    +0.046 A 
ATOM     28  C   UNL     1       3.100   5.310  -4.630  0.00  0.00    +0.041 A 
ATOM     29  C   UNL     1       4.099   4.595  -4.082  0.00  0.00    +0.195 A 
ATOM     30  O   UNL     1       3.688   4.135  -2.889  0.00  0.00    -0.466 OA
ENDBRANCH  25  26
ENDBRANCH  24  25
ENDBRANCH  18  20
ENDBRANCH   3  16
TORSDOF 5
