REMARK  Name = ZINC06024616
REMARK  8 active torsions:
REMARK  status: ('A' for Active; 'I' for Inactive)
REMARK    1  A    between atoms: C_1  and  C_2
REMARK    2  A    between atoms: C_2  and  O_3
REMARK    3  A    between atoms: O_3  and  C_4
REMARK    4  A    between atoms: C_7  and  C_10
REMARK    5  A    between atoms: C_17  and  N_30
REMARK    6  A    between atoms: C_18  and  C_28
REMARK    7  A    between atoms: C_19  and  C_21
REMARK    8  A    between atoms: C_25  and  O_27
REMARK                            x       y       z     vdW  Elec       q    Type
REMARK                         _______ _______ _______ _____ _____    ______ ____
ROOT
ATOM      1  C   UNL     1       1.302  -6.384  -1.886  0.00  0.00    +0.100 A 
ATOM      2  C   UNL     1       1.035  -6.909  -3.155  0.00  0.00    +0.054 A 
ATOM      3  C   UNL     1       1.147  -8.267  -3.083  0.00  0.00    +0.223 A 
ATOM      4  N   UNL     1       1.474  -8.585  -1.813  0.00  0.00    -0.246 N 
ATOM      5  H   UNL     1       1.620  -9.480  -1.469  0.00  0.00    +0.192 HD
ATOM      6  N   UNL     1       1.571  -7.393  -1.079  0.00  0.00    -0.171 NA
ATOM      7  O   UNL     1       0.945  -9.076  -4.152  0.00  0.00    -0.423 OA
ATOM      8  C   UNL     1       0.359  -8.538  -5.241  0.00  0.00    +0.200 C 
ATOM      9  C   UNL     1       0.203  -7.209  -5.431  0.00  0.00    +0.098 C 
ATOM     10  C   UNL     1       0.681  -6.187  -4.429  0.00  0.00    +0.102 C 
ENDROOT
BRANCH   1  14
ATOM     11  C   UNL     1       1.268  -2.266  -0.822  0.00  0.00    +0.121 A 
ATOM     12  C   UNL     1       0.275  -2.776  -1.647  0.00  0.00    +0.046 A 
ATOM     13  C   UNL     1       0.283  -4.111  -1.994  0.00  0.00    +0.013 A 
ATOM     14  C   UNL     1       1.290  -4.947  -1.515  0.00  0.00    +0.003 A 
ATOM     15  C   UNL     1       2.285  -4.432  -0.687  0.00  0.00    +0.013 A 
ATOM     16  C   UNL     1       2.275  -3.095  -0.347  0.00  0.00    +0.046 A 
BRANCH  11  17
ATOM     17  O   UNL     1       1.257  -0.950  -0.481  0.00  0.00    -0.492 OA
BRANCH  17  19
ATOM     18  C   UNL     1       0.346   1.288  -0.517  0.00  0.00    +0.048 C 
ATOM     19  C   UNL     1       0.192  -0.154  -1.004  0.00  0.00    +0.225 C 
ENDBRANCH  17  19
ENDBRANCH  11  17
ENDBRANCH   1  14
BRANCH  10  20
ATOM     20  C   UNL     1       1.897  -5.478  -4.967  0.00  0.00    -0.031 A 
ATOM     21  C   UNL     1       3.055  -6.190  -5.223  0.00  0.00    +0.005 A 
ATOM     22  C   UNL     1       4.173  -5.543  -5.716  0.00  0.00    +0.004 A 
ATOM     23  C   UNL     1       4.136  -4.183  -5.955  0.00  0.00    +0.045 A 
ATOM     24  C   UNL     1       2.975  -3.466  -5.699  0.00  0.00    +0.117 A 
ATOM     25  C   UNL     1       1.853  -4.119  -5.210  0.00  0.00    +0.050 A 
BRANCH  24  26
ATOM     26  O   UNL     1       2.936  -2.128  -5.933  0.00  0.00    -0.507 OA
ATOM     27  H   UNL     1       2.649  -1.893  -6.826  0.00  0.00    +0.292 HD
ENDBRANCH  24  26
ENDBRANCH  10  20
BRANCH   8  28
ATOM     28  N   UNL     1      -0.106  -9.389  -6.212  0.00  0.00    -0.328 N 
ATOM     29  H   UNL     1      -0.009 -10.348  -6.104  0.00  0.00    +0.145 HD
ATOM     30  H   UNL     1      -0.533  -9.031  -7.007  0.00  0.00    +0.145 HD
ENDBRANCH   8  28
BRANCH   9  31
ATOM     31  C   UNL     1      -0.439  -6.753  -6.628  0.00  0.00    +0.101 C 
ATOM     32  N   UNL     1      -0.948  -6.392  -7.577  0.00  0.00    -0.191 NA
ENDBRANCH   9  31
TORSDOF 7
