REMARK  Name = ZINC35853736
REMARK  8 active torsions:
REMARK  status: ('A' for Active; 'I' for Inactive)
REMARK    1  A    between atoms: C_1  and  C_2
REMARK    2  A    between atoms: C_2  and  N_3
REMARK    3  A    between atoms: C_9  and  C_11
REMARK    4  A    between atoms: C_14  and  C_16
REMARK    5  A    between atoms: C_16  and  N_17
REMARK    6  A    between atoms: N_20  and  C_23
REMARK    7  A    between atoms: C_27  and  C_30
REMARK    8  A    between atoms: C_28  and  C_29
REMARK                            x       y       z     vdW  Elec       q    Type
REMARK                         _______ _______ _______ _____ _____    ______ ____
ROOT
ATOM      1  C   UNL     1       1.139  -4.139  -4.567  0.00  0.00    +0.190 A 
ATOM      2  C   UNL     1       1.010  -5.049  -5.577  0.00  0.00    +0.055 A 
ATOM      3  C   UNL     1       1.539  -6.259  -5.100  0.00  0.00    +0.043 A 
ATOM      4  C   UNL     1       1.963  -6.036  -3.836  0.00  0.00    +0.090 A 
ATOM      5  O   UNL     1       1.725  -4.756  -3.521  0.00  0.00    -0.457 OA
ENDROOT
BRANCH   1  12
ATOM      6  N   UNL     1      -0.064  -0.675  -1.172  0.00  0.00    +0.382 N 
ATOM      7  C   UNL     1      -0.540  -0.196  -2.476  0.00  0.00    -0.060 C 
ATOM      8  C   UNL     1       0.496  -0.534  -3.553  0.00  0.00    +0.089 C 
ATOM      9  N   UNL     1       0.769  -1.978  -3.500  0.00  0.00    -0.299 N 
ATOM     10  C   UNL     1       1.096  -2.575  -2.196  0.00  0.00    +0.089 C 
ATOM     11  C   UNL     1       0.031  -2.141  -1.183  0.00  0.00    -0.060 C 
ATOM     12  C   UNL     1       0.721  -2.734  -4.615  0.00  0.00    +0.282 C 
ATOM     13  O   UNL     1       0.331  -2.250  -5.661  0.00  0.00    -0.267 OA
ATOM     14  H   UNL     1       0.845  -0.282  -0.983  0.00  0.00    -0.082 HD
BRANCH   6  16
ATOM     15  C   UNL     1      -1.012   1.272  -0.028  0.00  0.00    -0.017 C 
ATOM     16  C   UNL     1      -1.004  -0.256  -0.124  0.00  0.00    -0.082 C 
ENDBRANCH   6  16
ENDBRANCH   1  12
BRANCH   4  17
ATOM     17  C   UNL     1       2.602  -7.059  -2.932  0.00  0.00    -0.003 C 
BRANCH  17  18
ATOM     18  N   UNL     1       4.059  -7.036  -3.120  0.00  0.00    +0.386 N 
ATOM     19  C   UNL     1       4.381  -7.457  -4.489  0.00  0.00    -0.059 C 
ATOM     20  C   UNL     1       5.889  -7.324  -4.723  0.00  0.00    +0.086 C 
ATOM     21  N   UNL     1       6.592  -8.079  -3.674  0.00  0.00    -0.333 N 
ATOM     22  C   UNL     1       6.213  -7.836  -2.273  0.00  0.00    +0.086 C 
ATOM     23  C   UNL     1       4.690  -7.945  -2.156  0.00  0.00    -0.059 C 
ATOM     24  H   UNL     1       4.401  -6.098  -2.970  0.00  0.00    -0.081 HD
BRANCH  21  25
ATOM     25  C   UNL     1       7.590  -9.001  -3.999  0.00  0.00    +0.033 A 
ATOM     26  C   UNL     1       8.915  -8.592  -4.082  0.00  0.00    +0.023 A 
ATOM     27  C   UNL     1       9.899  -9.505  -4.403  0.00  0.00    +0.002 A 
ATOM     28  C   UNL     1       9.567 -10.827  -4.642  0.00  0.00    +0.004 A 
ATOM     29  C   UNL     1       8.249 -11.237  -4.560  0.00  0.00    -0.046 A 
ATOM     30  C   UNL     1       7.261 -10.330  -4.233  0.00  0.00    -0.027 A 
ATOM     31  C   UNL     1       5.825 -10.780  -4.138  0.00  0.00    +0.046 C 
ATOM     32  C   UNL     1       7.892 -12.678  -4.822  0.00  0.00    +0.044 C 
ENDBRANCH  21  25
ENDBRANCH  17  18
ENDBRANCH   4  17
TORSDOF 5
