REMARK  Name = ZINC60582423
REMARK  6 active torsions:
REMARK  status: ('A' for Active; 'I' for Inactive)
REMARK    1  A    between atoms: C_5  and  C_7
REMARK    2  A    between atoms: C_7  and  C_8
REMARK    3  A    between atoms: C_7  and  O_25
REMARK    4  A    between atoms: C_8  and  N_9
REMARK    5  A    between atoms: N_12  and  C_13
REMARK    6  A    between atoms: C_15  and  C_21
REMARK                            x       y       z     vdW  Elec       q    Type
REMARK                         _______ _______ _______ _____ _____    ______ ____
ROOT
ATOM      1  N   UNL     1       1.347  -4.175   1.420  0.00  0.00    -0.296 N 
ATOM      2  C   UNL     1       1.490  -4.866   2.568  0.00  0.00    +0.304 C 
ATOM      3  O   UNL     1       1.352  -4.303   3.637  0.00  0.00    -0.253 OA
ATOM      4  N   UNL     1       1.786  -6.180   2.531  0.00  0.00    -0.265 N 
ATOM      5  H   UNL     1       1.457  -4.624   0.567  0.00  0.00    +0.150 HD
ATOM      6  H   UNL     1       1.823  -6.645   1.681  0.00  0.00    +0.157 HD
ENDROOT
BRANCH   4   7
ATOM      7  C   UNL     1       2.040  -6.875   3.722  0.00  0.00    +0.100 A 
ATOM      8  C   UNL     1       1.280  -7.960   4.066  0.00  0.00    +0.042 A 
ATOM      9  C   UNL     1       1.556  -8.637   5.263  0.00  0.00    +0.073 A 
ATOM     10  C   UNL     1       2.563  -8.217   6.062  0.00  0.00    +0.098 A 
ATOM     11  N   UNL     1       3.318  -7.139   5.722  0.00  0.00    -0.327 N 
ATOM     12  H   UNL     1       4.036  -6.853   6.309  0.00  0.00    +0.168 HD
ATOM     13  C   UNL     1       3.086  -6.468   4.578  0.00  0.00    +0.270 A 
ATOM     14  O   UNL     1       3.776  -5.505   4.283  0.00  0.00    -0.266 OA
BRANCH   9  15
ATOM     15  C   UNL     1       0.730  -9.834   5.658  0.00  0.00    +0.419 C 
ATOM     16  F   UNL     1       1.190 -10.336   6.880  0.00  0.00    -0.166 F 
ATOM     17  F   UNL     1      -0.611  -9.453   5.786  0.00  0.00    -0.166 F 
ATOM     18  F   UNL     1       0.842 -10.823   4.676  0.00  0.00    -0.166 F 
ENDBRANCH   9  15
ENDBRANCH   4   7
BRANCH   1  19
ATOM     19  C   UNL     1       1.025  -2.746   1.460  0.00  0.00    +0.142 C 
BRANCH  19  20
ATOM     20  C   UNL     1       0.919  -2.207   0.032  0.00  0.00    +0.164 C 
BRANCH  20  25
ATOM     21  C   UNL     1      -0.760   1.174   0.048  0.00  0.00    +0.001 A 
ATOM     22  C   UNL     1       0.327   2.023   0.146  0.00  0.00    +0.003 A 
ATOM     23  C   UNL     1       1.606   1.505   0.207  0.00  0.00    +0.039 A 
ATOM     24  C   UNL     1       1.800   0.134   0.171  0.00  0.00    +0.129 A 
ATOM     25  C   UNL     1       0.711  -0.715   0.073  0.00  0.00    +0.018 A 
ATOM     26  C   UNL     1      -0.568  -0.194   0.011  0.00  0.00    +0.009 A 
ATOM     27  F   UNL     1       3.050  -0.374   0.230  0.00  0.00    -0.205 F 
ENDBRANCH  20  25
BRANCH  20  28
ATOM     28  O   UNL     1      -0.186  -2.825  -0.630  0.00  0.00    -0.386 OA
ATOM     29  H   UNL     1      -1.039  -2.668  -0.201  0.00  0.00    +0.210 HD
ENDBRANCH  20  28
ENDBRANCH  19  20
ENDBRANCH   1  19
TORSDOF 6
