REMARK  Name = ZINC48927080
REMARK  8 active torsions:
REMARK  status: ('A' for Active; 'I' for Inactive)
REMARK    1  A    between atoms: C_1  and  C_2
REMARK    2  A    between atoms: C_2  and  C_3
REMARK    3  A    between atoms: C_3  and  O_4
REMARK    4  A    between atoms: O_4  and  C_5
REMARK    5  A    between atoms: C_6  and  N_19
REMARK    6  A    between atoms: C_9  and  N_11
REMARK    7  A    between atoms: C_16  and  C_17
REMARK    8  A    between atoms: C_16  and  C_18
REMARK                            x       y       z     vdW  Elec       q    Type
REMARK                         _______ _______ _______ _____ _____    ______ ____
ROOT
ATOM      1  C   UNL     1      -2.462  -2.038   0.207  0.00  0.00    +0.238 A 
ATOM      2  C   UNL     1      -2.346  -3.409  -0.010  0.00  0.00    +0.087 A 
ATOM      3  C   UNL     1      -3.497  -4.162  -0.215  0.00  0.00    +0.031 A 
ATOM      4  C   UNL     1      -4.722  -3.515  -0.195  0.00  0.00    +0.046 A 
ATOM      5  C   UNL     1      -4.764  -2.145   0.028  0.00  0.00    +0.126 A 
ATOM      6  N   UNL     1      -3.649  -1.456   0.225  0.00  0.00    -0.196 NA
ENDROOT
BRANCH   5   7
ATOM      7  N   UNL     1      -5.992  -1.488   0.049  0.00  0.00    -0.305 N 
ATOM      8  C   UNL     1      -6.576  -0.934  -1.183  0.00  0.00    +0.135 C 
ATOM      9  C   UNL     1      -6.974   0.523  -0.917  0.00  0.00    +0.179 C 
ATOM     10  O   UNL     1      -7.791   0.580   0.255  0.00  0.00    -0.376 OA
ATOM     11  C   UNL     1      -7.134   0.147   1.449  0.00  0.00    +0.185 C 
ATOM     12  C   UNL     1      -6.747  -1.333   1.302  0.00  0.00    +0.054 C 
ATOM     13  C   UNL     1      -8.008  -2.197   1.255  0.00  0.00    +0.034 C 
ATOM     14  C   UNL     1      -5.874  -1.758   2.485  0.00  0.00    +0.034 C 
ENDBRANCH   5   7
BRANCH   2  15
ATOM     15  N   UNL     1      -1.084  -4.022  -0.023  0.00  0.00    -0.354 N 
ATOM     16  H   UNL     1      -0.285  -3.491   0.121  0.00  0.00    +0.142 HD
ATOM     17  H   UNL     1      -1.011  -4.978  -0.175  0.00  0.00    +0.142 HD
ENDBRANCH   2  15
BRANCH   1  18
ATOM     18  O   UNL     1      -1.345  -1.293   0.409  0.00  0.00    -0.475 OA
BRANCH  18  19
ATOM     19  C   UNL     1      -1.530   0.107   0.633  0.00  0.00    +0.230 C 
BRANCH  19  21
ATOM     20  C   UNL     1      -0.368   2.273   1.078  0.00  0.00    +0.007 C 
ATOM     21  C   UNL     1      -0.169   0.775   0.839  0.00  0.00    +0.038 C 
ENDBRANCH  19  21
ENDBRANCH  18  19
ENDBRANCH   1  18
TORSDOF 5
