REMARK  Name = ZINC32266942
REMARK  0 active torsions:
REMARK  status: ('A' for Active; 'I' for Inactive)
REMARK                            x       y       z     vdW  Elec       q    Type
REMARK                         _______ _______ _______ _____ _____    ______ ____
ROOT
ATOM      1  C   UNL     1      -0.013   1.076   0.008  0.00  0.00    +0.001 A 
ATOM      2  C   UNL     1      -1.221   1.746   0.017  0.00  0.00    +0.001 A 
ATOM      3  C   UNL     1      -1.252   3.130   0.029  0.00  0.00    +0.012 A 
ATOM      4  C   UNL     1      -0.062   3.850   0.023  0.00  0.00    +0.033 A 
ATOM      5  C   UNL     1       1.168   3.169   0.008  0.00  0.00    +0.013 A 
ATOM      6  C   UNL     1       1.181   1.780   0.000  0.00  0.00    +0.011 A 
ATOM      7  C   UNL     1       2.267   4.169   0.003  0.00  0.00    +0.103 A 
ATOM      8  C   UNL     1       1.695   5.464   0.015  0.00  0.00    +0.138 A 
ATOM      9  N   UNL     1       2.465   6.537   0.014  0.00  0.00    -0.235 NA
ATOM     10  C   UNL     1       3.784   6.398   0.001  0.00  0.00    +0.148 A 
ATOM     11  C   UNL     1       4.684   7.554  -0.000  0.00  0.00    +0.149 A 
ATOM     12  N   UNL     1       5.990   7.319  -0.013  0.00  0.00    -0.198 NA
ATOM     13  C   UNL     1       6.466   6.078  -0.024  0.00  0.00    +0.216 A 
ATOM     14  N   UNL     1       5.700   5.003  -0.023  0.00  0.00    -0.193 NA
ATOM     15  C   UNL     1       4.367   5.104  -0.011  0.00  0.00    +0.186 A 
ATOM     16  N   UNL     1       3.581   4.023  -0.009  0.00  0.00    -0.224 NA
ATOM     17  N   UNL     1       7.836   5.905  -0.036  0.00  0.00    -0.327 N 
ATOM     18  N   UNL     1       4.192   8.840   0.012  0.00  0.00    -0.341 N 
ATOM     19  C   UNL     1       0.220   5.304   0.028  0.00  0.00    +0.214 C 
ATOM     20  O   UNL     1      -0.602   6.198   0.041  0.00  0.00    -0.285 OA
ATOM     21  H   UNL     1       8.261   4.891  -0.046  0.00  0.00    +0.145 HD
ATOM     22  H   UNL     1       8.501   6.781  -0.037  0.00  0.00    +0.145 HD
ATOM     23  H   UNL     1       4.886   9.694   0.010  0.00  0.00    +0.144 HD
ATOM     24  H   UNL     1       3.106   9.013   0.022  0.00  0.00    +0.144 HD
ENDROOT
TORSDOF 0
