REMARK  Name = ZINC06280345
REMARK  16 active torsions:
REMARK  status: ('A' for Active; 'I' for Inactive)
REMARK    1  A    between atoms: C_1  and  C_2
REMARK    2  A    between atoms: C_5  and  N_9
REMARK    3  A    between atoms: C_7  and  C_8
REMARK    4  A    between atoms: N_9  and  C_10
REMARK    5  A    between atoms: C_10  and  C_12
REMARK    6  A    between atoms: C_10  and  C_21
REMARK    7  A    between atoms: C_15  and  N_18
REMARK    8  A    between atoms: N_18  and  C_19
REMARK    9  A    between atoms: N_18  and  C_20
REMARK   10  A    between atoms: N_23  and  C_24
REMARK   11  A    between atoms: C_24  and  C_25
REMARK   12  A    between atoms: C_25  and  O_26
REMARK   13  A    between atoms: O_26  and  C_27
REMARK   14  A    between atoms: C_28  and  C_30
REMARK   15  A    between atoms: C_31  and  N_38
REMARK   16  A    between atoms: C_32  and  C_35
REMARK                            x       y       z     vdW  Elec       q    Type
REMARK                         _______ _______ _______ _____ _____    ______ ____
ROOT
ATOM      1  N   UNL     1       2.337   3.850   0.032  0.00  0.00    -0.251 N 
ATOM      2  C   UNL     1       2.323   4.832   0.956  0.00  0.00    +0.262 C 
ATOM      3  O   UNL     1       3.260   4.958   1.723  0.00  0.00    -0.269 OA
ENDROOT
BRANCH   1   8
ATOM      4  C   UNL     1      -1.797   3.528  -3.839  0.00  0.00    +0.044 C 
ATOM      5  C   UNL     1      -0.700   3.617  -2.810  0.00  0.00    -0.047 A 
ATOM      6  C   UNL     1      -0.927   3.174  -1.519  0.00  0.00    +0.005 A 
ATOM      7  C   UNL     1       0.078   3.248  -0.575  0.00  0.00    +0.024 A 
ATOM      8  C   UNL     1       1.317   3.774  -0.921  0.00  0.00    +0.038 A 
ATOM      9  C   UNL     1       1.540   4.223  -2.216  0.00  0.00    +0.027 A 
ATOM     10  C   UNL     1       0.530   4.146  -3.156  0.00  0.00    -0.046 A 
ATOM     11  C   UNL     1       0.771   4.633  -4.562  0.00  0.00    +0.044 C 
ENDBRANCH   1   8
BRANCH   2  12
ATOM     12  C   UNL     1       1.183   5.746   1.037  0.00  0.00    +0.116 A 
ATOM     13  C   UNL     1       0.939   6.779   1.943  0.00  0.00    +0.076 A 
ATOM     14  C   UNL     1      -0.268   7.433   1.696  0.00  0.00    +0.155 A 
ATOM     15  N   UNL     1      -1.019   7.039   0.692  0.00  0.00    -0.203 NA
ATOM     16  S   UNL     1      -0.262   5.842  -0.000  0.00  0.00    +0.019 S 
BRANCH  14  17
ATOM     17  C   UNL     1      -0.697   8.554   2.552  0.00  0.00    +0.262 C 
ATOM     18  O   UNL     1       0.003   8.913   3.480  0.00  0.00    -0.269 OA
ATOM     19  N   UNL     1      -1.865   9.181   2.307  0.00  0.00    -0.324 N 
ATOM     20  H   UNL     1      -2.423   8.894   1.567  0.00  0.00    +0.145 HD
ATOM     21  H   UNL     1      -2.147   9.918   2.870  0.00  0.00    +0.145 HD
ENDBRANCH  14  17
BRANCH  13  22
ATOM     22  N   UNL     1       1.802   7.118   2.977  0.00  0.00    -0.355 N 
ATOM     23  H   UNL     1       2.629   6.625   3.100  0.00  0.00    +0.142 HD
ATOM     24  H   UNL     1       1.579   7.847   3.576  0.00  0.00    +0.142 HD
ENDBRANCH  13  22
ENDBRANCH   2  12
BRANCH   1  25
ATOM     25  C   UNL     1       3.420   2.864   0.027  0.00  0.00    +0.197 C 
BRANCH  25  26
ATOM     26  C   UNL     1       3.301   1.995  -1.199  0.00  0.00    -0.018 A 
ATOM     27  C   UNL     1       2.150   1.261  -1.415  0.00  0.00    +0.008 A 
ATOM     28  C   UNL     1       2.035   0.467  -2.539  0.00  0.00    +0.023 A 
ATOM     29  C   UNL     1       3.084   0.398  -3.448  0.00  0.00    +0.029 A 
ATOM     30  C   UNL     1       4.242   1.132  -3.225  0.00  0.00    +0.023 A 
ATOM     31  C   UNL     1       4.347   1.928  -2.101  0.00  0.00    +0.008 A 
BRANCH  29  32
ATOM     32  N   UNL     1       2.974  -0.408  -4.583  0.00  0.00    -0.336 N 
ATOM     33  C   UNL     1       4.123  -0.574  -5.478  0.00  0.00    +0.129 C 
ATOM     34  C   UNL     1       1.710  -1.087  -4.880  0.00  0.00    +0.129 C 
ENDBRANCH  29  32
ENDBRANCH  25  26
BRANCH  25  35
ATOM     35  C   UNL     1       3.325   2.007   1.262  0.00  0.00    +0.239 C 
ATOM     36  O   UNL     1       2.439   2.200   2.068  0.00  0.00    -0.273 OA
ATOM     37  N   UNL     1       4.223   1.024   1.472  0.00  0.00    -0.311 N 
ATOM     38  H   UNL     1       4.931   0.869   0.827  0.00  0.00    +0.149 HD
BRANCH  37  39
ATOM     39  C   UNL     1       4.131   0.191   2.673  0.00  0.00    +0.132 C 
BRANCH  39  40
ATOM     40  C   UNL     1       5.262  -0.839   2.667  0.00  0.00    +0.178 C 
BRANCH  40  41
ATOM     41  O   UNL     1       6.519  -0.167   2.770  0.00  0.00    -0.381 OA
ATOM     42  C   UNL     1       7.648  -1.043   2.773  0.00  0.00    +0.194 C 
ENDBRANCH  40  41
ENDBRANCH  39  40
ENDBRANCH  37  39
ENDBRANCH  25  35
ENDBRANCH   1  25
TORSDOF 11
