REMARK  Name = ZINC42334872
REMARK  4 active torsions:
REMARK  status: ('A' for Active; 'I' for Inactive)
REMARK    1  A    between atoms: C_3  and  S_9
REMARK    2  A    between atoms: C_4  and  N_8
REMARK    3  A    between atoms: S_9  and  C_10
REMARK    4  A    between atoms: C_10  and  C_18
REMARK                            x       y       z     vdW  Elec       q    Type
REMARK                         _______ _______ _______ _____ _____    ______ ____
ROOT
ATOM      1  S   UNL     1       3.740   2.294   0.083  0.00  0.00    -0.105 S 
ENDROOT
BRANCH   1   2
ATOM      2  C   UNL     1       3.369   4.053  -0.163  0.00  0.00    +0.125 C 
ATOM      3  C   UNL     1       2.625   4.585   1.058  0.00  0.00    +0.052 C 
ATOM      4  C   UNL     1       2.068   5.980   0.764  0.00  0.00    +0.168 C 
ATOM      5  S   UNL     1       3.455   7.113   0.455  0.00  0.00    -0.031 S 
ATOM      6  O   UNL     1       2.939   8.321  -0.087  0.00  0.00    -0.174 OA
ATOM      7  O   UNL     1       4.264   7.166   1.622  0.00  0.00    -0.174 OA
ATOM      8  C   UNL     1       4.373   6.241  -0.849  0.00  0.00    +0.168 C 
ATOM      9  C   UNL     1       4.673   4.816  -0.375  0.00  0.00    +0.052 C 
BRANCH   2  10
ATOM     10  C   UNL     1       2.498   4.210  -1.382  0.00  0.00    +0.372 C 
ATOM     11  O   UNL     1       2.180   3.231  -2.035  0.00  0.00    -0.245 OA
ATOM     12  O   UNL     1       2.109   5.317  -1.715  0.00  0.00    -0.245 OA
ENDBRANCH   2  10
ENDBRANCH   1   2
BRANCH   1  15
ATOM     13  C   UNL     1      -0.235   1.717   0.287  0.00  0.00    +0.016 A 
ATOM     14  C   UNL     1       1.006   2.303   0.120  0.00  0.00    +0.017 A 
ATOM     15  C   UNL     1       2.157   1.550   0.297  0.00  0.00    +0.030 A 
ATOM     16  C   UNL     1       2.059   0.202   0.644  0.00  0.00    +0.039 A 
ATOM     17  C   UNL     1       0.811  -0.377   0.810  0.00  0.00    +0.039 A 
ATOM     18  C   UNL     1      -0.333   0.381   0.631  0.00  0.00    +0.020 A 
ATOM     19 BR   UNL     1      -2.035  -0.412   0.859  0.00  0.00    -0.050 Br
BRANCH  16  20
ATOM     20  N   UNL     1       3.217  -0.563   0.823  0.00  0.00    -0.357 N 
ATOM     21  H   UNL     1       4.090  -0.156   0.707  0.00  0.00    +0.142 HD
ATOM     22  H   UNL     1       3.147  -1.500   1.065  0.00  0.00    +0.142 HD
ENDBRANCH  16  20
ENDBRANCH   1  15
TORSDOF 4
