REMARK  Name = ZINC54398245
REMARK  6 active torsions:
REMARK  status: ('A' for Active; 'I' for Inactive)
REMARK    1  A    between atoms: C_1  and  C_2
REMARK    2  A    between atoms: C_4  and  C_19
REMARK    3  A    between atoms: C_6  and  N_8
REMARK    4  A    between atoms: N_8  and  C_9
REMARK    5  A    between atoms: C_11  and  C_16
REMARK    6  A    between atoms: C_16  and  N_18
REMARK                            x       y       z     vdW  Elec       q    Type
REMARK                         _______ _______ _______ _____ _____    ______ ____
ROOT
ATOM      1  N   UNL     1      -0.037  -2.835   2.443  0.00  0.00    -0.286 N 
ATOM      2  C   UNL     1      -0.217  -4.289   2.471  0.00  0.00    +0.137 C 
ATOM      3  C   UNL     1       0.098  -2.131   3.627  0.00  0.00    +0.153 A 
ATOM      4  C   UNL     1      -1.042  -1.702   4.329  0.00  0.00    +0.132 A 
ATOM      5  N   UNL     1      -0.900  -1.027   5.466  0.00  0.00    -0.248 NA
ATOM      6  C   UNL     1       0.306  -0.763   5.929  0.00  0.00    +0.131 A 
ATOM      7  C   UNL     1       1.431  -1.186   5.237  0.00  0.00    +0.132 A 
ATOM      8  N   UNL     1       1.305  -1.862   4.109  0.00  0.00    -0.236 NA
ENDROOT
BRANCH   1  14
ATOM      9  C   UNL     1       0.140   1.399  -0.047  0.00  0.00    +0.044 C 
ATOM     10  C   UNL     1       0.084  -0.106  -0.017  0.00  0.00    -0.048 A 
ATOM     11  C   UNL     1       0.065  -0.821  -1.201  0.00  0.00    +0.006 A 
ATOM     12  C   UNL     1       0.013  -2.202  -1.178  0.00  0.00    -0.048 A 
ATOM     13  C   UNL     1      -0.021  -2.873   0.029  0.00  0.00    +0.026 A 
ATOM     14  C   UNL     1      -0.003  -2.159   1.220  0.00  0.00    +0.035 A 
ATOM     15  C   UNL     1       0.056  -0.771   1.193  0.00  0.00    +0.026 A 
ATOM     16  C   UNL     1      -0.007  -2.977  -2.470  0.00  0.00    +0.044 C 
ENDBRANCH   1  14
BRANCH   4  17
ATOM     17  C   UNL     1      -2.389  -1.999   3.806  0.00  0.00    +0.099 C 
ATOM     18  S   UNL     1      -2.569  -2.726   2.267  0.00  0.00    -0.033 S 
BRANCH  17  19
ATOM     19  N   UNL     1      -3.478  -1.698   4.541  0.00  0.00    -0.350 N 
ATOM     20  H   UNL     1      -3.376  -1.286   5.413  0.00  0.00    +0.143 HD
ATOM     21  H   UNL     1      -4.364  -1.893   4.197  0.00  0.00    +0.143 HD
ENDBRANCH  17  19
ENDBRANCH   4  17
TORSDOF 3
