REMARK  Name = ZINC23156894
REMARK  7 active torsions:
REMARK  status: ('A' for Active; 'I' for Inactive)
REMARK    1  A    between atoms: C_1  and  C_2
REMARK    2  A    between atoms: C_5  and  C_8
REMARK    3  A    between atoms: C_8  and  C_10
REMARK    4  A    between atoms: C_8  and  N_20
REMARK    5  A    between atoms: C_11  and  O_19
REMARK    6  A    between atoms: C_16  and  C_18
REMARK    7  A    between atoms: N_23  and  C_26
REMARK                            x       y       z     vdW  Elec       q    Type
REMARK                         _______ _______ _______ _____ _____    ______ ____
ROOT
ATOM      1  C   UNL     1      -6.203  -0.532  -1.033  0.00  0.00    +0.129 C 
ENDROOT
BRANCH   1   2
ATOM      2  C   UNL     1      -7.358   0.431  -1.116  0.00  0.00    +0.076 A 
ATOM      3  C   UNL     1      -8.498   0.446  -0.415  0.00  0.00    +0.228 A 
ATOM      4  N   UNL     1      -9.444   1.417  -0.637  0.00  0.00    -0.173 N 
ATOM      5  C   UNL     1      -9.168   2.350  -1.590  0.00  0.00    +0.199 A 
ATOM      6  S   UNL     1      -7.563   1.858  -2.171  0.00  0.00    -0.047 S 
ATOM      7  N   UNL     1     -10.160   3.194  -1.676  0.00  0.00    -0.205 NA
ATOM      8  C   UNL     1     -11.104   2.855  -0.801  0.00  0.00    +0.150 A 
ATOM      9  N   UNL     1     -10.724   1.789  -0.149  0.00  0.00    -0.147 NA
ATOM     10  C   UNL     1     -12.407   3.584  -0.597  0.00  0.00    +0.090 C 
BRANCH   3  11
ATOM     11  O   UNL     1      -8.723  -0.511   0.525  0.00  0.00    -0.492 OA
ATOM     12  H   UNL     1      -9.658  -0.504   1.104  0.00  0.00    +0.294 HD
ENDBRANCH   3  11
ENDBRANCH   1   2
BRANCH   1  17
ATOM     13  C   UNL     1      -6.335  -4.095  -5.581  0.00  0.00    +0.044 C 
ATOM     14  C   UNL     1      -6.300  -3.166  -4.395  0.00  0.00    -0.050 A 
ATOM     15  C   UNL     1      -6.785  -3.589  -3.171  0.00  0.00    +0.004 A 
ATOM     16  C   UNL     1      -6.753  -2.736  -2.083  0.00  0.00    +0.006 A 
ATOM     17  C   UNL     1      -6.237  -1.462  -2.219  0.00  0.00    -0.025 A 
ATOM     18  C   UNL     1      -5.756  -1.037  -3.444  0.00  0.00    +0.006 A 
ATOM     19  C   UNL     1      -5.783  -1.891  -4.530  0.00  0.00    +0.004 A 
ENDBRANCH   1  17
BRANCH   1  20
ATOM     20  N   UNL     1      -4.939   0.217  -1.034  0.00  0.00    -0.288 NA
ATOM     21  C   UNL     1      -4.871   1.136   0.111  0.00  0.00    +0.104 C 
ATOM     22  C   UNL     1      -3.579   1.953   0.029  0.00  0.00    +0.120 C 
ATOM     23  N   UNL     1      -2.426   1.042   0.019  0.00  0.00    -0.327 N 
ATOM     24  C   UNL     1      -2.495   0.123  -1.126  0.00  0.00    +0.120 C 
ATOM     25  C   UNL     1      -3.786  -0.694  -1.045  0.00  0.00    +0.104 C 
BRANCH  23  26
ATOM     26  C   UNL     1      -1.225   1.755   0.017  0.00  0.00    +0.031 A 
ATOM     27  C   UNL     1      -0.013   1.076   0.008  0.00  0.00    +0.023 A 
ATOM     28  C   UNL     1       1.173   1.783   0.000  0.00  0.00    +0.003 A 
ATOM     29  C   UNL     1       1.156   3.166   0.008  0.00  0.00    +0.020 A 
ATOM     30  C   UNL     1      -0.049   3.845   0.023  0.00  0.00    +0.043 A 
ATOM     31  C   UNL     1      -1.240   3.143   0.031  0.00  0.00    +0.043 A 
ATOM     32 CL   UNL     1      -0.066   5.581   0.032  0.00  0.00    -0.083 Cl
ENDBRANCH  23  26
ENDBRANCH   1  20
TORSDOF 5
