REMARK  Name = ZINC56644129
REMARK  10 active torsions:
REMARK  status: ('A' for Active; 'I' for Inactive)
REMARK    1  A    between atoms: C_1  and  C_2
REMARK    2  A    between atoms: C_8  and  O_10
REMARK    3  A    between atoms: O_10  and  C_11
REMARK    4  A    between atoms: C_11  and  C_12
REMARK    5  A    between atoms: C_12  and  N_13
REMARK    6  A    between atoms: N_16  and  N_17
REMARK    7  A    between atoms: C_18  and  C_20
REMARK    8  A    between atoms: C_20  and  C_21
REMARK    9  A    between atoms: C_26  and  O_27
REMARK   10  A    between atoms: O_27  and  C_28
REMARK                            x       y       z     vdW  Elec       q    Type
REMARK                         _______ _______ _______ _____ _____    ______ ____
ROOT
ATOM      1  N   UNL     1       4.045   2.037   1.788  0.00  0.00    -0.296 N 
ATOM      2  C   UNL     1       5.197   2.702   1.572  0.00  0.00    +0.316 C 
ATOM      3  O   UNL     1       6.258   2.197   1.886  0.00  0.00    -0.251 OA
ATOM      4  N   UNL     1       5.173   3.925   1.008  0.00  0.00    -0.218 N 
ATOM      5  H   UNL     1       3.198   2.439   1.537  0.00  0.00    +0.150 HD
ATOM      6  H   UNL     1       6.003   4.404   0.853  0.00  0.00    +0.174 HD
ENDROOT
BRANCH   4   7
ATOM      7  N   UNL     1       3.951   4.506   0.646  0.00  0.00    -0.233 N 
ATOM      8  C   UNL     1       3.927   5.730   0.082  0.00  0.00    +0.234 C 
ATOM      9  O   UNL     1       4.964   6.329  -0.112  0.00  0.00    -0.274 OA
ATOM     10  H   UNL     1       3.122   4.028   0.801  0.00  0.00    +0.173 HD
BRANCH   8  11
ATOM     11  C   UNL     1       2.612   6.355  -0.307  0.00  0.00    +0.136 C 
BRANCH  11  12
ATOM     12  C   UNL     1       2.861   7.713  -0.912  0.00  0.00    +0.003 A 
ATOM     13  C   UNL     1       2.794   8.845  -0.121  0.00  0.00    +0.008 A 
ATOM     14  C   UNL     1       3.022  10.091  -0.675  0.00  0.00    +0.001 A 
ATOM     15  C   UNL     1       3.317  10.208  -2.021  0.00  0.00    +0.004 A 
ATOM     16  C   UNL     1       3.386   9.080  -2.816  0.00  0.00    +0.046 A 
ATOM     17  C   UNL     1       3.163   7.828  -2.261  0.00  0.00    +0.124 A 
BRANCH  17  18
ATOM     18  O   UNL     1       3.235   6.716  -3.039  0.00  0.00    -0.495 OA
ATOM     19  C   UNL     1       3.551   6.910  -4.419  0.00  0.00    +0.277 C 
ENDBRANCH  17  18
ENDBRANCH  11  12
ENDBRANCH   8  11
ENDBRANCH   4   7
BRANCH   1  20
ATOM     20  C   UNL     1       4.070   0.707   2.401  0.00  0.00    +0.134 C 
BRANCH  20  21
ATOM     21  C   UNL     1       2.640   0.178   2.533  0.00  0.00    +0.179 C 
BRANCH  21  22
ATOM     22  O   UNL     1       2.083  -0.016   1.231  0.00  0.00    -0.375 OA
BRANCH  22  29
ATOM     23  C   UNL     1      -0.019   1.526   0.010  0.00  0.00    +0.010 C 
ATOM     24  C   UNL     1       0.002  -0.004   0.002  0.00  0.00    +0.015 C 
ATOM     25  C   UNL     1      -1.433  -0.534   0.013  0.00  0.00    +0.006 C 
ATOM     26  C   UNL     1      -1.413  -2.063   0.004  0.00  0.00    +0.000 C 
ATOM     27  C   UNL     1      -0.673  -2.570   1.244  0.00  0.00    +0.003 C 
ATOM     28  C   UNL     1       0.763  -2.041   1.233  0.00  0.00    +0.032 C 
ATOM     29  C   UNL     1       0.742  -0.511   1.242  0.00  0.00    +0.121 C 
ENDBRANCH  22  29
ENDBRANCH  21  22
ENDBRANCH  20  21
ENDBRANCH   1  20
TORSDOF 8
