REMARK  Name = ZINC08856828
REMARK  12 active torsions:
REMARK  status: ('A' for Active; 'I' for Inactive)
REMARK    1  A    between atoms: C_1  and  C_2
REMARK    2  A    between atoms: C_2  and  C_3
REMARK    3  A    between atoms: C_3  and  C_4
REMARK    4  A    between atoms: C_11  and  N_40
REMARK    5  A    between atoms: C_12  and  C_38
REMARK    6  A    between atoms: C_13  and  C_15
REMARK    7  A    between atoms: C_18  and  C_21
REMARK    8  A    between atoms: C_24  and  C_35
REMARK    9  A    between atoms: C_30  and  N_34
REMARK   10  A    between atoms: C_31  and  C_32
REMARK   11  A    between atoms: C_35  and  C_36
REMARK   12  A    between atoms: C_36  and  C_37
REMARK                            x       y       z     vdW  Elec       q    Type
REMARK                         _______ _______ _______ _____ _____    ______ ____
ROOT
ATOM      1  C   UNL     1      -1.115  -1.947   3.897  0.00  0.00    -0.035 A 
ATOM      2  C   UNL     1      -0.416  -2.733   4.795  0.00  0.00    +0.005 A 
ATOM      3  C   UNL     1      -0.099  -2.238   6.046  0.00  0.00    +0.005 A 
ATOM      4  C   UNL     1      -0.481  -0.958   6.400  0.00  0.00    -0.035 A 
ATOM      5  C   UNL     1      -1.178  -0.171   5.502  0.00  0.00    +0.005 A 
ATOM      6  C   UNL     1      -1.491  -0.665   4.249  0.00  0.00    +0.005 A 
ENDROOT
BRANCH   1  16
ATOM      7  C   UNL     1       0.762  -2.018   1.233  0.00  0.00    +0.071 A 
ATOM      8  C   UNL     1      -0.197  -2.849   1.795  0.00  0.00    +0.049 A 
ATOM      9  C   UNL     1       0.183  -4.144   1.575  0.00  0.00    +0.222 A 
ATOM     10  N   UNL     1       1.342  -4.117   0.899  0.00  0.00    -0.246 N 
ATOM     11  H   UNL     1       1.850  -4.889   0.604  0.00  0.00    +0.192 HD
ATOM     12  N   UNL     1       1.687  -2.773   0.689  0.00  0.00    -0.176 NA
ATOM     13  O   UNL     1      -0.548  -5.204   2.000  0.00  0.00    -0.423 OA
ATOM     14  C   UNL     1      -1.810  -4.967   2.413  0.00  0.00    +0.200 C 
ATOM     15  C   UNL     1      -2.296  -3.733   2.676  0.00  0.00    +0.098 C 
ATOM     16  C   UNL     1      -1.460  -2.486   2.533  0.00  0.00    +0.101 C 
BRANCH  14  17
ATOM     17  N   UNL     1      -2.649  -6.041   2.577  0.00  0.00    -0.328 N 
ATOM     18  H   UNL     1      -2.329  -6.938   2.396  0.00  0.00    +0.145 HD
ATOM     19  H   UNL     1      -3.562  -5.902   2.873  0.00  0.00    +0.145 HD
ENDBRANCH  14  17
BRANCH  15  20
ATOM     20  C   UNL     1      -3.657  -3.606   3.104  0.00  0.00    +0.101 C 
ATOM     21  N   UNL     1      -4.736  -3.504   3.444  0.00  0.00    -0.191 NA
ENDBRANCH  15  20
BRANCH   7  22
ATOM     22  C   UNL     1       0.742  -0.511   1.242  0.00  0.00    +0.057 C 
BRANCH  22  24
ATOM     23  C   UNL     1      -0.019   1.526   0.010  0.00  0.00    +0.004 C 
ATOM     24  C   UNL     1       0.002  -0.004   0.002  0.00  0.00    +0.003 C 
ENDBRANCH  22  24
ENDBRANCH   7  22
ENDBRANCH   1  16
BRANCH   4  25
ATOM     25  C   UNL     1      -0.136  -0.419   7.764  0.00  0.00    +0.101 C 
ATOM     26  C   UNL     1       0.708   0.821   7.623  0.00  0.00    +0.049 A 
ATOM     27  C   UNL     1       2.034   0.942   7.230  0.00  0.00    +0.071 A 
ATOM     28  N   UNL     1       2.352   2.215   7.252  0.00  0.00    -0.176 NA
ATOM     29  N   UNL     1       1.226   2.945   7.662  0.00  0.00    -0.246 N 
ATOM     30  H   UNL     1       1.177   3.909   7.765  0.00  0.00    +0.192 HD
ATOM     31  C   UNL     1       0.229   2.074   7.886  0.00  0.00    +0.222 A 
ATOM     32  O   UNL     1      -1.044   2.300   8.297  0.00  0.00    -0.423 OA
ATOM     33  C   UNL     1      -1.764   1.238   8.710  0.00  0.00    +0.200 C 
ATOM     34  C   UNL     1      -1.400  -0.048   8.499  0.00  0.00    +0.098 C 
BRANCH  33  35
ATOM     35  N   UNL     1      -2.936   1.474   9.385  0.00  0.00    -0.328 N 
ATOM     36  H   UNL     1      -3.223   2.385   9.553  0.00  0.00    +0.145 HD
ATOM     37  H   UNL     1      -3.476   0.731   9.695  0.00  0.00    +0.145 HD
ENDBRANCH  33  35
BRANCH  34  38
ATOM     38  C   UNL     1      -2.245  -1.094   8.989  0.00  0.00    +0.101 C 
ATOM     39  N   UNL     1      -2.916  -1.925   9.378  0.00  0.00    -0.191 NA
ENDBRANCH  34  38
BRANCH  27  40
ATOM     40  C   UNL     1       2.950  -0.192   6.847  0.00  0.00    +0.057 C 
BRANCH  40  41
ATOM     41  C   UNL     1       2.842  -0.449   5.343  0.00  0.00    +0.003 C 
ATOM     42  C   UNL     1       3.772  -1.600   4.954  0.00  0.00    +0.004 C 
ENDBRANCH  40  41
ENDBRANCH  27  40
ENDBRANCH   4  25
TORSDOF 10
