REMARK  Name = ZINC67273439
REMARK  6 active torsions:
REMARK  status: ('A' for Active; 'I' for Inactive)
REMARK    1  A    between atoms: C_1  and  C_2
REMARK    2  A    between atoms: C_5  and  C_7
REMARK    3  A    between atoms: C_7  and  C_9
REMARK    4  A    between atoms: C_7  and  N_25
REMARK    5  A    between atoms: C_9  and  N_10
REMARK    6  A    between atoms: C_11  and  C_13
REMARK                            x       y       z     vdW  Elec       q    Type
REMARK                         _______ _______ _______ _____ _____    ______ ____
ROOT
ATOM      1  N   UNL     1       3.248  -4.589   1.307  0.00  0.00    -0.316 N 
ATOM      2  C   UNL     1       3.862  -5.017   2.429  0.00  0.00    +0.216 C 
ATOM      3  O   UNL     1       3.660  -4.452   3.483  0.00  0.00    -0.276 OA
ATOM      4  H   UNL     1       3.410  -5.041   0.464  0.00  0.00    +0.149 HD
ENDROOT
BRANCH   2   5
ATOM      5  C   UNL     1       4.798  -6.196   2.373  0.00  0.00    +0.075 C 
ATOM      6  C   UNL     1       4.039  -7.427   1.874  0.00  0.00    +0.015 C 
ATOM      7  C   UNL     1       4.994  -8.621   1.806  0.00  0.00    +0.036 C 
ATOM      8  C   UNL     1       5.577  -8.889   3.189  0.00  0.00    +0.112 C 
ATOM      9  C   UNL     1       6.316  -7.662   3.711  0.00  0.00    +0.036 C 
ATOM     10  C   UNL     1       5.356  -6.471   3.771  0.00  0.00    +0.015 C 
ATOM     11  C   UNL     1       4.486  -9.298   4.152  0.00  0.00    +0.244 C 
ATOM     12  O   UNL     1       3.524  -8.643   4.490  0.00  0.00    -0.273 OA
ATOM     13  N   UNL     1       4.810 -10.544   4.555  0.00  0.00    -0.238 N 
ATOM     14  C   UNL     1       5.943 -10.969   3.983  0.00  0.00    +0.307 C 
ATOM     15  O   UNL     1       6.436 -12.060   4.190  0.00  0.00    -0.252 OA
ATOM     16  N   UNL     1       6.474 -10.052   3.152  0.00  0.00    -0.285 N 
ATOM     17  H   UNL     1       4.286 -11.067   5.182  0.00  0.00    +0.159 HD
ATOM     18  H   UNL     1       7.288 -10.141   2.632  0.00  0.00    +0.151 HD
ENDBRANCH   2   5
BRANCH   1  19
ATOM     19  C   UNL     1       2.338  -3.443   1.362  0.00  0.00    +0.096 C 
BRANCH  19  20
ATOM     20  C   UNL     1       1.679  -3.250  -0.005  0.00  0.00    +0.016 C 
BRANCH  20  25
ATOM     21  C   UNL     1      -2.285  -6.370  -0.011  0.00  0.00    +0.086 C 
ATOM     22  C   UNL     1      -0.926  -5.790  -0.312  0.00  0.00    +0.102 A 
ATOM     23  C   UNL     1       0.007  -6.345  -1.105  0.00  0.00    +0.044 A 
ATOM     24  C   UNL     1       1.118  -5.470  -1.104  0.00  0.00    +0.043 A 
ATOM     25  C   UNL     1       0.797  -4.434  -0.309  0.00  0.00    +0.093 A 
ATOM     26  O   UNL     1      -0.445  -4.630   0.163  0.00  0.00    -0.466 OA
ENDBRANCH  20  25
BRANCH  20  27
ATOM     27  N   UNL     1       0.867  -2.026   0.011  0.00  0.00    +0.387 N 
ATOM     28  C   UNL     1       1.733  -0.840   0.232  0.00  0.00    -0.078 C 
ATOM     29  C   UNL     1       0.882   0.329  -0.327  0.00  0.00    -0.020 C 
ATOM     30  C   UNL     1       0.198  -0.301  -1.561  0.00  0.00    -0.020 C 
ATOM     31  C   UNL     1       0.228  -1.819  -1.307  0.00  0.00    -0.078 C 
ATOM     32  H   UNL     1       0.164  -2.084   0.733  0.00  0.00    -0.081 HD
ENDBRANCH  20  27
ENDBRANCH  19  20
ENDBRANCH   1  19
TORSDOF 5
