REMARK  Name = ZINC20144073
REMARK  6 active torsions:
REMARK  status: ('A' for Active; 'I' for Inactive)
REMARK    1  A    between atoms: C_1  and  C_2
REMARK    2  A    between atoms: C_5  and  C_7
REMARK    3  A    between atoms: C_7  and  C_9
REMARK    4  A    between atoms: C_7  and  N_10
REMARK    5  A    between atoms: N_10  and  C_11
REMARK    6  A    between atoms: C_18  and  C_20
REMARK                            x       y       z     vdW  Elec       q    Type
REMARK                         _______ _______ _______ _____ _____    ______ ____
ROOT
ATOM      1  N   UNL     1      -2.471   3.814   0.043  0.00  0.00    -0.334 N 
ATOM      2  H   UNL     1      -2.496   4.913   0.049  0.00  0.00    +0.147 HD
ENDROOT
BRANCH   1   3
ATOM      3  C   UNL     1      -1.244   3.142   0.029  0.00  0.00    +0.030 A 
ATOM      4  C   UNL     1      -1.215   1.749   0.017  0.00  0.00    +0.026 A 
ATOM      5  C   UNL     1      -0.013   1.076   0.008  0.00  0.00    +0.050 A 
ATOM      6  C   UNL     1       1.179   1.786   0.000  0.00  0.00    +0.155 A 
ATOM      7  C   UNL     1       1.158   3.189   0.008  0.00  0.00    +0.111 A 
ATOM      8  C   UNL     1      -0.064   3.863   0.022  0.00  0.00    +0.054 A 
ATOM      9  N   UNL     1       2.457   3.595  -0.002  0.00  0.00    -0.213 NA
ATOM     10  C   UNL     1       3.224   2.546  -0.014  0.00  0.00    +0.194 A 
ATOM     11  O   UNL     1       2.483   1.427  -0.013  0.00  0.00    -0.440 OA
ATOM     12  C   UNL     1       4.730   2.581  -0.027  0.00  0.00    +0.109 C 
ENDBRANCH   1   3
BRANCH   1  13
ATOM     13  C   UNL     1      -3.722   3.053   0.051  0.00  0.00    +0.133 C 
ATOM     14  C   UNL     1      -4.106   2.687  -1.385  0.00  0.00    +0.036 C 
BRANCH  13  19
ATOM     15  C   UNL     1      -6.607   7.022   1.219  0.00  0.00    +0.086 C 
ATOM     16  C   UNL     1      -6.069   5.615   1.173  0.00  0.00    +0.102 A 
ATOM     17  C   UNL     1      -6.578   4.557   1.831  0.00  0.00    +0.045 A 
ATOM     18  C   UNL     1      -5.772   3.443   1.499  0.00  0.00    +0.047 A 
ATOM     19  C   UNL     1      -4.815   3.889   0.665  0.00  0.00    +0.125 A 
ATOM     20  O   UNL     1      -5.002   5.204   0.469  0.00  0.00    -0.463 OA
ENDBRANCH  13  19
ENDBRANCH   1  13
TORSDOF 3
