REMARK  Name = ZINC40759078
REMARK  4 active torsions:
REMARK  status: ('A' for Active; 'I' for Inactive)
REMARK    1  A    between atoms: C_10  and  N_11
REMARK    2  A    between atoms: C_13  and  N_26
REMARK    3  A    between atoms: C_14  and  N_18
REMARK    4  A    between atoms: N_18  and  C_19
REMARK                            x       y       z     vdW  Elec       q    Type
REMARK                         _______ _______ _______ _____ _____    ______ ____
ROOT
ATOM      1  N   UNL     1       4.867   0.093  -0.011  0.00  0.00    -0.297 N 
ATOM      2  C   UNL     1       6.081  -0.580   0.072  0.00  0.00    +0.149 A 
ATOM      3  C   UNL     1       7.280   0.129   0.166  0.00  0.00    +0.106 A 
ATOM      4  C   UNL     1       8.470  -0.597   0.247  0.00  0.00    +0.149 A 
ATOM      5  N   UNL     1       8.416  -1.927   0.231  0.00  0.00    -0.219 NA
ATOM      6  C   UNL     1       7.263  -2.557   0.141  0.00  0.00    +0.225 A 
ATOM      7  N   UNL     1       6.117  -1.911   0.069  0.00  0.00    -0.219 NA
ATOM      8  H   UNL     1       4.854   1.060  -0.094  0.00  0.00    +0.154 HD
ENDROOT
BRANCH   1  18
ATOM      9  C   UNL     1       0.182   0.934  -1.686  0.00  0.00    +0.001 A 
ATOM     10  C   UNL     1       1.368   1.665  -1.732  0.00  0.00    +0.001 A 
ATOM     11  C   UNL     1       2.513   1.176  -1.181  0.00  0.00    +0.010 A 
ATOM     12  C   UNL     1       2.503  -0.081  -0.557  0.00  0.00    +0.003 A 
ATOM     13  C   UNL     1       1.297  -0.825  -0.510  0.00  0.00    -0.016 A 
ATOM     14  C   UNL     1       0.135  -0.288  -1.089  0.00  0.00    +0.008 A 
ATOM     15  C   UNL     1       1.285  -2.083   0.115  0.00  0.00    +0.008 A 
ATOM     16  C   UNL     1       2.426  -2.579   0.669  0.00  0.00    +0.002 A 
ATOM     17  C   UNL     1       3.616  -1.859   0.629  0.00  0.00    +0.024 A 
ATOM     18  C   UNL     1       3.670  -0.620   0.025  0.00  0.00    +0.040 A 
ENDBRANCH   1  18
BRANCH   3  19
ATOM     19  N   UNL     1       7.289   1.532   0.179  0.00  0.00    -0.353 N 
ATOM     20  H   UNL     1       6.455   2.023   0.122  0.00  0.00    +0.143 HD
ATOM     21  H   UNL     1       8.130   2.011   0.245  0.00  0.00    +0.143 HD
ENDBRANCH   3  19
BRANCH   4  22
ATOM     22  N   UNL     1       9.692   0.059   0.342  0.00  0.00    -0.295 N 
ATOM     23  H   UNL     1       9.719   1.025   0.421  0.00  0.00    +0.154 HD
BRANCH  22  24
ATOM     24  C   UNL     1      10.883  -0.675   0.324  0.00  0.00    +0.070 A 
ATOM     25  C   UNL     1      10.944  -1.937   0.908  0.00  0.00    +0.028 A 
ATOM     26  C   UNL     1      12.145  -2.625   0.864  0.00  0.00    +0.022 A 
ATOM     27  C   UNL     1      13.237  -2.041   0.249  0.00  0.00    +0.112 A 
ATOM     28  N   UNL     1      13.148  -0.843  -0.295  0.00  0.00    -0.242 NA
ATOM     29  C   UNL     1      12.022  -0.156  -0.282  0.00  0.00    +0.150 A 
ATOM     30 CL   UNL     1      11.963   1.414  -1.021  0.00  0.00    -0.060 Cl
ENDBRANCH  22  24
ENDBRANCH   4  22
TORSDOF 4
