REMARK  Name = ZINC24951547
REMARK  6 active torsions:
REMARK  status: ('A' for Active; 'I' for Inactive)
REMARK    1  A    between atoms: C_3  and  N_27
REMARK    2  A    between atoms: C_5  and  O_7
REMARK    3  A    between atoms: O_7  and  C_8
REMARK    4  A    between atoms: C_8  and  C_9
REMARK    5  A    between atoms: N_11  and  C_12
REMARK    6  A    between atoms: C_12  and  C_17
REMARK                            x       y       z     vdW  Elec       q    Type
REMARK                         _______ _______ _______ _____ _____    ______ ____
ROOT
ATOM      1  C   UNL     1       4.987   1.357   0.007  0.00  0.00    +0.251 C 
ATOM      2  O   UNL     1       4.248   1.804  -0.844  0.00  0.00    -0.272 OA
ATOM      3  N   UNL     1       4.770   0.125   0.509  0.00  0.00    -0.303 N 
ATOM      4  H   UNL     1       5.388  -0.248   1.340  0.00  0.00    +0.150 HD
ENDROOT
BRANCH   3   5
ATOM      5  C   UNL     1       3.711  -0.718  -0.051  0.00  0.00    +0.060 C 
ATOM      6  C   UNL     1       3.937  -0.914  -1.564  0.00  0.00    +0.030 C 
ATOM      7  C   UNL     1       4.689  -2.265  -1.663  0.00  0.00    +0.002 C 
ATOM      8  C   UNL     1       4.011  -3.117  -0.561  0.00  0.00    +0.002 C 
ATOM      9  C   UNL     1       3.759  -2.118   0.587  0.00  0.00    +0.030 C 
BRANCH   5  10
ATOM     10  C   UNL     1       2.365  -0.086   0.193  0.00  0.00    -0.020 A 
ATOM     11  C   UNL     1       2.231   0.905   1.148  0.00  0.00    +0.009 A 
ATOM     12  C   UNL     1       0.998   1.486   1.376  0.00  0.00    +0.050 A 
ATOM     13  C   UNL     1      -0.108   1.077   0.647  0.00  0.00    +0.162 A 
ATOM     14  C   UNL     1       0.027   0.084  -0.316  0.00  0.00    +0.162 A 
ATOM     15  C   UNL     1       1.267  -0.497  -0.539  0.00  0.00    +0.055 A 
ATOM     16  O   UNL     1      -1.044  -0.327  -1.049  0.00  0.00    -0.485 OA
ATOM     17  C   UNL     1      -2.339   0.010  -0.540  0.00  0.00    +0.270 C 
ATOM     18  C   UNL     1      -2.322   1.486  -0.120  0.00  0.00    +0.270 C 
ATOM     19  O   UNL     1      -1.318   1.652   0.888  0.00  0.00    -0.485 OA
ENDBRANCH   5  10
ENDBRANCH   3   5
BRANCH   1  20
ATOM     20  C   UNL     1       6.149   2.178   0.504  0.00  0.00    +0.324 C 
BRANCH  20  21
ATOM     21  O   UNL     1       6.167   3.436  -0.175  0.00  0.00    -0.483 OA
BRANCH  21  26
ATOM     22  C   UNL     1       9.103   4.833   1.457  0.00  0.00    +0.006 A 
ATOM     23  C   UNL     1       9.178   6.067   0.838  0.00  0.00    +0.033 A 
ATOM     24  C   UNL     1       8.247   6.421  -0.120  0.00  0.00    +0.130 A 
ATOM     25  C   UNL     1       7.237   5.541  -0.461  0.00  0.00    +0.078 A 
ATOM     26  C   UNL     1       7.159   4.303   0.159  0.00  0.00    +0.123 A 
ATOM     27  C   UNL     1       8.093   3.952   1.123  0.00  0.00    +0.046 A 
BRANCH  24  28
ATOM     28  N   UNL     1       8.330   7.742  -0.781  0.00  0.00    +0.057 N 
ATOM     29  O   UNL     1       7.509   8.054  -1.625  0.00  0.00    -0.126 OA
ATOM     30  O   UNL     1       9.220   8.518  -0.480  0.00  0.00    -0.126 OA
ENDBRANCH  24  28
ENDBRANCH  21  26
ENDBRANCH  20  21
ENDBRANCH   1  20
TORSDOF 6
