REMARK  Name = ZINC11634122
REMARK  5 active torsions:
REMARK  status: ('A' for Active; 'I' for Inactive)
REMARK    1  A    between atoms: C_1  and  C_2
REMARK    2  A    between atoms: C_2  and  C_3
REMARK    3  A    between atoms: C_3  and  C_4
REMARK    4  A    between atoms: C_13  and  N_14
REMARK    5  A    between atoms: N_14  and  N_15
REMARK                            x       y       z     vdW  Elec       q    Type
REMARK                         _______ _______ _______ _____ _____    ______ ____
ROOT
ATOM      1  C   UNL     1      -2.416   0.910   0.018  0.00  0.00    -0.006 A 
ATOM      2  C   UNL     1      -3.614   1.562   0.028  0.00  0.00    +0.017 A 
ATOM      3  C   UNL     1      -3.607   2.971   0.036  0.00  0.00    +0.004 A 
ATOM      4  C   UNL     1      -4.804   3.704   0.046  0.00  0.00    +0.059 A 
ATOM      5  C   UNL     1      -4.766   5.070   0.053  0.00  0.00    +0.163 A 
ATOM      6  C   UNL     1      -3.540   5.749   0.053  0.00  0.00    +0.164 A 
ATOM      7  C   UNL     1      -2.360   5.059   0.043  0.00  0.00    +0.077 A 
ATOM      8  C   UNL     1      -2.367   3.655   0.034  0.00  0.00    +0.077 A 
ATOM      9  N   UNL     1      -1.222   2.961   0.029  0.00  0.00    -0.231 NA
ATOM     10  C   UNL     1      -1.222   1.643   0.017  0.00  0.00    +0.136 A 
ATOM     11  O   UNL     1      -3.503   7.111   0.067  0.00  0.00    -0.485 OA
ATOM     12  C   UNL     1      -4.707   7.791  -0.302  0.00  0.00    +0.270 C 
ATOM     13  C   UNL     1      -5.877   7.137   0.444  0.00  0.00    +0.270 C 
ATOM     14  O   UNL     1      -5.941   5.760   0.058  0.00  0.00    -0.485 OA
ENDROOT
BRANCH  10  15
ATOM     15  N   UNL     1      -0.011   0.966   0.007  0.00  0.00    -0.267 N 
ATOM     16  H   UNL     1       0.002  -0.004   0.002  0.00  0.00    +0.167 HD
BRANCH  15  17
ATOM     17  N   UNL     1       1.163   1.665  -0.000  0.00  0.00    -0.255 NA
ATOM     18  H   UNL     1       1.211   2.298   0.784  0.00  0.00    +0.140 HD
ATOM     19  H   UNL     1       1.955   1.041  -0.011  0.00  0.00    +0.140 HD
ENDBRANCH  15  17
ENDBRANCH  10  15
BRANCH   1  20
ATOM     20  C   UNL     1      -2.377  -0.596   0.010  0.00  0.00    +0.038 C 
BRANCH  20  22
ATOM     21  C   UNL     1      -2.192  -2.640   1.435  0.00  0.00    +0.004 C 
ATOM     22  C   UNL     1      -2.231  -1.111   1.443  0.00  0.00    +0.001 C 
ENDBRANCH  20  22
ENDBRANCH   1  20
TORSDOF 4
