REMARK  Name = ZINC11580937
REMARK  5 active torsions:
REMARK  status: ('A' for Active; 'I' for Inactive)
REMARK    1  A    between atoms: N_11  and  C_12
REMARK    2  A    between atoms: C_12  and  C_13
REMARK    3  A    between atoms: C_13  and  O_15
REMARK    4  A    between atoms: O_15  and  C_16
REMARK    5  A    between atoms: C_16  and  C_17
REMARK                            x       y       z     vdW  Elec       q    Type
REMARK                         _______ _______ _______ _____ _____    ______ ____
ROOT
ATOM      1  C   UNL     1       5.318   2.527  -1.456  0.00  0.00    +0.325 C 
ATOM      2  O   UNL     1       4.524   2.527  -2.367  0.00  0.00    -0.249 OA
ENDROOT
BRANCH   1   3
ATOM      3  C   UNL     1       4.829   2.515  -0.030  0.00  0.00    +0.234 C 
BRANCH   3  14
ATOM      4  C   UNL     1       2.983   4.911   0.000  0.00  0.00    +0.034 C 
ATOM      5  C   UNL     1       2.558   3.645  -0.003  0.00  0.00    +0.038 C 
ATOM      6  C   UNL     1       1.150   3.200   0.008  0.00  0.00    +0.008 A 
ATOM      7  C   UNL     1      -0.070   3.864   0.024  0.00  0.00    +0.010 A 
ATOM      8  C   UNL     1      -1.245   3.137   0.032  0.00  0.00    +0.001 A 
ATOM      9  C   UNL     1      -1.216   1.752   0.017  0.00  0.00    +0.001 A 
ATOM     10  C   UNL     1      -0.013   1.076   0.008  0.00  0.00    +0.014 A 
ATOM     11  C   UNL     1       1.183   1.791   0.000  0.00  0.00    +0.046 A 
ATOM     12  C   UNL     1       2.601   1.399  -0.015  0.00  0.00    +0.252 C 
ATOM     13  O   UNL     1       3.016   0.256  -0.025  0.00  0.00    -0.270 OA
ATOM     14  N   UNL     1       3.364   2.506  -0.017  0.00  0.00    -0.257 N 
ENDBRANCH   3  14
ENDBRANCH   1   3
BRANCH   1  15
ATOM     15  O   UNL     1       6.635   2.536  -1.713  0.00  0.00    -0.456 OA
BRANCH  15  16
ATOM     16  C   UNL     1       7.034   2.547  -3.109  0.00  0.00    +0.308 C 
BRANCH  16  17
ATOM     17  C   UNL     1       8.538   2.557  -3.202  0.00  0.00    +0.173 A 
ATOM     18  N   UNL     1       9.188   3.707  -3.241  0.00  0.00    -0.196 NA
ATOM     19  C   UNL     1      10.517   3.719  -3.319  0.00  0.00    +0.217 A 
ATOM     20  N   UNL     1      11.189   2.574  -3.366  0.00  0.00    -0.181 NA
ATOM     21  C   UNL     1      10.532   1.421  -3.331  0.00  0.00    +0.217 A 
ATOM     22  N   UNL     1       9.203   1.416  -3.249  0.00  0.00    -0.196 NA
ATOM     23  N   UNL     1      11.225   0.228  -3.381  0.00  0.00    -0.327 N 
ATOM     24  N   UNL     1      11.196   4.921  -3.355  0.00  0.00    -0.327 N 
ATOM     25  H   UNL     1      10.744  -0.614  -3.356  0.00  0.00    +0.145 HD
ATOM     26  H   UNL     1      12.193   0.233  -3.441  0.00  0.00    +0.145 HD
ATOM     27  H   UNL     1      12.164   4.929  -3.415  0.00  0.00    +0.145 HD
ATOM     28  H   UNL     1      10.704   5.756  -3.320  0.00  0.00    +0.145 HD
ENDBRANCH  16  17
ENDBRANCH  15  16
ENDBRANCH   1  15
TORSDOF 5
