REMARK  Name = ZINC14037256
REMARK  14 active torsions:
REMARK  status: ('A' for Active; 'I' for Inactive)
REMARK    1  A    between atoms: C_1  and  C_2
REMARK    2  A    between atoms: C_5  and  O_9
REMARK    3  A    between atoms: O_9  and  C_10
REMARK    4  A    between atoms: C_10  and  C_11
REMARK    5  A    between atoms: N_13  and  N_14
REMARK    6  A    between atoms: N_14  and  C_15
REMARK    7  A    between atoms: C_15  and  N_17
REMARK    8  A    between atoms: C_18  and  C_20
REMARK    9  A    between atoms: C_23  and  O_26
REMARK   10  A    between atoms: O_26  and  C_27
REMARK   11  A    between atoms: C_27  and  C_28
REMARK   12  A    between atoms: C_28  and  C_29
REMARK   13  A    between atoms: C_29  and  C_30
REMARK   14  A    between atoms: C_29  and  C_31
REMARK                            x       y       z     vdW  Elec       q    Type
REMARK                         _______ _______ _______ _____ _____    ______ ____
ROOT
ATOM      1  C   UNL     1       2.449  -4.161  -0.043  0.00  0.00    +0.153 C 
ATOM      2  S   UNL     1       0.981  -5.042  -0.033  0.00  0.00    -0.017 S 
ENDROOT
BRANCH   1   3
ATOM      3  N   UNL     1       2.426  -2.813  -0.036  0.00  0.00    -0.263 N 
ATOM      4  C   UNL     1       1.248  -2.159  -0.021  0.00  0.00    +0.250 C 
ATOM      5  O   UNL     1       0.205  -2.785  -0.014  0.00  0.00    -0.270 OA
ATOM      6  H   UNL     1       3.258  -2.314  -0.041  0.00  0.00    +0.157 HD
BRANCH   4   7
ATOM      7  C   UNL     1       1.223  -0.684  -0.013  0.00  0.00    +0.037 A 
ATOM      8  C   UNL     1       0.002  -0.004   0.002  0.00  0.00    +0.016 A 
ATOM      9  C   UNL     1      -0.017   1.373   0.010  0.00  0.00    +0.046 A 
ATOM     10  C   UNL     1       1.177   2.086   0.002  0.00  0.00    +0.121 A 
ATOM     11  C   UNL     1       2.393   1.413  -0.013  0.00  0.00    +0.046 A 
ATOM     12  C   UNL     1       2.420   0.037  -0.021  0.00  0.00    +0.016 A 
BRANCH  10  13
ATOM     13  O   UNL     1       1.154   3.443   0.010  0.00  0.00    -0.492 OA
BRANCH  13  14
ATOM     14  C   UNL     1       2.416   4.113   0.001  0.00  0.00    +0.229 C 
BRANCH  14  15
ATOM     15  C   UNL     1       2.190   5.626   0.011  0.00  0.00    +0.044 C 
BRANCH  15  16
ATOM     16  C   UNL     1       3.541   6.343   0.002  0.00  0.00    -0.014 C 
ATOM     17  C   UNL     1       4.265   6.051  -1.313  0.00  0.00    +0.007 C 
ATOM     18  C   UNL     1       3.319   7.851   0.138  0.00  0.00    +0.007 C 
ENDBRANCH  15  16
ENDBRANCH  14  15
ENDBRANCH  13  14
ENDBRANCH  10  13
ENDBRANCH   4   7
ENDBRANCH   1   3
BRANCH   1  19
ATOM     19  N   UNL     1       3.627  -4.815  -0.058  0.00  0.00    -0.245 N 
ATOM     20  H   UNL     1       3.643  -5.785  -0.063  0.00  0.00    +0.172 HD
BRANCH  19  23
ATOM     21  C   UNL     1       6.006  -4.749  -0.081  0.00  0.00    +0.267 C 
ATOM     22  O   UNL     1       6.027  -5.961  -0.087  0.00  0.00    -0.271 OA
ATOM     23  N   UNL     1       4.828  -4.094  -0.066  0.00  0.00    -0.232 N 
ATOM     24  H   UNL     1       4.812  -3.125  -0.061  0.00  0.00    +0.173 HD
BRANCH  21  25
ATOM     25  C   UNL     1       7.299  -3.973  -0.089  0.00  0.00    +0.326 C 
BRANCH  25  26
ATOM     26  O   UNL     1       8.400  -4.883  -0.105  0.00  0.00    -0.482 OA
BRANCH  26  31
ATOM     27  C   UNL     1      13.568  -2.642  -0.141  0.00  0.00    +0.044 C 
ATOM     28  C   UNL     1      12.186  -3.242  -0.132  0.00  0.00    -0.049 A 
ATOM     29  C   UNL     1      11.076  -2.418  -0.118  0.00  0.00    +0.007 A 
ATOM     30  C   UNL     1       9.807  -2.965  -0.109  0.00  0.00    +0.047 A 
ATOM     31  C   UNL     1       9.647  -4.343  -0.114  0.00  0.00    +0.135 A 
ATOM     32  C   UNL     1      10.763  -5.169  -0.123  0.00  0.00    +0.060 A 
ATOM     33  C   UNL     1      12.030  -4.616  -0.137  0.00  0.00    +0.022 A 
ATOM     34 BR   UNL     1      10.550  -7.048  -0.123  0.00  0.00    -0.047 Br
ENDBRANCH  26  31
ENDBRANCH  25  26
ENDBRANCH  21  25
ENDBRANCH  19  23
ENDBRANCH   1  19
TORSDOF 11
