REMARK  Name = ZINC39422181
REMARK  6 active torsions:
REMARK  status: ('A' for Active; 'I' for Inactive)
REMARK    1  A    between atoms: C_1  and  C_2
REMARK    2  A    between atoms: C_6  and  C_7
REMARK    3  A    between atoms: C_7  and  C_9
REMARK    4  A    between atoms: C_7  and  C_16
REMARK    5  A    between atoms: C_17  and  C_23
REMARK    6  A    between atoms: C_20  and  O_22
REMARK                            x       y       z     vdW  Elec       q    Type
REMARK                         _______ _______ _______ _____ _____    ______ ____
ROOT
ATOM      1  C   UNL     1       0.032  -0.370   2.566  0.00  0.00    +0.088 C 
ENDROOT
BRANCH   1   7
ATOM      2  C   UNL     1       2.497  -1.072   0.703  0.00  0.00    +0.068 C 
ATOM      3  C   UNL     1       1.042  -1.232   0.342  0.00  0.00    +0.068 A 
ATOM      4  N   UNL     1       0.579  -1.690  -0.792  0.00  0.00    -0.176 NA
ATOM      5  N   UNL     1      -0.820  -1.682  -0.734  0.00  0.00    -0.243 N 
ATOM      6  C   UNL     1      -1.183  -1.202   0.477  0.00  0.00    +0.271 A 
ATOM      7  C   UNL     1      -0.044  -0.921   1.165  0.00  0.00    +0.052 A 
ATOM      8  O   UNL     1      -2.453  -1.036   0.925  0.00  0.00    -0.266 OA
ATOM      9  H   UNL     1      -1.423  -1.969  -1.437  0.00  0.00    +0.192 HD
ENDBRANCH   1   7
BRANCH   1  10
ATOM     10  C   UNL     1       1.211  -0.977   3.281  0.00  0.00    -0.035 A 
ATOM     11  C   UNL     1       1.391  -2.348   3.276  0.00  0.00    +0.006 A 
ATOM     12  C   UNL     1       2.472  -2.906   3.932  0.00  0.00    +0.020 A 
ATOM     13  C   UNL     1       3.374  -2.092   4.594  0.00  0.00    +0.041 A 
ATOM     14  C   UNL     1       3.194  -0.721   4.598  0.00  0.00    +0.020 A 
ATOM     15  C   UNL     1       2.116  -0.164   3.937  0.00  0.00    +0.006 A 
ATOM     16 CL   UNL     1       4.732  -2.792   5.418  0.00  0.00    -0.084 Cl
ENDBRANCH   1  10
BRANCH   1  17
ATOM     17  C   UNL     1      -1.235  -0.708   3.309  0.00  0.00    +0.017 C 
ATOM     18  C   UNL     1      -2.120   0.133   3.850  0.00  0.00    +0.065 C 
ATOM     19  N   UNL     1      -3.131  -0.547   4.434  0.00  0.00    -0.156 NA
ATOM     20  N   UNL     1      -3.038  -1.774   4.354  0.00  0.00    -0.151 NA
ATOM     21  C   UNL     1      -1.804  -2.082   3.610  0.00  0.00    +0.284 C 
ATOM     22  C   UNL     1      -2.007   1.635   3.813  0.00  0.00    +0.067 C 
BRANCH  21  23
ATOM     23  O   UNL     1      -0.902  -2.836   4.423  0.00  0.00    -0.366 OA
ATOM     24  H   UNL     1      -1.219  -3.723   4.644  0.00  0.00    +0.212 HD
ENDBRANCH  21  23
ENDBRANCH   1  17
TORSDOF 4
