REMARK  Name = ZINC66200093
REMARK  12 active torsions:
REMARK  status: ('A' for Active; 'I' for Inactive)
REMARK    1  A    between atoms: C_1  and  C_2
REMARK    2  A    between atoms: C_2  and  C_4
REMARK    3  A    between atoms: C_2  and  C_14
REMARK    4  A    between atoms: C_7  and  C_10
REMARK    5  A    between atoms: C_10  and  C_11
REMARK    6  A    between atoms: C_11  and  C_12
REMARK    7  A    between atoms: C_11  and  C_13
REMARK    8  A    between atoms: N_16  and  C_17
REMARK    9  A    between atoms: C_17  and  N_19
REMARK   10  A    between atoms: N_19  and  C_20
REMARK   11  A    between atoms: C_24  and  C_26
REMARK   12  A    between atoms: N_28  and  C_29
REMARK                            x       y       z     vdW  Elec       q    Type
REMARK                         _______ _______ _______ _____ _____    ______ ____
ROOT
ATOM      1  N   UNL     1      -4.373  -0.306   2.668  0.00  0.00    -0.297 N 
ATOM      2  H   UNL     1      -4.193   0.300   3.404  0.00  0.00    +0.154 HD
ENDROOT
BRANCH   1   3
ATOM      3  C   UNL     1      -5.685  -0.712   2.402  0.00  0.00    +0.033 A 
ATOM      4  C   UNL     1      -5.965  -2.054   2.173  0.00  0.00    +0.023 A 
ATOM      5  C   UNL     1      -7.259  -2.461   1.909  0.00  0.00    +0.003 A 
ATOM      6  C   UNL     1      -8.283  -1.536   1.872  0.00  0.00    +0.013 A 
ATOM      7  C   UNL     1      -8.014  -0.186   2.101  0.00  0.00    +0.039 A 
ATOM      8  C   UNL     1      -6.708   0.223   2.373  0.00  0.00    +0.036 A 
BRANCH   7   9
ATOM      9  C   UNL     1      -9.109   0.806   2.061  0.00  0.00    +0.248 C 
ATOM     10  O   UNL     1      -8.871   1.982   2.261  0.00  0.00    -0.270 OA
ATOM     11  N   UNL     1     -10.370   0.408   1.803  0.00  0.00    -0.281 N 
ATOM     12  H   UNL     1     -10.576  -0.538   1.738  0.00  0.00    +0.155 HD
BRANCH  11  13
ATOM     13  C   UNL     1     -11.382   1.358   1.629  0.00  0.00    +0.035 A 
ATOM     14  C   UNL     1     -12.666   1.100   2.093  0.00  0.00    +0.026 A 
ATOM     15  C   UNL     1     -13.664   2.039   1.920  0.00  0.00    +0.041 A 
ATOM     16  C   UNL     1     -13.386   3.238   1.285  0.00  0.00    +0.142 A 
ATOM     17  C   UNL     1     -12.107   3.498   0.822  0.00  0.00    +0.078 A 
ATOM     18  C   UNL     1     -11.104   2.563   0.998  0.00  0.00    +0.046 A 
ATOM     19 CL   UNL     1     -11.761   5.002   0.026  0.00  0.00    -0.081 Cl
ATOM     20  F   UNL     1     -14.364   4.155   1.118  0.00  0.00    -0.204 F 
ENDBRANCH  11  13
ENDBRANCH   7   9
ENDBRANCH   1   3
BRANCH   1  21
ATOM     21  C   UNL     1      -3.360  -0.756   1.902  0.00  0.00    +0.141 C 
ATOM     22  S   UNL     1      -3.663  -1.912   0.675  0.00  0.00    -0.018 S 
BRANCH  21  25
ATOM     23  C   UNL     1      -1.095  -0.748   1.335  0.00  0.00    +0.226 C 
ATOM     24  O   UNL     1      -1.310  -1.566   0.467  0.00  0.00    -0.275 OA
ATOM     25  N   UNL     1      -2.109  -0.298   2.102  0.00  0.00    -0.267 N 
ATOM     26  H   UNL     1      -1.937   0.357   2.796  0.00  0.00    +0.157 HD
BRANCH  23  28
ATOM     27  C   UNL     1       0.330   1.281   1.352  0.00  0.00    +0.022 C 
ATOM     28  C   UNL     1       0.304  -0.235   1.559  0.00  0.00    +0.102 C 
BRANCH  28  29
ATOM     29  C   UNL     1       1.242  -0.892   0.579  0.00  0.00    -0.036 A 
ATOM     30  C   UNL     1       1.045  -0.732  -0.780  0.00  0.00    +0.004 A 
ATOM     31  C   UNL     1       1.906  -1.334  -1.679  0.00  0.00    +0.004 A 
ATOM     32  C   UNL     1       2.963  -2.096  -1.218  0.00  0.00    -0.047 A 
ATOM     33  C   UNL     1       3.160  -2.256   0.141  0.00  0.00    +0.004 A 
ATOM     34  C   UNL     1       2.302  -1.650   1.039  0.00  0.00    +0.004 A 
BRANCH  32  35
ATOM     35  C   UNL     1       3.901  -2.754  -2.198  0.00  0.00    +0.038 C 
BRANCH  35  36
ATOM     36  C   UNL     1       5.057  -1.803  -2.514  0.00  0.00    -0.013 C 
ATOM     37  C   UNL     1       5.888  -1.573  -1.250  0.00  0.00    +0.007 C 
ATOM     38  C   UNL     1       5.941  -2.419  -3.601  0.00  0.00    +0.007 C 
ENDBRANCH  35  36
ENDBRANCH  32  35
ENDBRANCH  28  29
ENDBRANCH  23  28
ENDBRANCH  21  25
ENDBRANCH   1  21
TORSDOF 9
