REMARK  Name = ZINC50890199
REMARK  10 active torsions:
REMARK  status: ('A' for Active; 'I' for Inactive)
REMARK    1  A    between atoms: C_1  and  C_2
REMARK    2  A    between atoms: C_2  and  C_3
REMARK    3  A    between atoms: C_3  and  C_4
REMARK    4  A    between atoms: C_4  and  C_5
REMARK    5  A    between atoms: C_5  and  C_7
REMARK    6  A    between atoms: C_5  and  N_8
REMARK    7  A    between atoms: N_8  and  S_9
REMARK    8  A    between atoms: S_9  and  C_12
REMARK    9  A    between atoms: C_17  and  N_18
REMARK   10  A    between atoms: N_18  and  N_19
REMARK                            x       y       z     vdW  Elec       q    Type
REMARK                         _______ _______ _______ _____ _____    ______ ____
ROOT
ATOM      1  C   UNL     1       3.050  -0.330  -4.579  0.00  0.00    +0.147 A 
ATOM      2  C   UNL     1       2.291  -0.366  -5.735  0.00  0.00    +0.048 A 
ATOM      3  C   UNL     1       1.777   0.826  -6.228  0.00  0.00    +0.038 A 
ATOM      4  C   UNL     1       2.037   2.004  -5.554  0.00  0.00    +0.128 A 
ATOM      5  N   UNL     1       2.765   2.007  -4.454  0.00  0.00    -0.236 NA
ATOM      6  C   UNL     1       3.267   0.891  -3.950  0.00  0.00    +0.159 A 
ATOM      7 BR   UNL     1       0.733   0.837  -7.804  0.00  0.00    -0.049 Br
ENDROOT
BRANCH   1   8
ATOM      8  S   UNL     1       3.728  -1.813  -3.909  0.00  0.00    +0.062 S 
ATOM      9  O   UNL     1       5.103  -1.554  -3.659  0.00  0.00    -0.153 OA
ATOM     10  O   UNL     1       3.293  -2.874  -4.749  0.00  0.00    -0.153 OA
BRANCH   8  11
ATOM     11  N   UNL     1       3.016  -2.053  -2.434  0.00  0.00    -0.187 NA
ATOM     12  H   UNL     1       3.549  -2.007  -1.625  0.00  0.00    +0.148 HD
BRANCH  11  13
ATOM     13  C   UNL     1       1.581  -2.337  -2.351  0.00  0.00    +0.073 C 
ATOM     14  C   UNL     1       1.362  -3.850  -2.303  0.00  0.00    +0.025 C 
BRANCH  13  15
ATOM     15  C   UNL     1       1.008  -1.699  -1.084  0.00  0.00    +0.020 C 
BRANCH  15  16
ATOM     16  C   UNL     1       1.114  -0.176  -1.187  0.00  0.00    +0.001 C 
BRANCH  16  18
ATOM     17  C   UNL     1       0.647   1.985  -0.023  0.00  0.00    +0.004 C 
ATOM     18  C   UNL     1       0.541   0.462   0.080  0.00  0.00    -0.003 C 
ENDBRANCH  16  18
ENDBRANCH  15  16
ENDBRANCH  13  15
ENDBRANCH  11  13
ENDBRANCH   8  11
ENDBRANCH   1   8
BRANCH   6  19
ATOM     19  N   UNL     1       4.023   0.940  -2.784  0.00  0.00    -0.266 N 
ATOM     20  H   UNL     1       4.323   0.118  -2.365  0.00  0.00    +0.167 HD
BRANCH  19  21
ATOM     21  N   UNL     1       4.344   2.147  -2.229  0.00  0.00    -0.255 NA
ATOM     22  H   UNL     1       4.893   2.024  -1.391  0.00  0.00    +0.140 HD
ATOM     23  H   UNL     1       4.825   2.734  -2.893  0.00  0.00    +0.140 HD
ENDBRANCH  19  21
ENDBRANCH   6  19
TORSDOF 8
