REMARK  Name = ZINC10708274
REMARK  15 active torsions:
REMARK  status: ('A' for Active; 'I' for Inactive)
REMARK    1  A    between atoms: C_1  and  C_2
REMARK    2  A    between atoms: C_2  and  C_3
REMARK    3  A    between atoms: C_2  and  C_4
REMARK    4  A    between atoms: C_4  and  N_5
REMARK    5  A    between atoms: C_6  and  N_33
REMARK    6  A    between atoms: C_7  and  N_14
REMARK    7  A    between atoms: N_14  and  C_15
REMARK    8  A    between atoms: C_15  and  C_16
REMARK    9  A    between atoms: C_16  and  C_17
REMARK   10  A    between atoms: C_16  and  C_18
REMARK   11  A    between atoms: C_19  and  C_21
REMARK   12  A    between atoms: C_21  and  N_22
REMARK   13  A    between atoms: N_22  and  C_23
REMARK   14  A    between atoms: C_24  and  C_26
REMARK   15  A    between atoms: C_29  and  O_32
REMARK                            x       y       z     vdW  Elec       q    Type
REMARK                         _______ _______ _______ _____ _____    ______ ____
ROOT
ATOM      1  N   UNL     1       1.639   2.433  -0.226  0.00  0.00    -0.263 N 
ATOM      2  C   UNL     1       0.518   1.684  -0.163  0.00  0.00    +0.237 C 
ATOM      3  O   UNL     1       0.583   0.482  -0.314  0.00  0.00    -0.274 OA
ENDROOT
BRANCH   1   6
ATOM      4  N   UNL     1       5.094   1.375   0.441  0.00  0.00    -0.280 N 
ATOM      5  C   UNL     1       3.877   1.997   0.597  0.00  0.00    +0.127 A 
ATOM      6  C   UNL     1       2.898   1.810  -0.358  0.00  0.00    +0.140 A 
ATOM      7  C   UNL     1       3.175   0.981  -1.462  0.00  0.00    +0.277 A 
ATOM      8  O   UNL     1       2.326   0.795  -2.317  0.00  0.00    -0.266 OA
ATOM      9  N   UNL     1       4.386   0.400  -1.570  0.00  0.00    -0.273 N 
ATOM     10  H   UNL     1       4.586  -0.181  -2.358  0.00  0.00    +0.173 HD
ATOM     11  C   UNL     1       5.327   0.594  -0.629  0.00  0.00    +0.331 A 
ATOM     12  O   UNL     1       6.410   0.053  -0.749  0.00  0.00    -0.246 OA
BRANCH   5  13
ATOM     13  N   UNL     1       3.639   2.795   1.689  0.00  0.00    -0.343 N 
ATOM     14  H   UNL     1       2.752   3.160   1.839  0.00  0.00    +0.144 HD
ATOM     15  H   UNL     1       4.356   2.994   2.311  0.00  0.00    +0.144 HD
ENDBRANCH   5  13
BRANCH   4  16
ATOM     16  C   UNL     1       6.142   1.565   1.446  0.00  0.00    +0.131 C 
BRANCH  16  18
ATOM     17  C   UNL     1       7.183   0.608   3.506  0.00  0.00    +0.009 C 
ATOM     18  C   UNL     1       6.016   0.486   2.524  0.00  0.00    +0.003 C 
ATOM     19  C   UNL     1       4.696   0.669   3.276  0.00  0.00    +0.009 C 
ENDBRANCH  16  18
ENDBRANCH   4  16
ENDBRANCH   1   6
BRANCH   1  20
ATOM     20  C   UNL     1       1.548   3.893  -0.159  0.00  0.00    +0.117 C 
BRANCH  20  21
ATOM     21  C   UNL     1       1.253   4.451  -1.553  0.00  0.00    +0.001 C 
ATOM     22  C   UNL     1       1.073   5.968  -1.468  0.00  0.00    +0.009 C 
ATOM     23  C   UNL     1       2.420   4.128  -2.489  0.00  0.00    +0.009 C 
ENDBRANCH  20  21
ENDBRANCH   1  20
BRANCH   2  24
ATOM     24  C   UNL     1      -0.814   2.341   0.090  0.00  0.00    +0.204 C 
BRANCH  24  25
ATOM     25  N   UNL     1      -1.848   1.312   0.224  0.00  0.00    -0.292 N 
ATOM     26  C   UNL     1      -2.153   0.747   1.541  0.00  0.00    +0.133 C 
ATOM     27  C   UNL     1      -2.519   0.885  -0.864  0.00  0.00    +0.248 C 
ATOM     28  O   UNL     1      -2.201   1.281  -1.968  0.00  0.00    -0.270 OA
BRANCH  27  29
ATOM     29  C   UNL     1      -3.641  -0.063  -0.715  0.00  0.00    +0.055 A 
ATOM     30  C   UNL     1      -4.028  -0.882  -1.786  0.00  0.00    +0.020 A 
ATOM     31  C   UNL     1      -5.082  -1.753  -1.598  0.00  0.00    +0.068 A 
ATOM     32  C   UNL     1      -5.721  -1.790  -0.362  0.00  0.00    +0.212 A 
ATOM     33  N   UNL     1      -5.332  -1.004   0.630  0.00  0.00    -0.221 NA
ATOM     34  C   UNL     1      -4.327  -0.163   0.496  0.00  0.00    +0.127 A 
BRANCH  32  35
ATOM     35  O   UNL     1      -6.757  -2.642  -0.172  0.00  0.00    -0.492 OA
ATOM     36  H   UNL     1      -6.494  -3.513   0.157  0.00  0.00    +0.294 HD
ENDBRANCH  32  35
ENDBRANCH  27  29
ENDBRANCH  24  25
ENDBRANCH   2  24
TORSDOF 10
