REMARK  Name = ZINC02999703
REMARK  6 active torsions:
REMARK  status: ('A' for Active; 'I' for Inactive)
REMARK    1  A    between atoms: C_3  and  C_10
REMARK    2  A    between atoms: C_5  and  N_7
REMARK    3  A    between atoms: N_12  and  C_13
REMARK    4  A    between atoms: C_13  and  N_15
REMARK    5  A    between atoms: N_15  and  C_16
REMARK    6  A    between atoms: C_17  and  C_25
REMARK                            x       y       z     vdW  Elec       q    Type
REMARK                         _______ _______ _______ _____ _____    ______ ____
ROOT
ATOM      1  N   UNL     1       2.227   8.049   0.026  0.00  0.00    -0.291 N 
ATOM      2  H   UNL     1       3.074   7.576   0.015  0.00  0.00    +0.154 HD
ENDROOT
BRANCH   1   3
ATOM      3  C   UNL     1       2.208   9.435   0.034  0.00  0.00    +0.084 A 
ATOM      4  C   UNL     1       3.284  10.312   0.035  0.00  0.00    +0.068 A 
ATOM      5  C   UNL     1       2.990  11.735   0.040  0.00  0.00    -0.023 A 
ATOM      6  C   UNL     1       1.677  12.051   0.055  0.00  0.00    -0.004 A 
ATOM      7  S   UNL     1       0.837  10.493   0.053  0.00  0.00    -0.077 S 
ATOM      8  C   UNL     1       1.078  13.424   0.070  0.00  0.00    +0.043 C 
ATOM      9  C   UNL     1       2.179  14.427   0.444  0.00  0.00    +0.005 C 
ATOM     10  C   UNL     1       3.419  14.139  -0.407  0.00  0.00    +0.005 C 
ATOM     11  C   UNL     1       4.059  12.822   0.036  0.00  0.00    +0.037 C 
BRANCH   4  12
ATOM     12  C   UNL     1       4.665   9.821   0.026  0.00  0.00    +0.244 C 
ATOM     13  O   UNL     1       5.234   9.624  -1.032  0.00  0.00    -0.270 OA
ATOM     14  N   UNL     1       5.305   9.588   1.189  0.00  0.00    -0.325 N 
ATOM     15  H   UNL     1       4.852   9.745   2.032  0.00  0.00    +0.145 HD
ATOM     16  H   UNL     1       6.219   9.263   1.183  0.00  0.00    +0.145 HD
ENDBRANCH   4  12
ENDBRANCH   1   3
BRANCH   1  17
ATOM     17  C   UNL     1       1.069   7.360   0.033  0.00  0.00    +0.141 C 
ATOM     18  S   UNL     1      -0.425   8.195   0.051  0.00  0.00    -0.018 S 
BRANCH  17  21
ATOM     19  C   UNL     1      -0.070   5.322   0.032  0.00  0.00    +0.250 C 
ATOM     20  O   UNL     1      -1.131   5.916   0.045  0.00  0.00    -0.270 OA
ATOM     21  N   UNL     1       1.088   6.012   0.025  0.00  0.00    -0.264 N 
ATOM     22  H   UNL     1       1.934   5.539   0.014  0.00  0.00    +0.157 HD
BRANCH  19  25
ATOM     23  C   UNL     1       1.178   1.781   0.000  0.00  0.00    +0.003 A 
ATOM     24  C   UNL     1       1.166   3.160   0.008  0.00  0.00    +0.013 A 
ATOM     25  C   UNL     1      -0.050   3.845   0.023  0.00  0.00    +0.039 A 
ATOM     26  C   UNL     1      -1.248   3.127   0.031  0.00  0.00    +0.045 A 
ATOM     27  C   UNL     1      -1.222   1.748   0.017  0.00  0.00    +0.127 A 
ATOM     28  C   UNL     1      -0.013   1.076   0.008  0.00  0.00    +0.033 A 
BRANCH  27  29
ATOM     29  N   UNL     1      -2.491   0.986   0.019  0.00  0.00    +0.056 N 
ATOM     30  O   UNL     1      -2.470  -0.232   0.012  0.00  0.00    -0.126 OA
ATOM     31  O   UNL     1      -3.556   1.576   0.027  0.00  0.00    -0.126 OA
ENDBRANCH  27  29
ENDBRANCH  19  25
ENDBRANCH  17  21
ENDBRANCH   1  17
TORSDOF 6
