REMARK  Name = ZINC63349177
REMARK  4 active torsions:
REMARK  status: ('A' for Active; 'I' for Inactive)
REMARK    1  A    between atoms: C_1  and  C_2
REMARK    2  A    between atoms: C_2  and  C_3
REMARK    3  A    between atoms: C_4  and  C_24
REMARK    4  A    between atoms: C_20  and  C_23
REMARK                            x       y       z     vdW  Elec       q    Type
REMARK                         _______ _______ _______ _____ _____    ______ ____
ROOT
ATOM      1  C   UNL     1       0.731  -0.503   1.223  0.00  0.00    +0.033 C 
ATOM      2  C   UNL     1       0.143  -0.879   2.399  0.00  0.00    +0.042 C 
ATOM      3  C   UNL     1       1.211  -1.284   3.297  0.00  0.00    +0.147 C 
ATOM      4  N   UNL     1       1.192  -1.643   4.571  0.00  0.00    -0.238 NA
ATOM      5  C   UNL     1       2.350  -1.812   5.216  0.00  0.00    +0.124 C 
ATOM      6  C   UNL     1       3.553  -1.763   4.588  0.00  0.00    +0.059 C 
ATOM      7  C   UNL     1       3.627  -1.787   3.078  0.00  0.00    +0.156 C 
ATOM      8  N   UNL     1       2.382  -1.240   2.553  0.00  0.00    -0.225 N 
ATOM      9  N   UNL     1       2.083  -0.658   1.329  0.00  0.00    -0.265 N 
ATOM     10  C   UNL     1       4.823  -1.023   2.607  0.00  0.00    +0.018 C 
ATOM     11  C   UNL     1       5.843  -0.791   3.404  0.00  0.00    +0.085 C 
ATOM     12  N   UNL     1       5.866  -1.237   4.719  0.00  0.00    -0.211 N 
ATOM     13  C   UNL     1       4.755  -1.731   5.315  0.00  0.00    +0.257 C 
ATOM     14  O   UNL     1       4.786  -2.114   6.472  0.00  0.00    -0.269 OA
ATOM     15  C   UNL     1       7.058  -1.193   5.433  0.00  0.00    +0.250 A 
ATOM     16  N   UNL     1       8.262  -0.743   4.975  0.00  0.00    -0.196 NA
ATOM     17  C   UNL     1       9.133  -0.889   6.016  0.00  0.00    +0.152 A 
ATOM     18  N   UNL     1       8.463  -1.395   7.014  0.00  0.00    -0.131 NA
ATOM     19  N   UNL     1       7.236  -1.571   6.676  0.00  0.00    -0.111 NA
ATOM     20  C   UNL     1      10.597  -0.533   6.013  0.00  0.00    +0.090 C 
ATOM     21  H   UNL     1       2.733  -0.401   0.657  0.00  0.00    +0.170 HD
ENDROOT
BRANCH   2  22
ATOM     22  C   UNL     1      -1.308  -0.873   2.701  0.00  0.00    -0.012 A 
ATOM     23  C   UNL     1      -2.011   0.331   2.737  0.00  0.00    +0.009 A 
ATOM     24  C   UNL     1      -3.361   0.331   3.019  0.00  0.00    +0.002 A 
ATOM     25  C   UNL     1      -4.020  -0.861   3.265  0.00  0.00    +0.020 A 
ATOM     26  C   UNL     1      -3.328  -2.059   3.231  0.00  0.00    +0.042 A 
ATOM     27  C   UNL     1      -1.977  -2.071   2.944  0.00  0.00    +0.028 A 
ATOM     28 CL   UNL     1      -4.162  -3.550   3.541  0.00  0.00    -0.084 Cl
ENDBRANCH   2  22
BRANCH   1  30
ATOM     29  C   UNL     1      -0.019   1.526   0.010  0.00  0.00    +0.010 C 
ATOM     30  C   UNL     1       0.002  -0.004   0.002  0.00  0.00    +0.049 C 
ENDBRANCH   1  30
TORSDOF 2
