REMARK  Name = ZINC62198616
REMARK  5 active torsions:
REMARK  status: ('A' for Active; 'I' for Inactive)
REMARK    1  A    between atoms: C_1  and  C_2
REMARK    2  A    between atoms: C_7  and  C_19
REMARK    3  A    between atoms: C_10  and  C_12
REMARK    4  A    between atoms: C_14  and  N_18
REMARK    5  A    between atoms: N_15  and  C_17
REMARK                            x       y       z     vdW  Elec       q    Type
REMARK                         _______ _______ _______ _____ _____    ______ ____
ROOT
ATOM      1  C   UNL     1       0.033   1.519  -0.034  0.00  0.00    +0.028 C 
ATOM      2  C   UNL     1       0.000  -0.010   0.004  0.00  0.00    +0.074 C 
ATOM      3  C   UNL     1      -1.447  -0.489   0.155  0.00  0.00    +0.022 C 
ATOM      4  C   UNL     1      -1.461  -2.009   0.332  0.00  0.00    +0.004 C 
ATOM      5  C   UNL     1      -0.694  -2.383   1.603  0.00  0.00    +0.022 C 
ATOM      6  C   UNL     1       0.762  -1.925   1.469  0.00  0.00    +0.074 C 
ATOM      7  N   UNL     1       0.782  -0.491   1.152  0.00  0.00    -0.291 N 
ATOM      8  C   UNL     1       1.502   0.368   1.901  0.00  0.00    +0.267 C 
ATOM      9  O   UNL     1       1.416   1.565   1.704  0.00  0.00    -0.268 OA
ATOM     10  C   UNL     1       1.444  -2.708   0.345  0.00  0.00    +0.028 C 
ENDROOT
BRANCH   8  11
ATOM     11  C   UNL     1       2.394  -0.144   2.961  0.00  0.00    +0.149 A 
ATOM     12  C   UNL     1       3.093   0.637   3.904  0.00  0.00    +0.077 A 
ATOM     13  C   UNL     1       3.799  -0.207   4.700  0.00  0.00    +0.115 A 
ATOM     14  N   UNL     1       3.555  -1.477   4.278  0.00  0.00    -0.253 N 
ATOM     15  N   UNL     1       2.670  -1.412   3.194  0.00  0.00    -0.165 NA
ATOM     16  C   UNL     1       4.116  -2.699   4.859  0.00  0.00    +0.174 C 
BRANCH  13  17
ATOM     17  N   UNL     1       4.624   0.161   5.760  0.00  0.00    -0.343 N 
ATOM     18  H   UNL     1       4.735   1.098   5.985  0.00  0.00    +0.144 HD
ATOM     19  H   UNL     1       5.088  -0.519   6.272  0.00  0.00    +0.144 HD
ENDBRANCH  13  17
ENDBRANCH   8  11
TORSDOF 2
