REMARK  Name = ZINC26579721
REMARK  11 active torsions:
REMARK  status: ('A' for Active; 'I' for Inactive)
REMARK    1  A    between atoms: C_4  and  C_7
REMARK    2  A    between atoms: C_7  and  O_8
REMARK    3  A    between atoms: O_8  and  C_9
REMARK    4  A    between atoms: N_11  and  CA_12
REMARK    5  A    between atoms: CA_12  and  C_14
REMARK    6  A    between atoms: CA_12  and  C_36
REMARK    7  A    between atoms: C_14  and  N_15
REMARK    8  A    between atoms: C_16  and  C_18
REMARK    9  A    between atoms: C_27  and  C_28
REMARK   10  A    between atoms: C_28  and  C_29
REMARK   11  A    between atoms: C_29  and  C_30
REMARK                            x       y       z     vdW  Elec       q    Type
REMARK                         _______ _______ _______ _____ _____    ______ ____
ROOT
ATOM      1  N   UNL     1      -0.721   1.571  -1.179  0.00  0.00    -0.312 N 
ATOM      2  C   UNL     1      -0.268   1.258  -2.409  0.00  0.00    +0.224 C 
ATOM      3  O   UNL     1       0.726   0.575  -2.534  0.00  0.00    -0.275 OA
ATOM      4  H   UNL     1      -1.623   2.191  -1.066  0.00  0.00    +0.149 HD
ENDROOT
BRANCH   2   5
ATOM      5  C   UNL     1      -0.997   1.758  -3.630  0.00  0.00    +0.143 C 
ATOM      6  C   UNL     1      -0.283   1.266  -4.896  0.00  0.00    +0.022 C 
ATOM      7  C   UNL     1      -0.846   2.005  -6.114  0.00  0.00    +0.023 C 
ATOM      8  C   UNL     1      -0.415   3.475  -6.067  0.00  0.00    +0.125 C 
ATOM      9  N   UNL     1      -0.729   4.015  -4.745  0.00  0.00    -0.314 N 
ATOM     10  C   UNL     1      -0.993   3.266  -3.644  0.00  0.00    +0.145 A 
ATOM     11  N   UNL     1      -1.227   4.084  -2.664  0.00  0.00    -0.134 NA
ATOM     12  N   UNL     1      -1.124   5.298  -3.084  0.00  0.00    -0.134 NA
ATOM     13  C   UNL     1      -0.819   5.301  -4.356  0.00  0.00    +0.133 A 
BRANCH  13  14
ATOM     14  C   UNL     1      -0.607   6.516  -5.224  0.00  0.00    +0.076 C 
BRANCH  14  15
ATOM     15  C   UNL     1      -1.937   6.930  -5.855  0.00  0.00    +0.011 C 
BRANCH  15  16
ATOM     16  C   UNL     1      -1.722   8.163  -6.736  0.00  0.00    -0.014 C 
ATOM     17  C   UNL     1      -1.304   9.349  -5.862  0.00  0.00    -0.016 C 
ATOM     18  C   UNL     1      -1.151  10.593  -6.740  0.00  0.00    -0.082 C 
ATOM     19  N   UNL     1      -2.425  10.880  -7.413  0.00  0.00    +0.379 N 
ATOM     20  C   UNL     1      -2.821   9.774  -8.294  0.00  0.00    -0.082 C 
ATOM     21  C   UNL     1      -3.025   8.506  -7.463  0.00  0.00    -0.016 C 
ATOM     22  H   UNL     1      -3.212  11.028  -6.659  0.00  0.00    -0.086 HD
ATOM     23  H   UNL     1      -2.321  11.793  -8.019  0.00  0.00    -0.086 HD
ENDBRANCH  15  16
ENDBRANCH  14  15
ENDBRANCH  13  14
ENDBRANCH   2   5
BRANCH   1  24
ATOM     24  C   UNL     1      -0.013   1.086   0.008  0.00  0.00    +0.138 C 
BRANCH  24  25
ATOM     25  CA  UNL     1      -0.729   1.579   1.267  0.00  0.00    +0.206 C 
BRANCH  25  28
ATOM     26  C   UNL     1      -1.839   3.653   1.901  0.00  0.00    +0.401 C 
ATOM     27  O   UNL     1      -2.624   2.998   2.558  0.00  0.00    -0.226 OA
ATOM     28  N   UNL     1      -0.854   3.038   1.217  0.00  0.00    -0.266 N 
ATOM     29  H   UNL     1      -0.144   3.631   0.622  0.00  0.00    +0.153 HD
BRANCH  26  30
ATOM     30  O   UNL     1      -1.955   4.994   1.855  0.00  0.00    -0.446 OA
BRANCH  30  31
ATOM     31  C   UNL     1      -3.039   5.588   2.616  0.00  0.00    +0.269 C 
BRANCH  31  35
ATOM     32  C   UNL     1      -2.958   9.832   2.134  0.00  0.00    +0.000 A 
ATOM     33  C   UNL     1      -3.690   9.051   1.260  0.00  0.00    +0.000 A 
ATOM     34  C   UNL     1      -3.717   7.678   1.415  0.00  0.00    +0.007 A 
ATOM     35  C   UNL     1      -3.010   7.086   2.446  0.00  0.00    -0.010 A 
ATOM     36  C   UNL     1      -2.282   7.867   3.323  0.00  0.00    +0.007 A 
ATOM     37  C   UNL     1      -2.252   9.240   3.164  0.00  0.00    +0.000 A 
ENDBRANCH  31  35
ENDBRANCH  30  31
ENDBRANCH  26  30
ENDBRANCH  25  28
BRANCH  25  38
ATOM     38  C   UNL     1       0.067   1.185   2.485  0.00  0.00    +0.377 C 
ATOM     39  O   UNL     1       0.485   2.035   3.234  0.00  0.00    -0.244 OA
ATOM     40  OXT UNL     1       0.309  -0.111   2.736  0.00  0.00    -0.244 OA
ENDBRANCH  25  38
ENDBRANCH  24  25
ENDBRANCH   1  24
TORSDOF 11
