REMARK  Name = ZINC64550238
REMARK  3 active torsions:
REMARK  status: ('A' for Active; 'I' for Inactive)
REMARK    1  A    between atoms: C_1  and  N_2
REMARK    2  A    between atoms: C_6  and  N_13
REMARK    3  A    between atoms: N_9  and  C_12
REMARK                            x       y       z     vdW  Elec       q    Type
REMARK                         _______ _______ _______ _____ _____    ______ ____
ROOT
ATOM      1  C   UNL     1       0.425   1.053   0.866  0.00  0.00    +0.154 C 
ATOM      2  N   UNL     1       0.307  -0.406   0.809  0.00  0.00    -0.295 N 
ATOM      3  C   UNL     1      -0.870  -1.122   0.585  0.00  0.00    +0.070 A 
ATOM      4  C   UNL     1      -2.185  -0.742   0.364  0.00  0.00    +0.030 A 
ATOM      5  C   UNL     1      -3.156  -1.704   0.170  0.00  0.00    +0.025 A 
ATOM      6  C   UNL     1      -2.820  -3.053   0.197  0.00  0.00    +0.034 A 
ATOM      7  C   UNL     1      -1.506  -3.439   0.418  0.00  0.00    +0.051 A 
ATOM      8  C   UNL     1      -0.528  -2.475   0.612  0.00  0.00    +0.071 A 
ATOM      9  N   UNL     1       0.842  -2.541   0.851  0.00  0.00    -0.295 N 
ATOM     10  C   UNL     1       1.315  -1.285   0.958  0.00  0.00    +0.330 A 
ATOM     11  O   UNL     1       2.478  -0.989   1.163  0.00  0.00    -0.246 OA
ATOM     12  C   UNL     1       1.635  -3.768   0.960  0.00  0.00    +0.154 C 
ENDROOT
BRANCH   6  13
ATOM     13  N   UNL     1      -3.809  -4.024  -0.000  0.00  0.00    -0.299 N 
ATOM     14  C   UNL     1      -3.513  -5.183  -0.695  0.00  0.00    +0.134 A 
ATOM     15  C   UNL     1      -4.472  -6.228  -0.795  0.00  0.00    +0.048 A 
ATOM     16  C   UNL     1      -5.819  -6.307  -0.258  0.00  0.00    +0.021 A 
ATOM     17  C   UNL     1      -6.551  -7.408  -0.484  0.00  0.00    +0.048 A 
ATOM     18  S   UNL     1      -5.466  -8.438  -1.452  0.00  0.00    -0.077 S 
ATOM     19  C   UNL     1      -4.058  -7.362  -1.527  0.00  0.00    +0.113 A 
ATOM     20  N   UNL     1      -2.860  -7.428  -2.073  0.00  0.00    -0.228 NA
ATOM     21  C   UNL     1      -2.012  -6.426  -1.945  0.00  0.00    +0.224 A 
ATOM     22  N   UNL     1      -2.334  -5.332  -1.279  0.00  0.00    -0.220 NA
ATOM     23  H   UNL     1      -4.702  -3.883   0.350  0.00  0.00    +0.154 HD
ENDBRANCH   6  13
TORSDOF 1
