REMARK  Name = ZINC44802941
REMARK  8 active torsions:
REMARK  status: ('A' for Active; 'I' for Inactive)
REMARK    1  A    between atoms: C_1  and  C_2
REMARK    2  A    between atoms: C_2  and  C_4
REMARK    3  A    between atoms: C_2  and  N_14
REMARK    4  A    between atoms: C_7  and  O_10
REMARK    5  A    between atoms: O_10  and  C_11
REMARK    6  A    between atoms: N_14  and  C_15
REMARK    7  A    between atoms: C_15  and  C_17
REMARK    8  A    between atoms: C_15  and  C_18
REMARK                            x       y       z     vdW  Elec       q    Type
REMARK                         _______ _______ _______ _____ _____    ______ ____
ROOT
ATOM      1  N   UNL     1       0.818  -0.490   1.168  0.00  0.00    +0.391 N 
ATOM      2  H   UNL     1       1.766  -0.143   1.175  0.00  0.00    -0.084 HD
ATOM      3  H   UNL     1       0.344  -0.187   2.006  0.00  0.00    -0.084 HD
ENDROOT
BRANCH   1   5
ATOM      4  C   UNL     1      -0.029   1.551   0.114  0.00  0.00    -0.009 C 
ATOM      5  C   UNL     1       0.114   0.033  -0.010  0.00  0.00    -0.043 C 
BRANCH   5   6
ATOM      6  C   UNL     1       0.899  -0.298  -1.253  0.00  0.00    -0.061 A 
ATOM      7  C   UNL     1       2.279  -0.208  -1.242  0.00  0.00    +0.005 A 
ATOM      8  C   UNL     1       3.001  -0.511  -2.380  0.00  0.00    +0.046 A 
ATOM      9  C   UNL     1       2.341  -0.905  -3.534  0.00  0.00    +0.127 A 
ATOM     10  C   UNL     1       0.956  -0.995  -3.543  0.00  0.00    +0.046 A 
ATOM     11  C   UNL     1       0.239  -0.696  -2.400  0.00  0.00    +0.005 A 
BRANCH   9  12
ATOM     12  O   UNL     1       3.049  -1.203  -4.655  0.00  0.00    -0.434 OA
BRANCH  12  13
ATOM     13  C   UNL     1       2.303  -1.602  -5.807  0.00  0.00    +0.541 C 
ATOM     14  F   UNL     1       1.567  -2.755  -5.510  0.00  0.00    -0.166 F 
ATOM     15  F   UNL     1       1.430  -0.574  -6.176  0.00  0.00    -0.166 F 
ENDBRANCH  12  13
ENDBRANCH   9  12
ENDBRANCH   5   6
ENDBRANCH   1   5
BRANCH   1  16
ATOM     16  C   UNL     1       0.834  -1.958   1.118  0.00  0.00    +0.014 C 
ATOM     17  C   UNL     1      -0.595  -2.488   1.255  0.00  0.00    -0.004 C 
BRANCH  16  18
ATOM     18  C   UNL     1       1.677  -2.490   2.248  0.00  0.00    +0.206 C 
ATOM     19  O   UNL     1       2.212  -1.723   3.019  0.00  0.00    -0.277 OA
ATOM     20  N   UNL     1       1.837  -3.820   2.401  0.00  0.00    -0.242 N 
ATOM     21  C   UNL     1       2.591  -4.296   3.412  0.00  0.00    +0.303 C 
ATOM     22  O   UNL     1       3.127  -3.526   4.184  0.00  0.00    -0.253 OA
ATOM     23  N   UNL     1       2.750  -5.625   3.565  0.00  0.00    -0.313 N 
ATOM     24  H   UNL     1       1.408  -4.434   1.785  0.00  0.00    +0.159 HD
ATOM     25  H   UNL     1       2.322  -6.239   2.948  0.00  0.00    +0.146 HD
ATOM     26  H   UNL     1       3.293  -5.968   4.292  0.00  0.00    +0.146 HD
ENDBRANCH  16  18
ENDBRANCH   1  16
TORSDOF 6
