REMARK  Name = ZINC36571209
REMARK  18 active torsions:
REMARK  status: ('A' for Active; 'I' for Inactive)
REMARK    1  A    between atoms: C_1  and  C_2
REMARK    2  A    between atoms: C_2  and  C_3
REMARK    3  A    between atoms: C_3  and  N_4
REMARK    4  A    between atoms: N_4  and  C_5
REMARK    5  A    between atoms: C_5  and  C_7
REMARK    6  A    between atoms: C_5  and  C_14
REMARK    7  A    between atoms: C_11  and  O_13
REMARK    8  A    between atoms: N_16  and  C_17
REMARK    9  A    between atoms: C_17  and  C_18
REMARK   10  A    between atoms: C_17  and  C_19
REMARK   11  A    between atoms: C_17  and  C_20
REMARK   12  A    between atoms: C_20  and  C_21
REMARK   13  A    between atoms: C_21  and  C_22
REMARK   14  A    between atoms: C_21  and  C_23
REMARK   15  A    between atoms: C_21  and  C_24
REMARK   16  A    between atoms: C_25  and  C_27
REMARK   17  A    between atoms: C_31  and  O_34
REMARK   18  A    between atoms: C_32  and  O_33
REMARK                            x       y       z     vdW  Elec       q    Type
REMARK                         _______ _______ _______ _____ _____    ______ ____
ROOT
ATOM      1  C   UNL     1      -1.003  -2.844   0.724  0.00  0.00    +0.193 C 
ENDROOT
BRANCH   1   2
ATOM      2  C   UNL     1      -2.388  -3.002   1.297  0.00  0.00    -0.015 A 
ATOM      3  C   UNL     1      -3.107  -1.886   1.684  0.00  0.00    +0.006 A 
ATOM      4  C   UNL     1      -4.378  -2.027   2.210  0.00  0.00    +0.004 A 
ATOM      5  C   UNL     1      -4.932  -3.285   2.352  0.00  0.00    +0.045 A 
ATOM      6  C   UNL     1      -4.213  -4.406   1.965  0.00  0.00    +0.117 A 
ATOM      7  C   UNL     1      -2.940  -4.261   1.431  0.00  0.00    +0.051 A 
BRANCH   6   8
ATOM      8  O   UNL     1      -4.756  -5.644   2.103  0.00  0.00    -0.507 OA
ATOM      9  H   UNL     1      -5.256  -5.943   1.331  0.00  0.00    +0.292 HD
ENDBRANCH   6   8
ENDBRANCH   1   2
BRANCH   1  10
ATOM     10  C   UNL     1       0.019  -3.159   1.786  0.00  0.00    +0.239 C 
ATOM     11  O   UNL     1       0.819  -2.314   2.127  0.00  0.00    -0.273 OA
ATOM     12  N   UNL     1       0.044  -4.380   2.356  0.00  0.00    -0.308 N 
ATOM     13  H   UNL     1      -0.596  -5.056   2.083  0.00  0.00    +0.149 HD
BRANCH  12  14
ATOM     14  C   UNL     1       1.038  -4.686   3.388  0.00  0.00    +0.030 C 
ATOM     15  C   UNL     1       2.417  -4.829   2.742  0.00  0.00    +0.031 C 
ATOM     16  C   UNL     1       1.071  -3.554   4.416  0.00  0.00    +0.031 C 
BRANCH  14  17
ATOM     17  C   UNL     1       0.663  -5.996   4.085  0.00  0.00    +0.031 C 
BRANCH  17  18
ATOM     18  C   UNL     1      -0.849  -6.034   4.320  0.00  0.00    -0.036 C 
ATOM     19  C   UNL     1      -1.570  -6.184   2.979  0.00  0.00    +0.010 C 
ATOM     20  C   UNL     1      -1.195  -7.221   5.221  0.00  0.00    +0.010 C 
ATOM     21  C   UNL     1      -1.293  -4.735   4.995  0.00  0.00    +0.010 C 
ENDBRANCH  17  18
ENDBRANCH  14  17
ENDBRANCH  12  14
ENDBRANCH   1  10
BRANCH   1  22
ATOM     22  N   UNL     1      -0.820  -1.466   0.263  0.00  0.00    -0.282 N 
ATOM     23  C   UNL     1      -1.505  -1.016  -0.807  0.00  0.00    +0.251 C 
ATOM     24  O   UNL     1      -1.406   0.147  -1.147  0.00  0.00    -0.270 OA
BRANCH  23  25
ATOM     25  C   UNL     1      -2.375  -1.935  -1.565  0.00  0.00    +0.082 A 
ATOM     26  C   UNL     1      -2.603  -3.233  -1.098  0.00  0.00    +0.017 A 
ATOM     27  C   UNL     1      -3.416  -4.088  -1.808  0.00  0.00    +0.005 A 
ATOM     28  C   UNL     1      -4.012  -3.670  -2.986  0.00  0.00    +0.049 A 
ATOM     29  C   UNL     1      -3.796  -2.388  -3.462  0.00  0.00    +0.159 A 
ATOM     30  C   UNL     1      -2.982  -1.511  -2.753  0.00  0.00    +0.171 A 
BRANCH  30  31
ATOM     31  O   UNL     1      -2.772  -0.251  -3.213  0.00  0.00    -0.503 OA
ATOM     32  H   UNL     1      -2.012  -0.170  -3.805  0.00  0.00    +0.292 HD
ENDBRANCH  30  31
BRANCH  29  33
ATOM     33  O   UNL     1      -4.385  -1.984  -4.620  0.00  0.00    -0.503 OA
ATOM     34  H   UNL     1      -5.255  -1.580  -4.499  0.00  0.00    +0.292 HD
ENDBRANCH  29  33
ENDBRANCH  23  25
BRANCH  22  35
ATOM     35  C   UNL     1       0.109  -0.576   0.965  0.00  0.00    +0.109 C 
BRANCH  35  37
ATOM     36  C   UNL     1       2.459   0.268   1.039  0.00  0.00    +0.005 C 
ATOM     37  C   UNL     1       1.509  -0.728   0.369  0.00  0.00    +0.016 C 
ENDBRANCH  35  37
ENDBRANCH  22  35
ENDBRANCH   1  22
TORSDOF 12
