REMARK  Name = ZINC61325998
REMARK  3 active torsions:
REMARK  status: ('A' for Active; 'I' for Inactive)
REMARK    1  A    between atoms: C_4  and  N_18
REMARK    2  A    between atoms: C_5  and  N_7
REMARK    3  A    between atoms: N_7  and  C_8
REMARK                            x       y       z     vdW  Elec       q    Type
REMARK                         _______ _______ _______ _____ _____    ______ ____
ROOT
ATOM      1  C   UNL     1      -0.058   1.297   0.018  0.00  0.00    +0.002 A 
ATOM      2  C   UNL     1       1.071   2.075  -0.160  0.00  0.00    +0.002 A 
ATOM      3  C   UNL     1       2.323   1.490  -0.185  0.00  0.00    +0.030 A 
ATOM      4  C   UNL     1       2.450   0.118  -0.030  0.00  0.00    +0.088 A 
ATOM      5  C   UNL     1       1.312  -0.667   0.151  0.00  0.00    +0.053 A 
ATOM      6  C   UNL     1       0.059  -0.071   0.173  0.00  0.00    +0.025 A 
ENDROOT
BRANCH   4   7
ATOM      7  N   UNL     1       3.720  -0.479  -0.055  0.00  0.00    -0.218 N 
ATOM      8  C   UNL     1       4.814  -0.058   0.636  0.00  0.00    +0.136 A 
ATOM      9  C   UNL     1       5.811  -0.918   0.319  0.00  0.00    +0.156 A 
ATOM     10  N   UNL     1       5.290  -1.806  -0.535  0.00  0.00    -0.138 NA
ATOM     11  N   UNL     1       4.051  -1.523  -0.732  0.00  0.00    -0.061 NA
ENDBRANCH   4   7
BRANCH   5  12
ATOM     12  N   UNL     1       1.432  -2.051   0.307  0.00  0.00    -0.335 N 
ATOM     13  H   UNL     1       2.311  -2.456   0.378  0.00  0.00    +0.147 HD
BRANCH  12  14
ATOM     14  C   UNL     1       0.232  -2.889   0.363  0.00  0.00    +0.101 C 
ATOM     15  C   UNL     1       0.544  -4.180   1.122  0.00  0.00    +0.027 C 
ATOM     16  C   UNL     1       1.534  -5.032   0.323  0.00  0.00    +0.007 C 
ATOM     17  C   UNL     1       0.817  -5.588  -0.916  0.00  0.00    +0.043 C 
ATOM     18  C   UNL     1       0.078  -4.469  -1.574  0.00  0.00    -0.005 A 
ATOM     19  C   UNL     1      -0.212  -3.243  -1.053  0.00  0.00    -0.017 A 
ATOM     20  C   UNL     1      -0.917  -2.363  -1.873  0.00  0.00    +0.013 A 
ATOM     21  C   UNL     1      -1.281  -2.743  -3.120  0.00  0.00    +0.046 A 
ATOM     22  S   UNL     1      -0.626  -4.412  -3.200  0.00  0.00    -0.101 S 
ENDBRANCH  12  14
ENDBRANCH   5  12
TORSDOF 3
