REMARK  Name = ZINC51687632
REMARK  4 active torsions:
REMARK  status: ('A' for Active; 'I' for Inactive)
REMARK    1  A    between atoms: C_1  and  C_2
REMARK    2  A    between atoms: C_6  and  C_7
REMARK    3  A    between atoms: C_7  and  N_8
REMARK    4  A    between atoms: C_15  and  C_18
REMARK                            x       y       z     vdW  Elec       q    Type
REMARK                         _______ _______ _______ _____ _____    ______ ____
ROOT
ATOM      1  N   UNL     1      -1.349  -0.024   3.051  0.00  0.00    -0.295 N 
ATOM      2  C   UNL     1      -1.589   0.425   4.299  0.00  0.00    +0.303 C 
ATOM      3  O   UNL     1      -0.664   0.619   5.064  0.00  0.00    -0.253 OA
ATOM      4  N   UNL     1      -2.855   0.659   4.699  0.00  0.00    -0.281 N 
ATOM      5  C   UNL     1      -3.997   0.319   3.836  0.00  0.00    +0.137 C 
ATOM      6  C   UNL     1      -4.997  -0.500   4.658  0.00  0.00    +0.180 C 
ATOM      7  O   UNL     1      -5.301   0.202   5.866  0.00  0.00    -0.364 OA
ATOM      8  C   UNL     1      -4.178   0.396   6.728  0.00  0.00    +0.221 C 
ATOM      9  C   UNL     1      -3.135   1.257   6.014  0.00  0.00    +0.150 C 
ATOM     10  H   UNL     1      -2.089  -0.248   2.465  0.00  0.00    +0.151 HD
ENDROOT
BRANCH   8  11
ATOM     11  C   UNL     1      -4.625   1.087   7.990  0.00  0.00    +0.241 C 
ATOM     12  O   UNL     1      -5.772   1.466   8.100  0.00  0.00    -0.273 OA
ATOM     13  N   UNL     1      -3.751   1.284   8.997  0.00  0.00    -0.327 N 
ATOM     14  H   UNL     1      -2.834   0.982   8.909  0.00  0.00    +0.145 HD
ATOM     15  H   UNL     1      -4.040   1.729   9.810  0.00  0.00    +0.145 HD
ENDBRANCH   8  11
BRANCH   1  16
ATOM     16  C   UNL     1       0.030  -0.175   2.580  0.00  0.00    +0.148 C 
BRANCH  16  22
ATOM     17  C   UNL     1      -0.013   1.516   0.016  0.00  0.00    +0.044 C 
ATOM     18  C   UNL     1       0.005   0.009   0.002  0.00  0.00    -0.039 A 
ATOM     19  C   UNL     1       0.009  -0.681  -1.196  0.00  0.00    +0.011 A 
ATOM     20  C   UNL     1       0.025  -2.036  -1.173  0.00  0.00    +0.046 A 
ATOM     21  S   UNL     1       0.036  -2.376   0.580  0.00  0.00    -0.100 S 
ATOM     22  C   UNL     1       0.023  -0.689   1.163  0.00  0.00    +0.010 A 
ENDBRANCH  16  22
ENDBRANCH   1  16
TORSDOF 3
