REMARK  Name = ZINC43287224
REMARK  6 active torsions:
REMARK  status: ('A' for Active; 'I' for Inactive)
REMARK    1  A    between atoms: C_1  and  C_2
REMARK    2  A    between atoms: C_6  and  C_20
REMARK    3  A    between atoms: N_9  and  C_10
REMARK    4  A    between atoms: C_10  and  C_12
REMARK    5  A    between atoms: C_10  and  C_14
REMARK    6  A    between atoms: C_12  and  N_13
REMARK                            x       y       z     vdW  Elec       q    Type
REMARK                         _______ _______ _______ _____ _____    ______ ____
ROOT
ATOM      1  C   UNL     1      -0.645   1.472   0.135  0.00  0.00    +0.024 C 
ATOM      2  C   UNL     1      -0.124   0.034   0.113  0.00  0.00    +0.054 C 
ATOM      3  C   UNL     1       0.602  -0.226  -1.208  0.00  0.00    +0.019 C 
ATOM      4  C   UNL     1       1.139  -1.660  -1.217  0.00  0.00    +0.015 C 
ATOM      5  C   UNL     1       2.067  -1.856  -0.015  0.00  0.00    +0.089 C 
ATOM      6  C   UNL     1       1.299  -1.549   1.272  0.00  0.00    +0.098 C 
ATOM      7  N   UNL     1       0.807  -0.166   1.232  0.00  0.00    -0.293 NA
ENDROOT
BRANCH   5   8
ATOM      8  C   UNL     1       3.246  -0.925  -0.133  0.00  0.00    +0.215 C 
ATOM      9  O   UNL     1       3.454  -0.099   0.730  0.00  0.00    -0.276 OA
ATOM     10  N   UNL     1       4.069  -1.011  -1.196  0.00  0.00    -0.329 N 
ATOM     11  H   UNL     1       3.903  -1.672  -1.887  0.00  0.00    +0.145 HD
ATOM     12  H   UNL     1       4.828  -0.411  -1.272  0.00  0.00    +0.145 HD
ENDBRANCH   5   8
BRANCH   7  13
ATOM     13  C   UNL     1       0.184   0.208   2.508  0.00  0.00    +0.076 C 
BRANCH  13  14
ATOM     14  C   UNL     1       1.258   0.526   3.517  0.00  0.00    +0.006 A 
ATOM     15  C   UNL     1       1.341   1.574   4.373  0.00  0.00    +0.028 A 
ATOM     16  C   UNL     1       2.431   1.663   5.219  0.00  0.00    +0.025 A 
ATOM     17  C   UNL     1       3.384   0.699   5.167  0.00  0.00    +0.060 A 
ATOM     18  S   UNL     1       2.745  -0.383   3.899  0.00  0.00    -0.099 S 
ATOM     19 BR   UNL     1       2.591   3.106   6.430  0.00  0.00    -0.050 Br
ENDBRANCH  13  14
BRANCH  13  20
ATOM     20  C   UNL     1      -0.669  -0.954   3.020  0.00  0.00    -0.062 C 
BRANCH  20  21
ATOM     21  N   UNL     1      -1.661  -1.320   2.001  0.00  0.00    +0.379 N 
ATOM     22  H   UNL     1      -2.097  -0.484   1.641  0.00  0.00    -0.090 HD
ATOM     23  H   UNL     1      -1.204  -1.812   1.248  0.00  0.00    -0.090 HD
ATOM     24  H   UNL     1      -2.364  -1.915   2.414  0.00  0.00    -0.090 HD
ENDBRANCH  20  21
ENDBRANCH  13  20
ENDBRANCH   7  13
TORSDOF 5
