REMARK  Name = ZINC14467776
REMARK  4 active torsions:
REMARK  status: ('A' for Active; 'I' for Inactive)
REMARK    1  A    between atoms: C_1  and  N_2
REMARK    2  A    between atoms: C_3  and  C_5
REMARK    3  A    between atoms: C_12  and  C_21
REMARK    4  A    between atoms: C_26  and  O_27
REMARK                            x       y       z     vdW  Elec       q    Type
REMARK                         _______ _______ _______ _____ _____    ______ ____
ROOT
ATOM      1  C   UNL     1      -2.448   3.533  -0.481  0.00  0.00    +0.058 A 
ATOM      2  C   UNL     1      -3.581   3.126   0.224  0.00  0.00    +0.015 A 
ATOM      3  C   UNL     1      -3.481   2.848   1.570  0.00  0.00    +0.001 A 
ATOM      4  C   UNL     1      -2.265   2.968   2.218  0.00  0.00    +0.006 A 
ATOM      5  C   UNL     1      -1.127   3.370   1.534  0.00  0.00    -0.019 A 
ATOM      6  C   UNL     1      -1.212   3.656   0.182  0.00  0.00    +0.044 A 
ATOM      7  N   UNL     1      -0.114   4.067  -0.559  0.00  0.00    -0.336 N 
ATOM      8  C   UNL     1       1.148   3.595   0.010  0.00  0.00    +0.109 C 
ATOM      9  C   UNL     1       1.279   4.099   1.449  0.00  0.00    +0.029 C 
ATOM     10  C   UNL     1       0.157   3.470   2.303  0.00  0.00    +0.049 C 
ATOM     11  C   UNL     1       0.682   2.094   2.645  0.00  0.00    -0.023 C 
ATOM     12  C   UNL     1       1.985   2.056   2.521  0.00  0.00    -0.030 C 
ATOM     13  C   UNL     1       2.517   3.407   2.085  0.00  0.00    +0.033 C 
ATOM     14  H   UNL     1      -0.108   5.070  -0.670  0.00  0.00    +0.147 HD
ENDROOT
BRANCH   8  15
ATOM     15  C   UNL     1       1.170   2.088   0.002  0.00  0.00    +0.017 A 
ATOM     16  C   UNL     1      -0.015   1.379   0.072  0.00  0.00    +0.029 A 
ATOM     17  C   UNL     1       0.004  -0.004   0.064  0.00  0.00    +0.043 A 
ATOM     18  C   UNL     1       1.209  -0.682  -0.013  0.00  0.00    +0.043 A 
ATOM     19  C   UNL     1       2.395   0.023  -0.083  0.00  0.00    +0.084 A 
ATOM     20  C   UNL     1       2.378   1.412  -0.076  0.00  0.00    +0.140 A 
ATOM     21 CL   UNL     1       3.906  -0.826  -0.179  0.00  0.00    -0.080 Cl
ATOM     22 CL   UNL     1      -1.485  -0.892   0.151  0.00  0.00    -0.083 Cl
BRANCH  20  23
ATOM     23  O   UNL     1       3.544   2.107  -0.144  0.00  0.00    -0.505 OA
ATOM     24  H   UNL     1       3.827   2.313  -1.045  0.00  0.00    +0.292 HD
ENDBRANCH  20  23
ENDBRANCH   8  15
BRANCH   1  27
ATOM     25  C   UNL     1      -3.825   4.014  -3.987  0.00  0.00    +0.128 C 
ATOM     26  N   UNL     1      -3.729   3.715  -2.556  0.00  0.00    -0.314 N 
ATOM     27  C   UNL     1      -2.546   3.833  -1.921  0.00  0.00    +0.246 C 
ATOM     28  O   UNL     1      -1.558   4.188  -2.537  0.00  0.00    -0.270 OA
ATOM     29  H   UNL     1      -4.516   3.432  -2.065  0.00  0.00    +0.149 HD
ENDBRANCH   1  27
TORSDOF 3
