REMARK  Name = ZINC39605204
REMARK  11 active torsions:
REMARK  status: ('A' for Active; 'I' for Inactive)
REMARK    1  A    between atoms: C_1  and  C_2
REMARK    2  A    between atoms: C_2  and  C_3
REMARK    3  A    between atoms: C_2  and  O_4
REMARK    4  A    between atoms: O_4  and  C_5
REMARK    5  A    between atoms: C_5  and  C_6
REMARK    6  A    between atoms: C_6  and  C_7
REMARK    7  A    between atoms: C_7  and  N_8
REMARK    8  A    between atoms: C_9  and  C_11
REMARK    9  A    between atoms: C_22  and  C_24
REMARK   10  A    between atoms: C_28  and  O_29
REMARK   11  A    between atoms: O_29  and  C_30
REMARK                            x       y       z     vdW  Elec       q    Type
REMARK                         _______ _______ _______ _____ _____    ______ ____
ROOT
ATOM      1  C   UNL     1      -6.361  -5.537  -1.682  0.00  0.00    +0.100 C 
ATOM      2  C   UNL     1      -6.758  -5.874  -0.228  0.00  0.00    +0.121 C 
ATOM      3  N   UNL     1      -7.679  -7.029  -0.349  0.00  0.00    -0.296 N 
ATOM      4  C   UNL     1      -7.086  -7.861  -1.424  0.00  0.00    +0.115 C 
ATOM      5  C   UNL     1      -6.577  -6.843  -2.464  0.00  0.00    -0.004 C 
ATOM      6  C   UNL     1      -7.621  -6.639  -3.557  0.00  0.00    -0.010 C 
ATOM      7  C   UNL     1      -7.777  -7.935  -4.357  0.00  0.00    -0.082 C 
ATOM      8  N   UNL     1      -6.486  -8.306  -4.948  0.00  0.00    +0.379 N 
ATOM      9  C   UNL     1      -5.512  -8.591  -3.888  0.00  0.00    -0.082 C 
ATOM     10  C   UNL     1      -5.260  -7.322  -3.068  0.00  0.00    -0.010 C 
ATOM     11  C   UNL     1      -8.801  -7.269   0.357  0.00  0.00    +0.251 C 
ATOM     12  O   UNL     1      -9.214  -6.438   1.143  0.00  0.00    -0.270 OA
ATOM     13  H   UNL     1      -6.604  -9.126  -5.524  0.00  0.00    -0.086 HD
ATOM     14  H   UNL     1      -6.147  -7.545  -5.518  0.00  0.00    -0.086 HD
ENDROOT
BRANCH  11  15
ATOM     15  C   UNL     1      -9.527  -8.536   0.177  0.00  0.00    +0.087 A 
ATOM     16  C   UNL     1      -8.864  -9.717  -0.077  0.00  0.00    +0.063 A 
ATOM     17  S   UNL     1     -10.087 -10.858  -0.202  0.00  0.00    -0.081 S 
ATOM     18  C   UNL     1     -11.510  -9.826   0.075  0.00  0.00    +0.120 A 
ATOM     19  C   UNL     1     -10.968  -8.601   0.265  0.00  0.00    +0.158 A 
ATOM     20 CL   UNL     1     -13.185 -10.280   0.101  0.00  0.00    -0.072 Cl
BRANCH  19  21
ATOM     21  O   UNL     1     -11.730  -7.502   0.518  0.00  0.00    -0.492 OA
ATOM     22  C   UNL     1     -12.180  -6.750  -0.611  0.00  0.00    +0.277 C 
ENDBRANCH  19  21
ENDBRANCH  11  15
BRANCH   1  24
ATOM     23  N   UNL     1      -4.467  -4.399  -2.794  0.00  0.00    -0.315 N 
ATOM     24  C   UNL     1      -4.914  -5.120  -1.747  0.00  0.00    +0.218 C 
ATOM     25  O   UNL     1      -4.152  -5.433  -0.857  0.00  0.00    -0.275 OA
ATOM     26  H   UNL     1      -5.077  -4.148  -3.506  0.00  0.00    +0.149 HD
BRANCH  23  27
ATOM     27  C   UNL     1      -3.061  -3.993  -2.857  0.00  0.00    +0.106 C 
BRANCH  27  28
ATOM     28  C   UNL     1      -2.818  -3.191  -4.138  0.00  0.00    +0.047 C 
BRANCH  28  29
ATOM     29  C   UNL     1      -1.349  -2.768  -4.204  0.00  0.00    +0.161 C 
BRANCH  29  30
ATOM     30  O   UNL     1      -1.123  -2.019  -5.399  0.00  0.00    -0.377 OA
BRANCH  30  32
ATOM     31  C   UNL     1       0.558  -1.480  -7.050  0.00  0.00    +0.037 C 
ATOM     32  C   UNL     1       0.225  -1.573  -5.559  0.00  0.00    +0.112 C 
ATOM     33  C   UNL     1       0.386  -0.195  -4.914  0.00  0.00    +0.037 C 
ENDBRANCH  30  32
ENDBRANCH  29  30
ENDBRANCH  28  29
ENDBRANCH  27  28
ENDBRANCH  23  27
ENDBRANCH   1  24
TORSDOF 8
