REMARK  Name = ZINC66782847
REMARK  7 active torsions:
REMARK  status: ('A' for Active; 'I' for Inactive)
REMARK    1  A    between atoms: C_4  and  N_22
REMARK    2  A    between atoms: C_5  and  N_21
REMARK    3  A    between atoms: C_6  and  C_7
REMARK    4  A    between atoms: N_9  and  N_10
REMARK    5  A    between atoms: C_11  and  C_13
REMARK    6  A    between atoms: C_13  and  C_14
REMARK    7  A    between atoms: C_14  and  C_15
REMARK                            x       y       z     vdW  Elec       q    Type
REMARK                         _______ _______ _______ _____ _____    ______ ____
ROOT
ATOM      1  C   UNL     1      -1.230  -0.814   0.006  0.00  0.00    +0.262 C 
ATOM      2  O   UNL     1      -1.186  -2.026   0.094  0.00  0.00    -0.269 OA
ATOM      3  N   UNL     1      -2.421  -0.189  -0.085  0.00  0.00    -0.230 N 
ATOM      4  H   UNL     1      -2.456   0.778  -0.155  0.00  0.00    +0.173 HD
ENDROOT
BRANCH   1  10
ATOM      5  C   UNL     1      -0.031   1.367   0.021  0.00  0.00    +0.053 A 
ATOM      6  C   UNL     1       1.141   2.096   0.016  0.00  0.00    +0.126 A 
ATOM      7  C   UNL     1       2.368   1.448  -0.011  0.00  0.00    +0.073 A 
ATOM      8  C   UNL     1       2.430   0.070  -0.032  0.00  0.00    +0.150 A 
ATOM      9  C   UNL     1       1.260  -0.680  -0.028  0.00  0.00    +0.068 A 
ATOM     10  C   UNL     1       0.017  -0.029   0.000  0.00  0.00    +0.064 A 
ATOM     11  F   UNL     1       1.093   3.446   0.036  0.00  0.00    -0.205 F 
BRANCH   9  12
ATOM     12  N   UNL     1       1.321  -2.068  -0.050  0.00  0.00    -0.356 N 
ATOM     13  H   UNL     1       2.039  -2.530   0.412  0.00  0.00    +0.142 HD
ATOM     14  H   UNL     1       0.647  -2.576  -0.527  0.00  0.00    +0.142 HD
ENDBRANCH   9  12
BRANCH   8  15
ATOM     15  N   UNL     1       3.744  -0.611  -0.061  0.00  0.00    +0.058 N 
ATOM     16  O   UNL     1       4.759   0.039  -0.153  0.00  0.00    -0.126 OA
ATOM     17  O   UNL     1       3.802  -1.816   0.009  0.00  0.00    -0.126 OA
ENDBRANCH   8  15
ENDBRANCH   1  10
BRANCH   3  18
ATOM     18  N   UNL     1      -3.607  -0.934  -0.079  0.00  0.00    -0.234 N 
ATOM     19  C   UNL     1      -4.797  -0.309  -0.171  0.00  0.00    +0.229 C 
ATOM     20  O   UNL     1      -4.841   0.900  -0.259  0.00  0.00    -0.274 OA
ATOM     21  H   UNL     1      -3.571  -1.901  -0.009  0.00  0.00    +0.173 HD
BRANCH  19  22
ATOM     22  C   UNL     1      -6.072  -1.111  -0.164  0.00  0.00    +0.097 C 
BRANCH  22  23
ATOM     23  C   UNL     1      -7.270  -0.166  -0.279  0.00  0.00    +0.013 C 
BRANCH  23  24
ATOM     24  C   UNL     1      -8.565  -0.981  -0.273  0.00  0.00    -0.011 C 
ATOM     25  C   UNL     1      -8.621  -1.859  -1.524  0.00  0.00    +0.003 C 
ATOM     26  C   UNL     1      -9.916  -2.674  -1.517  0.00  0.00    +0.000 C 
ATOM     27  C   UNL     1     -11.116  -1.724  -1.506  0.00  0.00    +0.000 C 
ATOM     28  C   UNL     1     -11.060  -0.846  -0.255  0.00  0.00    +0.000 C 
ATOM     29  C   UNL     1      -9.765  -0.031  -0.262  0.00  0.00    +0.003 C 
ENDBRANCH  23  24
ENDBRANCH  22  23
ENDBRANCH  19  22
ENDBRANCH   3  18
TORSDOF 7
