REMARK  Name = ZINC01738408
REMARK  8 active torsions:
REMARK  status: ('A' for Active; 'I' for Inactive)
REMARK    1  A    between atoms: C_1  and  C_2
REMARK    2  A    between atoms: C_5  and  C_22
REMARK    3  A    between atoms: C_6  and  N_8
REMARK    4  A    between atoms: C_9  and  O_11
REMARK    5  A    between atoms: O_11  and  C_12
REMARK    6  A    between atoms: C_15  and  C_20
REMARK    7  A    between atoms: C_17  and  O_18
REMARK    8  A    between atoms: O_18  and  C_19
REMARK                            x       y       z     vdW  Elec       q    Type
REMARK                         _______ _______ _______ _____ _____    ______ ____
ROOT
ATOM      1  N   UNL     1       2.356   3.889  -0.001  0.00  0.00    -0.251 N 
ATOM      2  C   UNL     1       2.336   5.233  -0.096  0.00  0.00    +0.410 C 
ATOM      3  O   UNL     1       1.277   5.828  -0.087  0.00  0.00    -0.226 OA
ATOM      4  H   UNL     1       3.201   3.420   0.073  0.00  0.00    +0.158 HD
ENDROOT
BRANCH   1  10
ATOM      5  C   UNL     1      -2.386   3.582  -1.266  0.00  0.00    +0.044 C 
ATOM      6  C   UNL     1      -1.159   2.997  -0.615  0.00  0.00    -0.049 A 
ATOM      7  C   UNL     1      -1.217   1.745  -0.030  0.00  0.00    +0.004 A 
ATOM      8  C   UNL     1      -0.095   1.208   0.572  0.00  0.00    +0.005 A 
ATOM      9  C   UNL     1       1.092   1.915   0.582  0.00  0.00    -0.029 A 
ATOM     10  C   UNL     1       1.155   3.169  -0.009  0.00  0.00    +0.040 A 
ATOM     11  C   UNL     1       0.025   3.709  -0.609  0.00  0.00    +0.027 A 
ATOM     12  C   UNL     1       2.316   1.325   1.233  0.00  0.00    +0.045 C 
ENDBRANCH   1  10
BRANCH   2  13
ATOM     13  O   UNL     1       3.492   5.917  -0.203  0.00  0.00    -0.408 OA
BRANCH  13  14
ATOM     14  C   UNL     1       3.409   7.273  -0.189  0.00  0.00    +0.175 A 
ATOM     15  C   UNL     1       3.461   7.981  -1.383  0.00  0.00    +0.051 A 
ATOM     16  C   UNL     1       3.377   9.356  -1.375  0.00  0.00    +0.015 A 
ATOM     17  C   UNL     1       3.240  10.042  -0.163  0.00  0.00    +0.018 A 
ATOM     18  C   UNL     1       3.188   9.327   1.040  0.00  0.00    +0.060 A 
ATOM     19  C   UNL     1       3.267   7.948   1.022  0.00  0.00    +0.163 A 
BRANCH  19  20
ATOM     20  O   UNL     1       3.210   7.250   2.188  0.00  0.00    -0.491 OA
ATOM     21  C   UNL     1       3.063   8.006   3.391  0.00  0.00    +0.277 C 
ENDBRANCH  19  20
BRANCH  17  22
ATOM     22  C   UNL     1       3.151  11.508  -0.152  0.00  0.00    +0.258 C 
ATOM     23  O   UNL     1       3.196  12.126  -1.195  0.00  0.00    -0.296 OA
ENDBRANCH  17  22
ENDBRANCH  13  14
ENDBRANCH   2  13
TORSDOF 5
