REMARK  Name = ZINC66133466
REMARK  11 active torsions:
REMARK  status: ('A' for Active; 'I' for Inactive)
REMARK    1  A    between atoms: C_1  and  C_2
REMARK    2  A    between atoms: C_2  and  C_3
REMARK    3  A    between atoms: C_3  and  C_4
REMARK    4  A    between atoms: C_4  and  N_5
REMARK    5  A    between atoms: C_15  and  C_16
REMARK    6  A    between atoms: C_15  and  C_18
REMARK    7  A    between atoms: C_16  and  C_17
REMARK    8  A    between atoms: C_21  and  O_24
REMARK    9  A    between atoms: O_24  and  C_25
REMARK   10  A    between atoms: C_25  and  C_26
REMARK   11  A    between atoms: C_26  and  C_28
REMARK                            x       y       z     vdW  Elec       q    Type
REMARK                         _______ _______ _______ _____ _____    ______ ____
ROOT
ATOM      1  N   UNL     1      -2.787  -2.571   0.015  0.00  0.00    -0.272 N 
ATOM      2  C   UNL     1      -3.399  -2.801   1.194  0.00  0.00    +0.250 C 
ATOM      3  O   UNL     1      -2.772  -2.734   2.234  0.00  0.00    -0.270 OA
ATOM      4  C   UNL     1      -4.834  -3.134   1.211  0.00  0.00    +0.058 A 
ATOM      5  C   UNL     1      -5.470  -3.564   2.373  0.00  0.00    +0.015 A 
ATOM      6  C   UNL     1      -6.814  -3.873   2.339  0.00  0.00    +0.001 A 
ATOM      7  C   UNL     1      -7.532  -3.760   1.159  0.00  0.00    +0.002 A 
ATOM      8  C   UNL     1      -6.915  -3.333  -0.000  0.00  0.00    +0.024 A 
ATOM      9  C   UNL     1      -5.568  -3.013   0.018  0.00  0.00    +0.041 A 
ATOM     10  N   UNL     1      -4.909  -2.555  -1.117  0.00  0.00    -0.319 N 
ATOM     11  C   UNL     1      -3.473  -2.812  -1.254  0.00  0.00    +0.127 C 
ATOM     12  H   UNL     1      -5.390  -2.071  -1.806  0.00  0.00    +0.148 HD
ENDROOT
BRANCH  11  13
ATOM     13  C   UNL     1      -3.266  -4.247  -1.668  0.00  0.00    -0.006 A 
ATOM     14  C   UNL     1      -2.112  -4.912  -1.297  0.00  0.00    +0.011 A 
ATOM     15  C   UNL     1      -1.919  -6.226  -1.676  0.00  0.00    +0.046 A 
ATOM     16  C   UNL     1      -2.884  -6.879  -2.429  0.00  0.00    +0.121 A 
ATOM     17  C   UNL     1      -4.041  -6.209  -2.800  0.00  0.00    +0.046 A 
ATOM     18  C   UNL     1      -4.232  -4.896  -2.414  0.00  0.00    +0.011 A 
BRANCH  16  19
ATOM     19  O   UNL     1      -2.697  -8.172  -2.803  0.00  0.00    -0.488 OA
BRANCH  19  20
ATOM     20  C   UNL     1      -3.732  -8.780  -3.577  0.00  0.00    +0.259 C 
BRANCH  20  21
ATOM     21  C   UNL     1      -3.352 -10.203  -3.896  0.00  0.00    -0.043 C 
ATOM     22  C   UNL     1      -2.213 -10.688  -3.468  0.00  0.00    +0.011 C 
ATOM     23  C   UNL     1      -4.281 -11.068  -4.708  0.00  0.00    +0.042 C 
ENDBRANCH  20  21
ENDBRANCH  19  20
ENDBRANCH  16  19
ENDBRANCH  11  13
BRANCH  11  24
ATOM     24  C   UNL     1      -2.893  -1.890  -2.328  0.00  0.00    +0.047 C 
ATOM     25  C   UNL     1      -3.608  -2.140  -3.657  0.00  0.00    +0.008 C 
ENDBRANCH  11  24
BRANCH   1  26
ATOM     26  C   UNL     1      -1.413  -2.063   0.004  0.00  0.00    +0.110 C 
BRANCH  26  27
ATOM     27  C   UNL     1      -1.433  -0.534   0.013  0.00  0.00    +0.019 C 
BRANCH  27  29
ATOM     28  C   UNL     1      -0.019   1.526   0.010  0.00  0.00    +0.004 C 
ATOM     29  C   UNL     1       0.002  -0.004   0.002  0.00  0.00    -0.002 C 
ENDBRANCH  27  29
ENDBRANCH  26  27
ENDBRANCH   1  26
TORSDOF 8
