REMARK  Name = ZINC65133920
REMARK  13 active torsions:
REMARK  status: ('A' for Active; 'I' for Inactive)
REMARK    1  A    between atoms: C_1  and  C_2
REMARK    2  A    between atoms: C_2  and  N_3
REMARK    3  A    between atoms: N_3  and  C_4
REMARK    4  A    between atoms: N_3  and  C_6
REMARK    5  A    between atoms: C_4  and  C_5
REMARK    6  A    between atoms: C_6  and  C_7
REMARK    7  A    between atoms: C_10  and  C_13
REMARK    8  A    between atoms: N_15  and  N_16
REMARK    9  A    between atoms: N_19  and  C_20
REMARK   10  A    between atoms: C_20  and  C_21
REMARK   11  A    between atoms: C_21  and  C_22
REMARK   12  A    between atoms: C_22  and  C_23
REMARK   13  A    between atoms: C_22  and  C_24
REMARK                            x       y       z     vdW  Elec       q    Type
REMARK                         _______ _______ _______ _____ _____    ______ ____
ROOT
ATOM      1  C   UNL     1       4.345  -2.748  -3.699  0.00  0.00    +0.260 C 
ATOM      2  O   UNL     1       3.807  -2.993  -4.761  0.00  0.00    -0.269 OA
ATOM      3  N   UNL     1       5.689  -2.678  -3.624  0.00  0.00    -0.229 N 
ATOM      4  H   UNL     1       6.119  -2.482  -2.777  0.00  0.00    +0.173 HD
ENDROOT
BRANCH   1   8
ATOM      5  C   UNL     1       1.990  -2.112  -0.221  0.00  0.00    -0.064 A 
ATOM      6  C   UNL     1       1.375  -2.391  -1.428  0.00  0.00    +0.002 A 
ATOM      7  C   UNL     1       2.134  -2.598  -2.562  0.00  0.00    +0.013 A 
ATOM      8  C   UNL     1       3.526  -2.526  -2.488  0.00  0.00    +0.038 A 
ATOM      9  C   UNL     1       4.140  -2.245  -1.267  0.00  0.00    +0.013 A 
ATOM     10  C   UNL     1       3.369  -2.034  -0.143  0.00  0.00    +0.002 A 
BRANCH   5  11
ATOM     11  C   UNL     1       1.155  -1.887   1.013  0.00  0.00    -0.043 C 
BRANCH  11  12
ATOM     12  N   UNL     1       0.823  -0.461   1.126  0.00  0.00    +0.382 N 
ATOM     13  H   UNL     1       1.672   0.084   1.110  0.00  0.00    -0.081 HD
BRANCH  12  15
ATOM     14  C   UNL     1      -0.266   1.445   0.039  0.00  0.00    -0.017 C 
ATOM     15  C   UNL     1      -0.034  -0.067  -0.001  0.00  0.00    -0.082 C 
ENDBRANCH  12  15
BRANCH  12  16
ATOM     16  C   UNL     1       0.111  -0.222   2.389  0.00  0.00    -0.082 C 
ATOM     17  C   UNL     1       1.053  -0.495   3.563  0.00  0.00    -0.017 C 
ENDBRANCH  12  16
ENDBRANCH  11  12
ENDBRANCH   5  11
ENDBRANCH   1   8
BRANCH   3  18
ATOM     18  N   UNL     1       6.466  -2.887  -4.771  0.00  0.00    -0.218 N 
ATOM     19  C   UNL     1       7.810  -2.817  -4.697  0.00  0.00    +0.316 C 
ATOM     20  O   UNL     1       8.484  -2.999  -5.692  0.00  0.00    -0.251 OA
ATOM     21  N   UNL     1       8.406  -2.545  -3.520  0.00  0.00    -0.298 N 
ATOM     22  H   UNL     1       6.037  -3.083  -5.619  0.00  0.00    +0.174 HD
ATOM     23  H   UNL     1       7.869  -2.400  -2.725  0.00  0.00    +0.150 HD
BRANCH  21  24
ATOM     24  C   UNL     1       9.867  -2.469  -3.439  0.00  0.00    +0.106 C 
BRANCH  24  25
ATOM     25  C   UNL     1      10.283  -2.150  -2.002  0.00  0.00    +0.022 C 
BRANCH  25  26
ATOM     26  C   UNL     1      11.808  -2.070  -1.917  0.00  0.00    -0.016 C 
ATOM     27  C   UNL     1      12.304  -0.889  -2.754  0.00  0.00    +0.007 C 
ATOM     28  C   UNL     1      12.229  -1.875  -0.459  0.00  0.00    +0.007 C 
ENDBRANCH  25  26
ENDBRANCH  24  25
ENDBRANCH  21  24
ENDBRANCH   3  18
TORSDOF 9
