REMARK  Name = ZINC22219845
REMARK  10 active torsions:
REMARK  status: ('A' for Active; 'I' for Inactive)
REMARK    1  A    between atoms: C_1  and  C_2
REMARK    2  A    between atoms: C_7  and  C_9
REMARK    3  A    between atoms: C_7  and  C_10
REMARK    4  A    between atoms: N_13  and  C_17
REMARK    5  A    between atoms: C_17  and  C_18
REMARK    6  A    between atoms: C_18  and  O_20
REMARK    7  A    between atoms: O_20  and  C_21
REMARK    8  A    between atoms: C_21  and  C_22
REMARK    9  A    between atoms: N_24  and  C_25
REMARK   10  A    between atoms: C_28  and  C_32
REMARK                            x       y       z     vdW  Elec       q    Type
REMARK                         _______ _______ _______ _____ _____    ______ ____
ROOT
ATOM      1  C   UNL     1      -3.773  -4.440  -2.092  0.00  0.00    +0.238 C 
ENDROOT
BRANCH   1  13
ATOM      2  C   UNL     1      -0.288   1.440  -0.216  0.00  0.00    +0.007 C 
ATOM      3  C   UNL     1      -0.162  -0.084  -0.173  0.00  0.00    -0.011 C 
ATOM      4  C   UNL     1      -1.550  -0.715  -0.316  0.00  0.00    +0.038 C 
ATOM      5  C   UNL     1      -1.427  -2.233  -0.253  0.00  0.00    +0.113 C 
ATOM      6  C   UNL     1      -0.795  -2.669   1.064  0.00  0.00    +0.041 C 
ATOM      7  C   UNL     1       0.590  -2.031   1.203  0.00  0.00    -0.032 C 
ATOM      8  C   UNL     1       0.454  -0.507   1.162  0.00  0.00    +0.009 C 
ATOM      9  C   UNL     1       1.215  -2.452   2.534  0.00  0.00    +0.011 C 
ATOM     10  C   UNL     1       1.483  -2.495   0.050  0.00  0.00    +0.011 C 
ATOM     11  C   UNL     1      -2.782  -2.880  -0.427  0.00  0.00    +0.247 C 
ATOM     12  O   UNL     1      -3.754  -2.751   0.286  0.00  0.00    -0.273 OA
ATOM     13  N   UNL     1      -2.683  -3.630  -1.544  0.00  0.00    -0.213 N 
ATOM     14  C   UNL     1      -1.463  -3.544  -2.088  0.00  0.00    +0.310 C 
ATOM     15  O   UNL     1      -1.131  -4.130  -3.100  0.00  0.00    -0.252 OA
ATOM     16  N   UNL     1      -0.644  -2.734  -1.390  0.00  0.00    -0.285 N 
ATOM     17  H   UNL     1       0.280  -2.524  -1.596  0.00  0.00    +0.151 HD
ENDBRANCH   1  13
BRANCH   1  18
ATOM     18  C   UNL     1      -4.575  -3.611  -3.062  0.00  0.00    +0.326 C 
ATOM     19  O   UNL     1      -4.267  -2.462  -3.274  0.00  0.00    -0.249 OA
BRANCH  18  20
ATOM     20  O   UNL     1      -5.632  -4.149  -3.691  0.00  0.00    -0.454 OA
BRANCH  20  21
ATOM     21  C   UNL     1      -6.347  -3.305  -4.597  0.00  0.00    +0.328 C 
BRANCH  21  22
ATOM     22  C   UNL     1      -7.491  -4.075  -5.204  0.00  0.00    +0.255 C 
ATOM     23  O   UNL     1      -7.677  -5.232  -4.891  0.00  0.00    -0.272 OA
ATOM     24  N   UNL     1      -8.309  -3.478  -6.093  0.00  0.00    -0.283 N 
ATOM     25  H   UNL     1      -8.117  -2.578  -6.401  0.00  0.00    +0.155 HD
BRANCH  24  26
ATOM     26  C   UNL     1      -9.431  -4.154  -6.573  0.00  0.00    +0.035 A 
ATOM     27  C   UNL     1     -10.129  -5.021  -5.737  0.00  0.00    +0.024 A 
ATOM     28  C   UNL     1     -11.236  -5.690  -6.206  0.00  0.00    +0.022 A 
ATOM     29  C   UNL     1     -11.661  -5.499  -7.524  0.00  0.00    +0.070 A 
ATOM     30  C   UNL     1     -10.957  -4.628  -8.362  0.00  0.00    +0.060 A 
ATOM     31  C   UNL     1      -9.852  -3.957  -7.883  0.00  0.00    +0.044 A 
ATOM     32 CL   UNL     1     -11.479  -4.386 -10.000  0.00  0.00    -0.082 Cl
BRANCH  29  33
ATOM     33  C   UNL     1     -12.812  -6.194  -8.016  0.00  0.00    +0.101 C 
ATOM     34  N   UNL     1     -13.726  -6.746  -8.405  0.00  0.00    -0.191 NA
ENDBRANCH  29  33
ENDBRANCH  24  26
ENDBRANCH  21  22
ENDBRANCH  20  21
ENDBRANCH  18  20
ENDBRANCH   1  18
TORSDOF 7
