REMARK  Name = ZINC19809154
REMARK  6 active torsions:
REMARK  status: ('A' for Active; 'I' for Inactive)
REMARK    1  A    between atoms: C_1  and  C_2
REMARK    2  A    between atoms: C_2  and  C_5
REMARK    3  A    between atoms: N_3  and  O_4
REMARK    4  A    between atoms: C_8  and  O_11
REMARK    5  A    between atoms: O_11  and  C_12
REMARK    6  A    between atoms: C_12  and  C_13
REMARK                            x       y       z     vdW  Elec       q    Type
REMARK                         _______ _______ _______ _____ _____    ______ ____
ROOT
ATOM      1  C   UNL     1      -0.146   9.925  -1.839  0.00  0.00    -0.001 A 
ATOM      2  C   UNL     1      -0.145   9.077  -2.949  0.00  0.00    +0.013 A 
ATOM      3  C   UNL     1      -0.127   7.711  -2.771  0.00  0.00    +0.046 A 
ATOM      4  C   UNL     1      -0.108   7.177  -1.488  0.00  0.00    +0.121 A 
ATOM      5  C   UNL     1      -0.114   8.016  -0.382  0.00  0.00    +0.046 A 
ATOM      6  C   UNL     1      -0.128   9.384  -0.552  0.00  0.00    +0.013 A 
ENDROOT
BRANCH   1   8
ATOM      7  C   UNL     1      -0.168  12.301  -0.827  0.00  0.00    +0.069 C 
ATOM      8  C   UNL     1      -0.167  11.389  -2.026  0.00  0.00    +0.084 C 
ATOM      9  N   UNL     1      -0.185  11.888  -3.219  0.00  0.00    -0.092 NA
BRANCH   9  10
ATOM     10  O   UNL     1      -0.205  13.293  -3.398  0.00  0.00    -0.409 OA
ATOM     11  H   UNL     1      -0.220  13.717  -4.413  0.00  0.00    +0.328 HD
ENDBRANCH   9  10
ENDBRANCH   1   8
BRANCH   4  12
ATOM     12  O   UNL     1      -0.088   5.830  -1.317  0.00  0.00    -0.487 OA
BRANCH  12  13
ATOM     13  C   UNL     1      -0.070   5.348   0.029  0.00  0.00    +0.264 C 
BRANCH  13  14
ATOM     14  C   UNL     1      -0.050   3.841   0.022  0.00  0.00    -0.009 A 
ATOM     15  C   UNL     1       1.156   3.165   0.007  0.00  0.00    +0.007 A 
ATOM     16  C   UNL     1       1.175   1.783   0.000  0.00  0.00    +0.001 A 
ATOM     17  C   UNL     1      -0.013   1.076   0.008  0.00  0.00    +0.015 A 
ATOM     18  C   UNL     1      -1.220   1.751   0.017  0.00  0.00    +0.018 A 
ATOM     19  C   UNL     1      -1.238   3.134   0.029  0.00  0.00    +0.022 A 
ATOM     20 BR   UNL     1      -2.844   0.784   0.021  0.00  0.00    -0.050 Br
ENDBRANCH  13  14
ENDBRANCH  12  13
ENDBRANCH   4  12
TORSDOF 5
