REMARK  Name = ZINC41025801
REMARK  5 active torsions:
REMARK  status: ('A' for Active; 'I' for Inactive)
REMARK    1  A    between atoms: C_1  and  C_2
REMARK    2  A    between atoms: C_6  and  C_7
REMARK    3  A    between atoms: C_7  and  N_8
REMARK    4  A    between atoms: N_8  and  C_9
REMARK    5  A    between atoms: C_9  and  C_10
REMARK                            x       y       z     vdW  Elec       q    Type
REMARK                         _______ _______ _______ _____ _____    ______ ____
ROOT
ATOM      1  N   UNL     1      -1.067  -0.138   3.200  0.00  0.00    -0.301 N 
ATOM      2  C   UNL     1      -1.906   0.950   3.021  0.00  0.00    +0.151 A 
ATOM      3  C   UNL     1      -1.792   2.080   3.833  0.00  0.00    +0.126 A 
ATOM      4  C   UNL     1      -2.665   3.158   3.612  0.00  0.00    +0.183 A 
ATOM      5  N   UNL     1      -2.351   4.106   4.516  0.00  0.00    -0.216 NA
ATOM      6  H   UNL     1      -0.271   1.925   5.279  0.00  0.00    +0.167 HD
ATOM      7  C   UNL     1      -1.364   3.694   5.262  0.00  0.00    +0.199 A 
ATOM      8  N   UNL     1      -0.982   2.453   4.885  0.00  0.00    -0.340 N 
ATOM      9  N   UNL     1      -3.570   3.060   2.634  0.00  0.00    -0.214 NA
ATOM     10  C   UNL     1      -3.641   1.976   1.894  0.00  0.00    +0.225 A 
ATOM     11  N   UNL     1      -2.834   0.944   2.068  0.00  0.00    -0.218 NA
ENDROOT
BRANCH   1  12
ATOM     12  C   UNL     1       0.257  -0.153   2.574  0.00  0.00    +0.149 C 
BRANCH  12  18
ATOM     13  C   UNL     1       0.007   1.545   0.026  0.00  0.00    +0.044 C 
ATOM     14  C   UNL     1       0.028   0.038   0.007  0.00  0.00    -0.039 A 
ATOM     15  C   UNL     1      -0.060  -0.650  -1.189  0.00  0.00    +0.011 A 
ATOM     16  C   UNL     1      -0.039  -2.005  -1.171  0.00  0.00    +0.046 A 
ATOM     17  S   UNL     1       0.111  -2.349   0.574  0.00  0.00    -0.100 S 
ATOM     18  C   UNL     1       0.140  -0.663   1.161  0.00  0.00    +0.010 A 
ENDBRANCH  12  18
ENDBRANCH   1  12
BRANCH   1  19
ATOM     19  C   UNL     1      -1.505  -1.274   4.014  0.00  0.00    +0.181 C 
BRANCH  19  20
ATOM     20  C   UNL     1      -0.996  -1.109   5.423  0.00  0.00    +0.122 A 
ATOM     21  C   UNL     1      -1.642  -0.486   6.425  0.00  0.00    +0.046 A 
ATOM     22  C   UNL     1      -0.806  -0.564   7.562  0.00  0.00    +0.041 A 
ATOM     23  C   UNL     1       0.301  -1.230   7.188  0.00  0.00    +0.195 A 
ATOM     24  O   UNL     1       0.178  -1.562   5.892  0.00  0.00    -0.466 OA
ENDBRANCH  19  20
ENDBRANCH   1  19
TORSDOF 4
