REMARK  Name = ZINC50369143
REMARK  5 active torsions:
REMARK  status: ('A' for Active; 'I' for Inactive)
REMARK    1  A    between atoms: C_1  and  O_2
REMARK    2  A    between atoms: O_2  and  C_3
REMARK    3  A    between atoms: C_8  and  N_10
REMARK    4  A    between atoms: N_10  and  C_11
REMARK    5  A    between atoms: C_16  and  N_17
REMARK                            x       y       z     vdW  Elec       q    Type
REMARK                         _______ _______ _______ _____ _____    ______ ____
ROOT
ATOM      1  C   UNL     1      -1.456  -2.855   3.183  0.00  0.00    +0.050 A 
ATOM      2  C   UNL     1      -1.979  -3.720   2.239  0.00  0.00    +0.053 A 
ATOM      3  C   UNL     1      -2.996  -4.603   2.598  0.00  0.00    +0.080 A 
ATOM      4  C   UNL     1      -3.481  -4.604   3.926  0.00  0.00    +0.067 A 
ATOM      5  C   UNL     1      -2.946  -3.727   4.870  0.00  0.00    +0.040 A 
ATOM      6  C   UNL     1      -1.936  -2.862   4.501  0.00  0.00    +0.047 A 
ATOM      7  C   UNL     1      -4.552  -5.548   4.268  0.00  0.00    +0.259 A 
ATOM      8  O   UNL     1      -5.014  -5.599   5.393  0.00  0.00    -0.267 OA
ATOM      9  N   UNL     1      -5.007  -6.359   3.284  0.00  0.00    -0.313 N 
ATOM     10  H   UNL     1      -5.714  -6.995   3.474  0.00  0.00    +0.170 HD
ATOM     11  C   UNL     1      -4.482  -6.290   2.032  0.00  0.00    +0.199 A 
ATOM     12  N   UNL     1      -3.535  -5.467   1.700  0.00  0.00    -0.237 NA
ENDROOT
BRANCH   6  13
ATOM     13  N   UNL     1      -1.391  -1.983   5.445  0.00  0.00    -0.357 N 
ATOM     14  H   UNL     1      -0.683  -1.372   5.187  0.00  0.00    +0.142 HD
ATOM     15  H   UNL     1      -1.720  -1.986   6.357  0.00  0.00    +0.142 HD
ENDBRANCH   6  13
BRANCH   1  16
ATOM     16  N   UNL     1      -0.439  -1.972   2.823  0.00  0.00    -0.337 N 
ATOM     17  H   UNL     1      -0.067  -1.366   3.483  0.00  0.00    +0.146 HD
BRANCH  16  22
ATOM     18  C   UNL     1       0.673  -0.582   1.123  0.00  0.00    +0.138 C 
ATOM     19  C   UNL     1       2.159  -0.824   0.783  0.00  0.00    +0.033 C 
ATOM     20  C   UNL     1       2.498  -2.159   1.491  0.00  0.00    +0.004 C 
ATOM     21  C   UNL     1       1.206  -2.989   1.293  0.00  0.00    +0.025 C 
ATOM     22  C   UNL     1       0.067  -1.959   1.448  0.00  0.00    +0.099 C 
BRANCH  18  24
ATOM     23  C   UNL     1      -0.017   1.425   0.010  0.00  0.00    +0.194 C 
ATOM     24  O   UNL     1       0.002  -0.004   0.002  0.00  0.00    -0.378 OA
ENDBRANCH  18  24
ENDBRANCH  16  22
ENDBRANCH   1  16
TORSDOF 4
