REMARK  Name = ZINC14382996
REMARK  10 active torsions:
REMARK  status: ('A' for Active; 'I' for Inactive)
REMARK    1  A    between atoms: C_1  and  C_2
REMARK    2  A    between atoms: C_2  and  C_3
REMARK    3  A    between atoms: C_4  and  C_35
REMARK    4  A    between atoms: C_6  and  C_8
REMARK    5  A    between atoms: N_10  and  C_11
REMARK    6  A    between atoms: N_10  and  C_18
REMARK    7  A    between atoms: C_11  and  C_12
REMARK    8  A    between atoms: C_19  and  N_34
REMARK    9  A    between atoms: N_20  and  C_27
REMARK   10  A    between atoms: C_27  and  C_28
REMARK                            x       y       z     vdW  Elec       q    Type
REMARK                         _______ _______ _______ _____ _____    ______ ____
ROOT
ATOM      1  C   UNL     1       1.142  -2.043  -0.261  0.00  0.00    +0.140 A 
ATOM      2  C   UNL     1       1.713  -2.860   0.693  0.00  0.00    +0.128 A 
ATOM      3  N   UNL     1       1.676  -4.224   0.518  0.00  0.00    -0.276 N 
ATOM      4  C   UNL     1       1.099  -4.754  -0.576  0.00  0.00    +0.331 A 
ATOM      5  O   UNL     1       1.081  -5.962  -0.714  0.00  0.00    -0.246 OA
ATOM      6  N   UNL     1       0.542  -3.973  -1.518  0.00  0.00    -0.273 N 
ATOM      7  H   UNL     1       0.120  -4.393  -2.321  0.00  0.00    +0.173 HD
ATOM      8  C   UNL     1       0.547  -2.632  -1.392  0.00  0.00    +0.277 A 
ATOM      9  O   UNL     1       0.039  -1.933  -2.253  0.00  0.00    -0.266 OA
ENDROOT
BRANCH   1  12
ATOM     10  C   UNL     1       0.003   0.033   0.057  0.00  0.00    +0.258 C 
ATOM     11  O   UNL     1      -1.051  -0.573   0.127  0.00  0.00    -0.269 OA
ATOM     12  N   UNL     1       1.159  -0.640  -0.107  0.00  0.00    -0.255 N 
BRANCH  10  16
ATOM     13  C   UNL     1       0.541   4.105   0.338  0.00  0.00    -0.007 A 
ATOM     14  C   UNL     1      -0.758   3.716   0.264  0.00  0.00    -0.040 A 
ATOM     15  C   UNL     1      -1.054   2.380   0.161  0.00  0.00    +0.024 A 
ATOM     16  C   UNL     1       0.014   1.496   0.151  0.00  0.00    +0.075 A 
ATOM     17  S   UNL     1       1.407   2.604   0.274  0.00  0.00    -0.088 S 
ATOM     18  C   UNL     1      -1.863   4.741   0.288  0.00  0.00    +0.044 C 
BRANCH  13  20
ATOM     19  C   UNL     1       1.231   5.882   1.923  0.00  0.00    +0.009 C 
ATOM     20  C   UNL     1       1.096   5.502   0.448  0.00  0.00    +0.039 C 
ENDBRANCH  13  20
ENDBRANCH  10  16
BRANCH  12  21
ATOM     21  C   UNL     1       2.432   0.083  -0.126  0.00  0.00    +0.149 C 
BRANCH  21  22
ATOM     22  C   UNL     1       2.847   0.334  -1.553  0.00  0.00    -0.030 A 
ATOM     23  C   UNL     1       3.564  -0.626  -2.243  0.00  0.00    +0.005 A 
ATOM     24  C   UNL     1       3.939  -0.399  -3.554  0.00  0.00    +0.000 A 
ATOM     25  C   UNL     1       3.607   0.793  -4.171  0.00  0.00    +0.000 A 
ATOM     26  C   UNL     1       2.895   1.755  -3.479  0.00  0.00    +0.000 A 
ATOM     27  C   UNL     1       2.515   1.525  -2.170  0.00  0.00    +0.005 A 
ENDBRANCH  21  22
ENDBRANCH  12  21
ENDBRANCH   1  12
BRANCH   2  28
ATOM     28  N   UNL     1       2.308  -2.318   1.808  0.00  0.00    -0.343 N 
ATOM     29  H   UNL     1       2.264  -1.361   1.964  0.00  0.00    +0.144 HD
ATOM     30  H   UNL     1       2.771  -2.892   2.438  0.00  0.00    +0.144 HD
ENDBRANCH   2  28
BRANCH   3  31
ATOM     31  C   UNL     1       2.273  -5.104   1.526  0.00  0.00    +0.163 C 
BRANCH  31  32
ATOM     32  C   UNL     1       3.722  -5.346   1.186  0.00  0.00    -0.028 A 
ATOM     33  C   UNL     1       4.075  -6.415   0.385  0.00  0.00    +0.005 A 
ATOM     34  C   UNL     1       5.403  -6.634   0.070  0.00  0.00    +0.000 A 
ATOM     35  C   UNL     1       6.379  -5.789   0.564  0.00  0.00    +0.000 A 
ATOM     36  C   UNL     1       6.026  -4.723   1.369  0.00  0.00    +0.000 A 
ATOM     37  C   UNL     1       4.698  -4.500   1.680  0.00  0.00    +0.005 A 
ENDBRANCH  31  32
ENDBRANCH   3  31
TORSDOF 8
