REMARK  Name = ZINC53113226
REMARK  8 active torsions:
REMARK  status: ('A' for Active; 'I' for Inactive)
REMARK    1  A    between atoms: C_1  and  C_2
REMARK    2  A    between atoms: C_5  and  N_22
REMARK    3  A    between atoms: C_7  and  S_8
REMARK    4  A    between atoms: S_8  and  N_11
REMARK    5  A    between atoms: N_11  and  C_12
REMARK    6  A    between atoms: C_12  and  C_20
REMARK    7  A    between atoms: C_16  and  C_19
REMARK    8  A    between atoms: C_20  and  O_21
REMARK                            x       y       z     vdW  Elec       q    Type
REMARK                         _______ _______ _______ _____ _____    ______ ____
ROOT
ATOM      1  S   UNL     1       0.564   0.137   2.785  0.00  0.00    +0.059 S 
ATOM      2  O   UNL     1       0.921  -1.005   3.550  0.00  0.00    -0.153 OA
ATOM      3  O   UNL     1       0.300   0.067   1.390  0.00  0.00    -0.153 OA
ENDROOT
BRANCH   1  10
ATOM      4  C   UNL     1       0.214   0.497   5.765  0.00  0.00    +0.046 C 
ATOM      5  C   UNL     1      -0.945   0.942   4.912  0.00  0.00    -0.024 A 
ATOM      6  C   UNL     1      -2.073   1.481   5.505  0.00  0.00    +0.007 A 
ATOM      7  C   UNL     1      -3.137   1.889   4.726  0.00  0.00    +0.023 A 
ATOM      8  C   UNL     1      -3.075   1.759   3.345  0.00  0.00    +0.026 A 
ATOM      9  C   UNL     1      -1.941   1.218   2.752  0.00  0.00    +0.051 A 
ATOM     10  C   UNL     1      -0.878   0.817   3.536  0.00  0.00    +0.110 A 
BRANCH   8  11
ATOM     11  N   UNL     1      -4.149   2.171   2.554  0.00  0.00    -0.358 N 
ATOM     12  H   UNL     1      -4.941   2.549   2.969  0.00  0.00    +0.142 HD
ATOM     13  H   UNL     1      -4.105   2.080   1.589  0.00  0.00    +0.142 HD
ENDBRANCH   8  11
ENDBRANCH   1  10
BRANCH   1  14
ATOM     14  N   UNL     1       1.784   1.239   2.981  0.00  0.00    -0.182 NA
ATOM     15  H   UNL     1       2.514   1.051   3.591  0.00  0.00    +0.149 HD
BRANCH  14  16
ATOM     16  C   UNL     1       1.762   2.498   2.232  0.00  0.00    +0.063 C 
ATOM     17  C   UNL     1       0.425   3.205   2.463  0.00  0.00    +0.026 C 
ATOM     18  C   UNL     1       0.253   3.496   3.955  0.00  0.00    +0.002 C 
ATOM     19  C   UNL     1       1.394   4.395   4.434  0.00  0.00    +0.003 C 
ATOM     20  C   UNL     1       2.731   3.688   4.203  0.00  0.00    -0.012 C 
ATOM     21  C   UNL     1       2.903   3.397   2.711  0.00  0.00    +0.029 C 
ATOM     22  C   UNL     1       3.873   4.587   4.682  0.00  0.00    +0.007 C 
BRANCH  16  23
ATOM     23  C   UNL     1       1.934   2.207   0.740  0.00  0.00    +0.179 C 
BRANCH  23  24
ATOM     24  O   UNL     1       0.711   1.690   0.211  0.00  0.00    -0.393 OA
ATOM     25  H   UNL     1       0.768   1.412  -0.713  0.00  0.00    +0.209 HD
ENDBRANCH  23  24
ENDBRANCH  16  23
ENDBRANCH  14  16
ENDBRANCH   1  14
TORSDOF 6
