REMARK  Name = ZINC12127294
REMARK  6 active torsions:
REMARK  status: ('A' for Active; 'I' for Inactive)
REMARK    1  A    between atoms: C_1  and  C_2
REMARK    2  A    between atoms: C_2  and  C_3
REMARK    3  A    between atoms: C_3  and  C_5
REMARK    4  A    between atoms: C_3  and  N_7
REMARK    5  A    between atoms: C_14  and  C_20
REMARK    6  A    between atoms: C_15  and  C_17
REMARK                            x       y       z     vdW  Elec       q    Type
REMARK                         _______ _______ _______ _____ _____    ______ ____
ROOT
ATOM      1  N   UNL     1      -0.016   1.352   0.009  0.00  0.00    -0.285 N 
ATOM      2  C   UNL     1       0.002  -0.004   0.002  0.00  0.00    +0.204 A 
ATOM      3  N   UNL     1       1.119  -0.679  -0.012  0.00  0.00    -0.230 NA
ATOM      4  C   UNL     1       2.299  -0.071  -0.020  0.00  0.00    +0.116 A 
ATOM      5  C   UNL     1       2.412   1.338  -0.014  0.00  0.00    +0.076 A 
ATOM      6  C   UNL     1       1.125   2.068   0.002  0.00  0.00    +0.263 A 
ATOM      7  O   UNL     1       1.097   3.286   0.009  0.00  0.00    -0.267 OA
ATOM      8  C   UNL     1       3.714   1.843  -0.023  0.00  0.00    -0.017 A 
ATOM      9  C   UNL     1       4.775   0.986  -0.038  0.00  0.00    +0.079 A 
ATOM     10  S   UNL     1       3.988  -0.616  -0.039  0.00  0.00    -0.064 S 
ATOM     11  C   UNL     1       3.946   3.332  -0.018  0.00  0.00    +0.046 C 
ENDROOT
BRANCH   9  12
ATOM     12  C   UNL     1       6.207   1.302  -0.050  0.00  0.00    +0.248 C 
ATOM     13  O   UNL     1       6.574   2.463  -0.047  0.00  0.00    -0.270 OA
ATOM     14  N   UNL     1       7.117   0.308  -0.064  0.00  0.00    -0.325 N 
ATOM     15  H   UNL     1       6.824  -0.617  -0.066  0.00  0.00    +0.145 HD
ATOM     16  H   UNL     1       8.064   0.517  -0.072  0.00  0.00    +0.145 HD
ENDBRANCH   9  12
BRANCH   1  17
ATOM     17  C   UNL     1      -1.303   2.051   0.019  0.00  0.00    +0.204 C 
BRANCH  17  18
ATOM     18  C   UNL     1      -2.090   1.674  -1.210  0.00  0.00    +0.378 C 
ATOM     19  O   UNL     1      -1.623   0.900  -2.011  0.00  0.00    -0.244 OA
ATOM     20  O   UNL     1      -3.309   2.198  -1.413  0.00  0.00    -0.244 OA
ENDBRANCH  17  18
BRANCH  17  22
ATOM     21  C   UNL     1      -1.351   2.149   2.515  0.00  0.00    +0.006 C 
ATOM     22  C   UNL     1      -2.090   1.655   1.270  0.00  0.00    +0.033 C 
ENDBRANCH  17  22
ENDBRANCH   1  17
TORSDOF 4
