REMARK  Name = ZINC09592668
REMARK  4 active torsions:
REMARK  status: ('A' for Active; 'I' for Inactive)
REMARK    1  A    between atoms: C_1  and  N_2
REMARK    2  A    between atoms: C_11  and  C_13
REMARK    3  A    between atoms: N_15  and  C_16
REMARK    4  A    between atoms: C_17  and  C_26
REMARK                            x       y       z     vdW  Elec       q    Type
REMARK                         _______ _______ _______ _____ _____    ______ ____
ROOT
ATOM      1  C   UNL     1       0.939   3.499   0.011  0.00  0.00    +0.269 C 
ATOM      2  O   UNL     1       1.940   4.190   0.006  0.00  0.00    -0.268 OA
ATOM      3  N   UNL     1      -0.279   4.076   0.026  0.00  0.00    -0.274 N 
ATOM      4  H   UNL     1      -1.077   3.525   0.030  0.00  0.00    +0.156 HD
ENDROOT
BRANCH   1  15
ATOM      5  C   UNL     1      -1.279  -0.715   0.011  0.00  0.00    +0.176 C 
ATOM      6  N   UNL     1       0.002  -0.004   0.002  0.00  0.00    -0.231 N 
ATOM      7  C   UNL     1       1.137  -0.734  -0.013  0.00  0.00    +0.275 A 
ATOM      8  O   UNL     1       1.095  -1.950  -0.019  0.00  0.00    -0.266 OA
ATOM      9  C   UNL     1       2.424  -0.025  -0.022  0.00  0.00    +0.050 A 
ATOM     10  C   UNL     1       3.649  -0.685  -0.038  0.00  0.00    +0.014 A 
ATOM     11  C   UNL     1       4.814   0.053  -0.045  0.00  0.00    +0.001 A 
ATOM     12  C   UNL     1       4.774   1.442  -0.037  0.00  0.00    +0.001 A 
ATOM     13  C   UNL     1       3.570   2.114  -0.022  0.00  0.00    +0.011 A 
ATOM     14  C   UNL     1       2.384   1.388  -0.013  0.00  0.00    +0.020 A 
ATOM     15  C   UNL     1       1.058   2.028   0.003  0.00  0.00    +0.154 A 
ATOM     16  N   UNL     1      -0.015   1.275   0.009  0.00  0.00    -0.163 NA
ENDBRANCH   1  15
BRANCH   3  17
ATOM     17  C   UNL     1      -0.391   5.457   0.034  0.00  0.00    +0.085 A 
ATOM     18  C   UNL     1      -1.543   6.228   0.043  0.00  0.00    +0.068 A 
ATOM     19  C   UNL     1      -1.388   7.676   0.058  0.00  0.00    -0.023 A 
ATOM     20  C   UNL     1      -0.110   8.113   0.044  0.00  0.00    -0.004 A 
ATOM     21  S   UNL     1       0.875   6.639   0.027  0.00  0.00    -0.077 S 
ATOM     22  C   UNL     1       0.373   9.529   0.029  0.00  0.00    +0.043 C 
ATOM     23  C   UNL     1      -0.358  10.325   1.118  0.00  0.00    +0.005 C 
ATOM     24  C   UNL     1      -1.633  10.908   0.516  0.00  0.00    +0.001 C 
ATOM     25  C   UNL     1      -2.196   9.961  -0.541  0.00  0.00    +0.005 C 
ATOM     26  C   UNL     1      -2.579   8.626   0.089  0.00  0.00    +0.037 C 
BRANCH  18  27
ATOM     27  C   UNL     1      -2.871   5.607   0.041  0.00  0.00    +0.244 C 
ATOM     28  O   UNL     1      -3.419   5.341   1.095  0.00  0.00    -0.270 OA
ATOM     29  N   UNL     1      -3.484   5.330  -1.127  0.00  0.00    -0.325 N 
ATOM     30  H   UNL     1      -3.046   5.542  -1.966  0.00  0.00    +0.145 HD
ATOM     31  H   UNL     1      -4.363   4.919  -1.128  0.00  0.00    +0.145 HD
ENDBRANCH  18  27
ENDBRANCH   3  17
TORSDOF 3
