REMARK  Name = ZINC33631500
REMARK  6 active torsions:
REMARK  status: ('A' for Active; 'I' for Inactive)
REMARK    1  A    between atoms: C_1  and  C_2
REMARK    2  A    between atoms: C_7  and  N_8
REMARK    3  A    between atoms: C_13  and  C_25
REMARK    4  A    between atoms: N_15  and  C_21
REMARK    5  A    between atoms: C_21  and  C_22
REMARK    6  A    between atoms: C_29  and  O_31
REMARK                            x       y       z     vdW  Elec       q    Type
REMARK                         _______ _______ _______ _____ _____    ______ ____
ROOT
ATOM      1  N   UNL     1      -0.494  -0.459   2.859  0.00  0.00    -0.208 N 
ATOM      2  C   UNL     1      -1.626  -0.048   3.442  0.00  0.00    +0.234 C 
ATOM      3  O   UNL     1      -2.745  -0.383   3.117  0.00  0.00    -0.274 OA
ATOM      4  C   UNL     1      -1.292   0.902   4.571  0.00  0.00    +0.139 C 
ATOM      5  C   UNL     1      -1.748   2.326   4.180  0.00  0.00    +0.130 C 
ATOM      6  N   UNL     1      -0.570   2.868   3.452  0.00  0.00    -0.170 NA
ATOM      7  O   UNL     1       0.587   2.333   4.198  0.00  0.00    -0.282 OA
ATOM      8  C   UNL     1       0.258   0.958   4.545  0.00  0.00    +0.242 C 
ATOM      9  C   UNL     1       0.623   0.041   3.399  0.00  0.00    +0.258 C 
ATOM     10  O   UNL     1       1.751  -0.202   3.027  0.00  0.00    -0.272 OA
ENDROOT
BRANCH   1  17
ATOM     11  C   UNL     1      -0.540  -3.253   3.403  0.00  0.00    +0.045 C 
ATOM     12  C   UNL     1      -0.501  -2.717   1.995  0.00  0.00    -0.029 A 
ATOM     13  C   UNL     1      -0.493  -3.588   0.923  0.00  0.00    +0.005 A 
ATOM     14  C   UNL     1      -0.458  -3.098  -0.369  0.00  0.00    +0.000 A 
ATOM     15  C   UNL     1      -0.432  -1.733  -0.593  0.00  0.00    +0.002 A 
ATOM     16  C   UNL     1      -0.440  -0.857   0.475  0.00  0.00    +0.024 A 
ATOM     17  C   UNL     1      -0.480  -1.347   1.773  0.00  0.00    +0.047 A 
ENDBRANCH   1  17
BRANCH   5  18
ATOM     18  C   UNL     1      -2.956   2.271   3.281  0.00  0.00    -0.024 A 
ATOM     19  C   UNL     1      -2.794   2.143   1.914  0.00  0.00    +0.005 A 
ATOM     20  C   UNL     1      -3.901   2.092   1.086  0.00  0.00    +0.004 A 
ATOM     21  C   UNL     1      -5.171   2.169   1.624  0.00  0.00    +0.045 A 
ATOM     22  C   UNL     1      -5.336   2.298   2.995  0.00  0.00    +0.117 A 
ATOM     23  C   UNL     1      -4.224   2.343   3.824  0.00  0.00    +0.050 A 
BRANCH  22  24
ATOM     24  O   UNL     1      -6.585   2.375   3.526  0.00  0.00    -0.507 OA
ATOM     25  H   UNL     1      -6.966   1.518   3.760  0.00  0.00    +0.292 HD
ENDBRANCH  22  24
ENDBRANCH   5  18
BRANCH   6  26
ATOM     26  C   UNL     1      -0.572   4.337   3.466  0.00  0.00    +0.210 C 
BRANCH  26  27
ATOM     27  C   UNL     1       0.485   4.850   2.522  0.00  0.00    +0.227 C 
ATOM     28  O   UNL     1       1.172   4.068   1.898  0.00  0.00    -0.275 OA
ATOM     29  N   UNL     1       0.667   6.176   2.370  0.00  0.00    -0.328 N 
ATOM     30  H   UNL     1       0.118   6.801   2.869  0.00  0.00    +0.145 HD
ATOM     31  H   UNL     1       1.347   6.506   1.762  0.00  0.00    +0.145 HD
ENDBRANCH  26  27
ENDBRANCH   6  26
TORSDOF 5
