REMARK  Name = ZINC33489790
REMARK  12 active torsions:
REMARK  status: ('A' for Active; 'I' for Inactive)
REMARK    1  A    between atoms: C_1  and  C_2
REMARK    2  A    between atoms: C_2  and  C_3
REMARK    3  A    between atoms: C_3  and  C_4
REMARK    4  A    between atoms: C_4  and  C_5
REMARK    5  A    between atoms: C_5  and  C_6
REMARK    6  A    between atoms: C_6  and  N_7
REMARK    7  A    between atoms: C_8  and  N_9
REMARK    8  A    between atoms: C_10  and  C_24
REMARK    9  A    between atoms: C_16  and  C_23
REMARK   10  A    between atoms: N_26  and  C_27
REMARK   11  A    between atoms: C_27  and  C_29
REMARK   12  A    between atoms: C_27  and  C_30
REMARK                            x       y       z     vdW  Elec       q    Type
REMARK                         _______ _______ _______ _____ _____    ______ ____
ROOT
ATOM      1  N   UNL     1       2.353  -0.148  -0.009  0.00  0.00    -0.313 N 
ATOM      2  C   UNL     1       2.508   1.222   0.005  0.00  0.00    +0.110 A 
ATOM      3  C   UNL     1       1.320   2.089   0.010  0.00  0.00    +0.075 A 
ATOM      4  C   UNL     1       0.060   1.507  -0.001  0.00  0.00    +0.033 A 
ATOM      5  C   UNL     1      -0.053   0.109  -0.016  0.00  0.00    +0.083 A 
ATOM      6  C   UNL     1       1.100  -0.709  -0.019  0.00  0.00    +0.150 A 
ATOM      7  N   UNL     1       0.960  -2.028  -0.033  0.00  0.00    -0.211 NA
ATOM      8  C   UNL     1      -0.243  -2.604  -0.044  0.00  0.00    +0.145 A 
ATOM      9  C   UNL     1      -0.326  -4.009  -0.058  0.00  0.00    -0.007 A 
ATOM     10  C   UNL     1      -1.550  -4.610  -0.069  0.00  0.00    +0.008 A 
ATOM     11  C   UNL     1      -2.708  -3.821  -0.066  0.00  0.00    +0.019 A 
ATOM     12  C   UNL     1      -2.609  -2.473  -0.052  0.00  0.00    +0.096 A 
ATOM     13  N   UNL     1      -1.391  -1.862  -0.041  0.00  0.00    -0.267 N 
ATOM     14  C   UNL     1      -1.329  -0.512  -0.027  0.00  0.00    +0.268 A 
ATOM     15  O   UNL     1      -2.346   0.157  -0.025  0.00  0.00    -0.267 OA
ATOM     16  C   UNL     1       0.929  -4.843  -0.060  0.00  0.00    +0.047 C 
ENDROOT
BRANCH   3  17
ATOM     17  C   UNL     1       1.464   3.549   0.026  0.00  0.00    +0.248 C 
ATOM     18  O   UNL     1       2.568   4.052  -0.070  0.00  0.00    -0.270 OA
ATOM     19  N   UNL     1       0.375   4.333   0.146  0.00  0.00    -0.305 N 
ATOM     20  H   UNL     1      -0.623   3.878   0.233  0.00  0.00    +0.150 HD
BRANCH  19  21
ATOM     21  C   UNL     1       0.519   5.791   0.162  0.00  0.00    +0.100 C 
ATOM     22  C   UNL     1       0.832   6.257   1.586  0.00  0.00    +0.033 C 
BRANCH  21  23
ATOM     23  C   UNL     1      -0.764   6.428  -0.305  0.00  0.00    -0.027 A 
ATOM     24  C   UNL     1      -1.980   5.904   0.091  0.00  0.00    +0.005 A 
ATOM     25  C   UNL     1      -3.157   6.491  -0.334  0.00  0.00    +0.000 A 
ATOM     26  C   UNL     1      -3.118   7.597  -1.162  0.00  0.00    +0.000 A 
ATOM     27  C   UNL     1      -1.902   8.118  -1.562  0.00  0.00    +0.000 A 
ATOM     28  C   UNL     1      -0.725   7.534  -1.134  0.00  0.00    +0.005 A 
ENDBRANCH  21  23
ENDBRANCH  19  21
ENDBRANCH   3  17
BRANCH   2  29
ATOM     29  N   UNL     1       3.706   1.748   0.014  0.00  0.00    -0.344 N 
ATOM     30  H   UNL     1       3.827   2.841   0.025  0.00  0.00    +0.144 HD
ATOM     31  H   UNL     1       4.593   1.097   0.010  0.00  0.00    +0.144 HD
ENDBRANCH   2  29
BRANCH   1  32
ATOM     32  C   UNL     1       3.536  -1.012  -0.013  0.00  0.00    +0.125 C 
BRANCH  32  33
ATOM     33  C   UNL     1       3.953  -1.299  -1.457  0.00  0.00    +0.022 C 
BRANCH  33  34
ATOM     34  C   UNL     1       5.189  -2.202  -1.461  0.00  0.00    +0.002 C 
BRANCH  34  35
ATOM     35  C   UNL     1       5.606  -2.488  -2.905  0.00  0.00    -0.000 C 
BRANCH  35  37
ATOM     36  C   UNL     1       7.258  -3.678  -4.353  0.00  0.00    +0.004 C 
ATOM     37  C   UNL     1       6.841  -3.391  -2.909  0.00  0.00    -0.003 C 
ENDBRANCH  35  37
ENDBRANCH  34  35
ENDBRANCH  33  34
ENDBRANCH  32  33
ENDBRANCH   1  32
TORSDOF 9
