REMARK  Name = ZINC65536304
REMARK  5 active torsions:
REMARK  status: ('A' for Active; 'I' for Inactive)
REMARK    1  A    between atoms: C_4  and  S_11
REMARK    2  A    between atoms: C_5  and  O_7
REMARK    3  A    between atoms: O_7  and  C_8
REMARK    4  A    between atoms: S_11  and  N_14
REMARK    5  A    between atoms: N_14  and  C_15
REMARK                            x       y       z     vdW  Elec       q    Type
REMARK                         _______ _______ _______ _____ _____    ______ ____
ROOT
ATOM      1  S   UNL     1       3.944  -0.822  -0.042  0.00  0.00    +0.095 S 
ATOM      2  O   UNL     1       3.854  -1.796  -1.072  0.00  0.00    -0.148 OA
ATOM      3  O   UNL     1       4.960   0.172  -0.019  0.00  0.00    -0.148 OA
ENDROOT
BRANCH   1   7
ATOM      4  C   UNL     1      -0.017   1.377   0.010  0.00  0.00    +0.004 A 
ATOM      5  C   UNL     1       1.171   2.086   0.002  0.00  0.00    +0.002 A 
ATOM      6  C   UNL     1       2.379   1.415  -0.013  0.00  0.00    +0.032 A 
ATOM      7  C   UNL     1       2.403   0.033  -0.021  0.00  0.00    +0.152 A 
ATOM      8  C   UNL     1       1.214  -0.680  -0.013  0.00  0.00    +0.153 A 
ATOM      9  C   UNL     1       0.002  -0.004   0.002  0.00  0.00    +0.048 A 
BRANCH   8  10
ATOM     10  O   UNL     1       1.235  -2.039  -0.021  0.00  0.00    -0.432 OA
BRANCH  10  11
ATOM     11  C   UNL     1      -0.028  -2.708  -0.013  0.00  0.00    +0.541 C 
ATOM     12  F   UNL     1      -0.738  -2.349   1.138  0.00  0.00    -0.166 F 
ATOM     13  F   UNL     1      -0.760  -2.336  -1.146  0.00  0.00    -0.166 F 
ENDBRANCH  10  11
ENDBRANCH   8  10
ENDBRANCH   1   7
BRANCH   1  14
ATOM     14  N   UNL     1       4.062  -1.652   1.387  0.00  0.00    -0.095 NA
BRANCH  14  15
ATOM     15  C   UNL     1       5.194  -2.430   1.651  0.00  0.00    +0.112 A 
ATOM     16  C   UNL     1       6.221  -2.502   0.721  0.00  0.00    +0.068 A 
ATOM     17  C   UNL     1       7.340  -3.272   0.986  0.00  0.00    +0.125 A 
ATOM     18  C   UNL     1       7.434  -3.970   2.179  0.00  0.00    +0.041 A 
ATOM     19  C   UNL     1       6.412  -3.900   3.107  0.00  0.00    +0.043 A 
ATOM     20  C   UNL     1       5.294  -3.128   2.850  0.00  0.00    +0.148 A 
ATOM     21  F   UNL     1       4.299  -3.055   3.761  0.00  0.00    -0.203 F 
ATOM     22  F   UNL     1       8.340  -3.344   0.081  0.00  0.00    -0.205 F 
ENDBRANCH  14  15
ENDBRANCH   1  14
TORSDOF 5
