REMARK  Name = ZINC63680611
REMARK  9 active torsions:
REMARK  status: ('A' for Active; 'I' for Inactive)
REMARK    1  A    between atoms: C_1  and  C_2
REMARK    2  A    between atoms: C_2  and  N_3
REMARK    3  A    between atoms: C_6  and  N_9
REMARK    4  A    between atoms: C_10  and  C_12
REMARK    5  A    between atoms: C_12  and  N_13
REMARK    6  A    between atoms: N_13  and  S_14
REMARK    7  A    between atoms: S_14  and  C_17
REMARK    8  A    between atoms: C_18  and  C_19
REMARK    9  A    between atoms: C_22  and  C_25
REMARK                            x       y       z     vdW  Elec       q    Type
REMARK                         _______ _______ _______ _____ _____    ______ ____
ROOT
ATOM      1  C   UNL     1      -6.731  -4.238  -1.165  0.00  0.00    +0.201 C 
ENDROOT
BRANCH   1   3
ATOM      2  N   UNL     1      -4.952  -2.536  -0.926  0.00  0.00    -0.311 N 
ATOM      3  C   UNL     1      -5.298  -3.788  -1.284  0.00  0.00    +0.229 C 
ATOM      4  O   UNL     1      -4.455  -4.553  -1.703  0.00  0.00    -0.274 OA
ATOM      5  H   UNL     1      -5.626  -1.924  -0.591  0.00  0.00    +0.149 HD
BRANCH   2   9
ATOM      6  N   UNL     1      -1.376  -0.512   0.012  0.00  0.00    +0.380 N 
ATOM      7  C   UNL     1      -2.051  -0.118  -1.230  0.00  0.00    -0.077 C 
ATOM      8  C   UNL     1      -3.511  -0.575  -1.189  0.00  0.00    +0.003 C 
ATOM      9  C   UNL     1      -3.559  -2.099  -1.042  0.00  0.00    +0.069 C 
ATOM     10  C   UNL     1      -2.788  -2.505   0.218  0.00  0.00    +0.003 C 
ATOM     11  C   UNL     1      -1.355  -1.976   0.125  0.00  0.00    -0.077 C 
ATOM     12  H   UNL     1      -1.871  -0.123   0.800  0.00  0.00    -0.082 HD
BRANCH   6  14
ATOM     13  C   UNL     1      -0.019   1.526   0.010  0.00  0.00    -0.017 C 
ATOM     14  C   UNL     1       0.002  -0.004   0.002  0.00  0.00    -0.082 C 
ENDBRANCH   6  14
ENDBRANCH   2   9
ENDBRANCH   1   3
BRANCH   1  15
ATOM     15  N   UNL     1      -6.846  -5.628  -1.614  0.00  0.00    -0.182 NA
ATOM     16  H   UNL     1      -6.126  -6.035  -2.121  0.00  0.00    +0.149 HD
BRANCH  15  17
ATOM     17  S   UNL     1      -8.204  -6.504  -1.255  0.00  0.00    +0.052 S 
ATOM     18  O   UNL     1      -8.027  -7.786  -1.842  0.00  0.00    -0.154 OA
ATOM     19  O   UNL     1      -8.445  -6.329   0.134  0.00  0.00    -0.154 OA
BRANCH  17  20
ATOM     20  C   UNL     1      -9.552  -5.745  -2.099  0.00  0.00    +0.153 C 
ATOM     21  C   UNL     1     -10.186  -6.402  -3.061  0.00  0.00    +0.028 C 
BRANCH  21  22
ATOM     22  C   UNL     1     -11.317  -5.766  -3.769  0.00  0.00    -0.024 A 
ATOM     23  C   UNL     1     -11.715  -4.471  -3.432  0.00  0.00    +0.008 A 
ATOM     24  C   UNL     1     -12.771  -3.883  -4.097  0.00  0.00    +0.004 A 
ATOM     25  C   UNL     1     -13.435  -4.573  -5.095  0.00  0.00    -0.050 A 
ATOM     26  C   UNL     1     -13.045  -5.857  -5.434  0.00  0.00    +0.004 A 
ATOM     27  C   UNL     1     -11.986  -6.454  -4.781  0.00  0.00    +0.008 A 
ATOM     28  C   UNL     1     -14.588  -3.924  -5.817  0.00  0.00    +0.044 C 
ENDBRANCH  21  22
ENDBRANCH  17  20
ENDBRANCH  15  17
ENDBRANCH   1  15
TORSDOF 7
