REMARK  Name = ZINC60208467
REMARK  9 active torsions:
REMARK  status: ('A' for Active; 'I' for Inactive)
REMARK    1  A    between atoms: C_1  and  C_2
REMARK    2  A    between atoms: N_11  and  C_15
REMARK    3  A    between atoms: C_15  and  C_16
REMARK    4  A    between atoms: N_18  and  C_19
REMARK    5  A    between atoms: N_18  and  C_24
REMARK    6  A    between atoms: C_19  and  C_20
REMARK    7  A    between atoms: C_20  and  N_21
REMARK    8  A    between atoms: N_21  and  C_22
REMARK    9  A    between atoms: N_21  and  C_23
REMARK                            x       y       z     vdW  Elec       q    Type
REMARK                         _______ _______ _______ _____ _____    ______ ____
ROOT
ATOM      1  C   UNL     1       0.423   1.330   4.449  0.00  0.00    +0.214 C 
ENDROOT
BRANCH   1  11
ATOM      2  C   UNL     1      -1.750   1.000   0.598  0.00  0.00    +0.010 C 
ATOM      3  C   UNL     1      -1.857  -0.514   0.791  0.00  0.00    +0.018 C 
ATOM      4  C   UNL     1      -3.262  -0.867   1.284  0.00  0.00    +0.006 C 
ATOM      5  C   UNL     1      -3.361  -2.379   1.497  0.00  0.00    +0.000 C 
ATOM      6  C   UNL     1      -2.338  -2.815   2.548  0.00  0.00    +0.003 C 
ATOM      7  C   UNL     1      -0.929  -2.470   2.060  0.00  0.00    +0.035 C 
ATOM      8  C   UNL     1      -0.826  -0.968   1.819  0.00  0.00    +0.115 C 
ATOM      9  C   UNL     1      -1.003  -0.211   3.115  0.00  0.00    +0.247 C 
ATOM     10  O   UNL     1      -1.979  -0.207   3.835  0.00  0.00    -0.273 OA
ATOM     11  N   UNL     1       0.153   0.459   3.303  0.00  0.00    -0.215 N 
ATOM     12  C   UNL     1       1.023   0.228   2.311  0.00  0.00    +0.310 C 
ATOM     13  O   UNL     1       2.133   0.720   2.258  0.00  0.00    -0.252 OA
ATOM     14  N   UNL     1       0.529  -0.610   1.380  0.00  0.00    -0.285 N 
ATOM     15  H   UNL     1       0.980  -0.917   0.578  0.00  0.00    +0.151 HD
ENDBRANCH   1  11
BRANCH   1  16
ATOM     16  C   UNL     1       1.040   0.522   5.560  0.00  0.00    +0.238 C 
ATOM     17  O   UNL     1       1.322  -0.644   5.378  0.00  0.00    -0.274 OA
ATOM     18  N   UNL     1       1.279   1.094   6.757  0.00  0.00    -0.272 N 
BRANCH  18  19
ATOM     19  C   UNL     1       0.856   2.405   7.003  0.00  0.00    +0.036 A 
ATOM     20  C   UNL     1      -0.143   2.649   7.936  0.00  0.00    +0.023 A 
ATOM     21  C   UNL     1      -0.559   3.944   8.177  0.00  0.00    +0.002 A 
ATOM     22  C   UNL     1       0.018   4.996   7.489  0.00  0.00    +0.000 A 
ATOM     23  C   UNL     1       1.012   4.756   6.559  0.00  0.00    +0.002 A 
ATOM     24  C   UNL     1       1.437   3.464   6.319  0.00  0.00    +0.023 A 
ENDBRANCH  18  19
BRANCH  18  25
ATOM     25  C   UNL     1       1.983   0.344   7.800  0.00  0.00    +0.095 C 
BRANCH  25  26
ATOM     26  C   UNL     1       3.489   0.582   7.672  0.00  0.00    -0.060 C 
BRANCH  26  27
ATOM     27  N   UNL     1       4.194  -0.170   8.718  0.00  0.00    +0.377 N 
ATOM     28  C   UNL     1       5.644  -0.037   8.523  0.00  0.00    -0.097 C 
ATOM     29  C   UNL     1       3.827   0.363  10.037  0.00  0.00    -0.097 C 
ATOM     30  H   UNL     1       3.936  -1.144   8.665  0.00  0.00    -0.083 HD
ENDBRANCH  26  27
ENDBRANCH  25  26
ENDBRANCH  18  25
ENDBRANCH   1  16
TORSDOF 6
