REMARK  Name = ZINC17045435
REMARK  8 active torsions:
REMARK  status: ('A' for Active; 'I' for Inactive)
REMARK    1  A    between atoms: C_1  and  C_2
REMARK    2  A    between atoms: C_2  and  C_3
REMARK    3  A    between atoms: C_3  and  C_5
REMARK    4  A    between atoms: C_3  and  C_6
REMARK    5  A    between atoms: C_6  and  C_8
REMARK    6  A    between atoms: C_6  and  N_17
REMARK    7  A    between atoms: N_10  and  C_11
REMARK    8  A    between atoms: C_11  and  C_12
REMARK                            x       y       z     vdW  Elec       q    Type
REMARK                         _______ _______ _______ _____ _____    ______ ____
ROOT
ATOM      1  N   UNL     1       1.271  -2.598   0.092  0.00  0.00    -0.287 N 
ATOM      2  C   UNL     1       2.601  -2.813   0.053  0.00  0.00    +0.308 C 
ATOM      3  O   UNL     1       3.303  -2.451   0.978  0.00  0.00    -0.252 OA
ATOM      4  N   UNL     1       3.153  -3.429  -1.011  0.00  0.00    -0.245 N 
ATOM      5  C   UNL     1       2.344  -3.782  -2.188  0.00  0.00    +0.211 C 
ATOM      6  C   UNL     1       2.736  -5.159  -2.658  0.00  0.00    +0.235 C 
ATOM      7  O   UNL     1       1.917  -5.856  -3.220  0.00  0.00    -0.274 OA
ATOM      8  N   UNL     1       3.983  -5.626  -2.462  0.00  0.00    -0.283 N 
ATOM      9  C   UNL     1       4.932  -4.864  -1.771  0.00  0.00    +0.055 A 
ATOM     10  C   UNL     1       4.520  -3.748  -1.035  0.00  0.00    +0.059 A 
ATOM     11  C   UNL     1       5.444  -2.984  -0.346  0.00  0.00    +0.025 A 
ATOM     12  C   UNL     1       6.785  -3.322  -0.393  0.00  0.00    +0.002 A 
ATOM     13  C   UNL     1       7.200  -4.419  -1.125  0.00  0.00    +0.002 A 
ATOM     14  C   UNL     1       6.276  -5.199  -1.811  0.00  0.00    +0.025 A 
ATOM     15  H   UNL     1       0.720  -2.828  -0.672  0.00  0.00    +0.151 HD
ATOM     16  H   UNL     1       4.227  -6.501  -2.803  0.00  0.00    +0.155 HD
ENDROOT
BRANCH   1  17
ATOM     17  C   UNL     1       0.657  -2.018   1.290  0.00  0.00    +0.163 C 
BRANCH  17  18
ATOM     18  C   UNL     1      -0.791  -2.427   1.361  0.00  0.00    +0.234 C 
ATOM     19  O   UNL     1      -1.265  -3.134   0.496  0.00  0.00    -0.274 OA
ATOM     20  N   UNL     1      -1.560  -2.008   2.385  0.00  0.00    -0.307 N 
ATOM     21  H   UNL     1      -1.182  -1.442   3.076  0.00  0.00    +0.149 HD
BRANCH  20  22
ATOM     22  C   UNL     1      -2.969  -2.406   2.454  0.00  0.00    +0.178 C 
BRANCH  22  23
ATOM     23  C   UNL     1      -3.599  -1.809   3.685  0.00  0.00    +0.122 A 
ATOM     24  C   UNL     1      -4.212  -0.613   3.755  0.00  0.00    +0.046 A 
ATOM     25  C   UNL     1      -4.652  -0.456   5.089  0.00  0.00    +0.041 A 
ATOM     26  C   UNL     1      -4.283  -1.564   5.755  0.00  0.00    +0.195 A 
ATOM     27  O   UNL     1      -3.651  -2.383   4.899  0.00  0.00    -0.466 OA
ENDBRANCH  22  23
ENDBRANCH  20  22
ENDBRANCH  17  18
BRANCH  17  28
ATOM     28  C   UNL     1       0.754  -0.492   1.224  0.00  0.00    +0.015 C 
ATOM     29  C   UNL     1       2.224  -0.077   1.151  0.00  0.00    +0.010 C 
BRANCH  28  31
ATOM     30  C   UNL     1       0.008   1.542  -0.021  0.00  0.00    +0.004 C 
ATOM     31  C   UNL     1       0.020   0.012  -0.021  0.00  0.00    +0.002 C 
ENDBRANCH  28  31
ENDBRANCH  17  28
ENDBRANCH   1  17
TORSDOF 6
