REMARK  Name = ZINC50323056
REMARK  5 active torsions:
REMARK  status: ('A' for Active; 'I' for Inactive)
REMARK    1  A    between atoms: C_1  and  C_2
REMARK    2  A    between atoms: C_2  and  C_3
REMARK    3  A    between atoms: C_3  and  C_4
REMARK    4  A    between atoms: C_5  and  N_21
REMARK    5  A    between atoms: C_6  and  C_10
REMARK                            x       y       z     vdW  Elec       q    Type
REMARK                         _______ _______ _______ _____ _____    ______ ____
ROOT
ATOM      1  C   UNL     1       0.762  -2.018   1.233  0.00  0.00    +0.057 A 
ATOM      2  C   UNL     1       1.666  -2.810   0.598  0.00  0.00    +0.078 A 
ATOM      3  C   UNL     1       1.268  -4.141   0.885  0.00  0.00    +0.168 A 
ATOM      4  N   UNL     1       0.192  -4.069   1.646  0.00  0.00    -0.167 NA
ATOM      5  N   UNL     1      -0.115  -2.841   1.864  0.00  0.00    -0.279 N 
ATOM      6  H   UNL     1      -0.867  -2.544   2.401  0.00  0.00    +0.189 HD
ENDROOT
BRANCH   3   7
ATOM      7  C   UNL     1       1.932  -5.374   0.421  0.00  0.00    +0.272 C 
ATOM      8  O   UNL     1       2.922  -5.303  -0.281  0.00  0.00    -0.268 OA
ATOM      9  N   UNL     1       1.440  -6.578   0.774  0.00  0.00    -0.259 N 
ATOM     10  C   UNL     1       2.065  -7.739   0.337  0.00  0.00    +0.165 A 
ATOM     11  N   UNL     1       3.134  -7.856  -0.412  0.00  0.00    -0.229 NA
ATOM     12  C   UNL     1       3.630  -9.052  -0.759  0.00  0.00    +0.054 A 
ATOM     13  C   UNL     1       2.942 -10.113  -0.279  0.00  0.00    +0.014 A 
ATOM     14  S   UNL     1       1.638  -9.337   0.646  0.00  0.00    -0.057 S 
ATOM     15  C   UNL     1       3.543 -11.417  -0.706  0.00  0.00    +0.045 C 
ATOM     16  C   UNL     1       4.475 -11.051  -1.884  0.00  0.00    +0.011 C 
ATOM     17  C   UNL     1       4.808  -9.576  -1.577  0.00  0.00    +0.056 C 
ATOM     18  H   UNL     1       0.649  -6.634   1.334  0.00  0.00    +0.157 HD
ENDBRANCH   3   7
BRANCH   2  19
ATOM     19  N   UNL     1       2.760  -2.399  -0.178  0.00  0.00    -0.355 N 
ATOM     20  H   UNL     1       2.935  -1.453  -0.306  0.00  0.00    +0.142 HD
ATOM     21  H   UNL     1       3.341  -3.059  -0.586  0.00  0.00    +0.142 HD
ENDBRANCH   2  19
BRANCH   1  22
ATOM     22  C   UNL     1       0.742  -0.511   1.242  0.00  0.00    +0.056 C 
BRANCH  22  24
ATOM     23  C   UNL     1      -0.019   1.526   0.010  0.00  0.00    +0.004 C 
ATOM     24  C   UNL     1       0.002  -0.004   0.002  0.00  0.00    +0.003 C 
ENDBRANCH  22  24
ENDBRANCH   1  22
TORSDOF 4
