REMARK  Name = ZINC38743863
REMARK  2 active torsions:
REMARK  status: ('A' for Active; 'I' for Inactive)
REMARK    1  A    between atoms: C_4  and  C_7
REMARK    2  A    between atoms: C_9  and  C_13
REMARK                            x       y       z     vdW  Elec       q    Type
REMARK                         _______ _______ _______ _____ _____    ______ ____
ROOT
ATOM      1  C   UNL     1       5.763  -2.987  -1.332  0.00  0.00    +0.206 C 
ATOM      2  N   UNL     1       5.054  -4.286  -1.429  0.00  0.00    -0.231 NA
ATOM      3  N   UNL     1       6.082  -5.335  -1.304  0.00  0.00    -0.224 NA
ATOM      4  C   UNL     1       7.162  -4.651  -0.566  0.00  0.00    +0.241 C 
ATOM      5  N   UNL     1       7.203  -3.325  -1.267  0.00  0.00    -0.204 N 
ATOM      6  N   UNL     1       8.467  -2.944  -1.664  0.00  0.00    -0.158 NA
ATOM      7  C   UNL     1       9.477  -3.759  -1.690  0.00  0.00    +0.172 C 
ATOM      8  S   UNL     1       8.810  -5.312  -1.013  0.00  0.00    -0.048 S 
ATOM      9  N   UNL     1      10.772  -3.503  -2.123  0.00  0.00    -0.337 N 
ATOM     10  H   UNL     1       4.562  -4.365  -2.307  0.00  0.00    +0.143 HD
ATOM     11  H   UNL     1       6.401  -5.639  -2.212  0.00  0.00    +0.144 HD
ATOM     12  H   UNL     1      11.007  -2.624  -2.458  0.00  0.00    +0.144 HD
ATOM     13  H   UNL     1      11.441  -4.205  -2.091  0.00  0.00    +0.144 HD
ENDROOT
BRANCH   1  16
ATOM     14  C   UNL     1       3.699  -0.689  -0.037  0.00  0.00    +0.091 C 
ATOM     15  C   UNL     1       3.832  -2.029  -0.051  0.00  0.00    +0.034 C 
ATOM     16  C   UNL     1       5.335  -2.245  -0.065  0.00  0.00    +0.190 C 
ATOM     17  N   UNL     1       5.871  -0.874  -0.056  0.00  0.00    -0.176 NA
ATOM     18  N   UNL     1       4.919  -0.090  -0.047  0.00  0.00    -0.154 NA
BRANCH  14  22
ATOM     19  C   UNL     1      -0.017   1.379   0.010  0.00  0.00    +0.000 A 
ATOM     20  C   UNL     1       1.169   2.092   0.002  0.00  0.00    +0.001 A 
ATOM     21  C   UNL     1       2.377   1.426  -0.013  0.00  0.00    +0.010 A 
ATOM     22  C   UNL     1       2.402   0.033  -0.021  0.00  0.00    +0.002 A 
ATOM     23  C   UNL     1       1.205  -0.680  -0.013  0.00  0.00    +0.010 A 
ATOM     24  C   UNL     1       0.002  -0.004   0.002  0.00  0.00    +0.001 A 
ENDBRANCH  14  22
ENDBRANCH   1  16
TORSDOF 2
