REMARK  Name = ZINC22023115
REMARK  5 active torsions:
REMARK  status: ('A' for Active; 'I' for Inactive)
REMARK    1  A    between atoms: C_1  and  C_2
REMARK    2  A    between atoms: C_5  and  N_8
REMARK    3  A    between atoms: C_12  and  C_13
REMARK    4  A    between atoms: C_14  and  C_25
REMARK    5  A    between atoms: N_16  and  C_19
REMARK                            x       y       z     vdW  Elec       q    Type
REMARK                         _______ _______ _______ _____ _____    ______ ____
ROOT
ATOM      1  N   UNL     1       0.999   2.113   0.012  0.00  0.00    -0.184 N 
ATOM      2  C   UNL     1      -0.058   1.287  -0.111  0.00  0.00    +0.272 C 
ATOM      3  O   UNL     1      -0.021   0.094  -0.349  0.00  0.00    -0.268 OA
ATOM      4  C   UNL     1      -1.266   2.104   0.093  0.00  0.00    +0.102 C 
ATOM      5  C   UNL     1      -2.584   1.681   0.054  0.00  0.00    +0.033 C 
ATOM      6  C   UNL     1      -0.770   3.467   0.351  0.00  0.00    +0.266 C 
ATOM      7  O   UNL     1      -1.446   4.454   0.574  0.00  0.00    -0.268 OA
ATOM      8  N   UNL     1       0.574   3.413   0.287  0.00  0.00    -0.223 N 
ATOM      9  H   UNL     1       1.313   4.217   0.417  0.00  0.00    +0.174 HD
ENDROOT
BRANCH   1  14
ATOM     10  C   UNL     1       6.419   0.529  -0.521  0.00  0.00    +0.044 C 
ATOM     11  C   UNL     1       4.979   0.950  -0.379  0.00  0.00    -0.050 A 
ATOM     12  C   UNL     1       4.670   2.269  -0.104  0.00  0.00    +0.005 A 
ATOM     13  C   UNL     1       3.351   2.658   0.026  0.00  0.00    +0.025 A 
ATOM     14  C   UNL     1       2.335   1.722  -0.120  0.00  0.00    +0.056 A 
ATOM     15  C   UNL     1       2.649   0.397  -0.390  0.00  0.00    +0.025 A 
ATOM     16  C   UNL     1       3.970   0.016  -0.525  0.00  0.00    +0.005 A 
ENDBRANCH   1  14
BRANCH   5  17
ATOM     17  C   UNL     1      -2.882   0.307  -0.077  0.00  0.00    +0.065 A 
ATOM     18  C   UNL     1      -3.650  -0.298  -1.106  0.00  0.00    +0.071 A 
ATOM     19  N   UNL     1      -3.696  -1.579  -0.877  0.00  0.00    -0.168 NA
ATOM     20  N   UNL     1      -2.978  -1.870   0.287  0.00  0.00    -0.196 N 
ATOM     21  C   UNL     1      -2.471  -0.720   0.779  0.00  0.00    +0.281 A 
ATOM     22  O   UNL     1      -1.713  -0.586   1.890  0.00  0.00    -0.265 OA
ATOM     23  C   UNL     1      -4.297   0.417  -2.264  0.00  0.00    +0.068 C 
BRANCH  20  24
ATOM     24  C   UNL     1      -2.807  -3.143   0.846  0.00  0.00    +0.069 A 
ATOM     25  C   UNL     1      -1.612  -3.474   1.471  0.00  0.00    +0.028 A 
ATOM     26  C   UNL     1      -1.449  -4.729   2.026  0.00  0.00    +0.002 A 
ATOM     27  C   UNL     1      -2.470  -5.658   1.950  0.00  0.00    +0.000 A 
ATOM     28  C   UNL     1      -3.659  -5.333   1.324  0.00  0.00    +0.002 A 
ATOM     29  C   UNL     1      -3.830  -4.079   0.772  0.00  0.00    +0.028 A 
ENDBRANCH  20  24
ENDBRANCH   5  17
TORSDOF 3
