REMARK  Name = ZINC60371791
REMARK  9 active torsions:
REMARK  status: ('A' for Active; 'I' for Inactive)
REMARK    1  A    between atoms: C_1  and  C_2
REMARK    2  A    between atoms: C_5  and  C_25
REMARK    3  A    between atoms: C_6  and  N_8
REMARK    4  A    between atoms: C_9  and  C_11
REMARK    5  A    between atoms: C_18  and  O_20
REMARK    6  A    between atoms: O_20  and  C_21
REMARK    7  A    between atoms: C_21  and  C_22
REMARK    8  A    between atoms: C_21  and  C_23
REMARK    9  A    between atoms: C_21  and  C_24
REMARK                            x       y       z     vdW  Elec       q    Type
REMARK                         _______ _______ _______ _____ _____    ______ ____
ROOT
ATOM      1  C   UNL     1       0.280  -2.900   4.854  0.00  0.00    +0.165 C 
ATOM      2  C   UNL     1      -1.078  -3.497   5.236  0.00  0.00    +0.032 C 
ATOM      3  C   UNL     1      -0.972  -4.153   6.614  0.00  0.00    +0.004 C 
ATOM      4  C   UNL     1      -0.598  -3.098   7.657  0.00  0.00    +0.019 C 
ATOM      5  C   UNL     1       0.766  -2.497   7.302  0.00  0.00    +0.112 C 
ATOM      6  N   UNL     1       0.719  -1.992   5.922  0.00  0.00    -0.256 N 
ATOM      7  C   UNL     1       1.068  -0.721   5.643  0.00  0.00    +0.404 C 
ATOM      8  O   UNL     1       1.109  -0.342   4.489  0.00  0.00    -0.226 OA
ENDROOT
BRANCH   1  10
ATOM      9  N   UNL     1       0.716  -2.611   2.436  0.00  0.00    -0.284 N 
ATOM     10  C   UNL     1       0.149  -2.134   3.562  0.00  0.00    +0.238 C 
ATOM     11  O   UNL     1      -0.466  -1.089   3.536  0.00  0.00    -0.273 OA
ATOM     12  H   UNL     1       1.141  -3.483   2.438  0.00  0.00    +0.155 HD
BRANCH   9  18
ATOM     13  C   UNL     1       0.403   1.784   0.253  0.00  0.00    +0.044 C 
ATOM     14  C   UNL     1       0.541   0.285   0.176  0.00  0.00    -0.049 A 
ATOM     15  C   UNL     1       0.645  -0.337  -1.054  0.00  0.00    +0.004 A 
ATOM     16  C   UNL     1       0.772  -1.712  -1.129  0.00  0.00    +0.005 A 
ATOM     17  C   UNL     1       0.796  -2.469   0.026  0.00  0.00    -0.029 A 
ATOM     18  C   UNL     1       0.693  -1.847   1.264  0.00  0.00    +0.037 A 
ATOM     19  C   UNL     1       0.570  -0.465   1.335  0.00  0.00    +0.027 A 
ATOM     20  C   UNL     1       0.935  -3.967  -0.056  0.00  0.00    +0.045 C 
ENDBRANCH   9  18
ENDBRANCH   1  10
BRANCH   7  21
ATOM     21  O   UNL     1       1.371   0.129   6.642  0.00  0.00    -0.445 OA
BRANCH  21  22
ATOM     22  C   UNL     1       1.732   1.462   6.274  0.00  0.00    +0.107 C 
ATOM     23  C   UNL     1       0.573   2.113   5.517  0.00  0.00    +0.055 C 
ATOM     24  C   UNL     1       2.040   2.274   7.533  0.00  0.00    +0.055 C 
ATOM     25  C   UNL     1       2.971   1.424   5.376  0.00  0.00    +0.055 C 
ENDBRANCH  21  22
ENDBRANCH   7  21
TORSDOF 4
