REMARK  Name = ZINC37999197
REMARK  6 active torsions:
REMARK  status: ('A' for Active; 'I' for Inactive)
REMARK    1  A    between atoms: C_1  and  C_2
REMARK    2  A    between atoms: C_2  and  N_3
REMARK    3  A    between atoms: C_4  and  N_22
REMARK    4  A    between atoms: C_5  and  N_12
REMARK    5  A    between atoms: N_12  and  C_13
REMARK    6  A    between atoms: C_13  and  C_14
REMARK                            x       y       z     vdW  Elec       q    Type
REMARK                         _______ _______ _______ _____ _____    ______ ____
ROOT
ATOM      1  N   UNL     1       0.711  -0.489   1.189  0.00  0.00    -0.281 N 
ATOM      2  C   UNL     1       2.071  -0.693   1.138  0.00  0.00    +0.127 A 
ATOM      3  C   UNL     1       2.724  -1.146   2.252  0.00  0.00    +0.131 A 
ATOM      4  C   UNL     1       1.984  -1.392   3.423  0.00  0.00    +0.277 A 
ATOM      5  O   UNL     1       2.544  -1.796   4.429  0.00  0.00    -0.266 OA
ATOM      6  N   UNL     1       0.654  -1.178   3.427  0.00  0.00    -0.273 N 
ATOM      7  H   UNL     1       0.142  -1.347   4.234  0.00  0.00    +0.173 HD
ATOM      8  C   UNL     1       0.029  -0.728   2.324  0.00  0.00    +0.331 A 
ATOM      9  O   UNL     1      -1.172  -0.538   2.352  0.00  0.00    -0.246 OA
ENDROOT
BRANCH   2  10
ATOM     10  N   UNL     1       2.768  -0.445  -0.022  0.00  0.00    -0.343 N 
ATOM     11  H   UNL     1       2.300  -0.124  -0.809  0.00  0.00    +0.144 HD
ATOM     12  H   UNL     1       3.726  -0.590  -0.053  0.00  0.00    +0.144 HD
ENDBRANCH   2  10
BRANCH   1  14
ATOM     13  C   UNL     1      -0.019   1.526   0.010  0.00  0.00    +0.027 C 
ATOM     14  C   UNL     1       0.002  -0.004   0.002  0.00  0.00    +0.125 C 
ENDBRANCH   1  14
BRANCH   3  15
ATOM     15  N   UNL     1       4.120  -1.365   2.227  0.00  0.00    -0.333 N 
ATOM     16  H   UNL     1       4.623  -1.193   1.415  0.00  0.00    +0.147 HD
BRANCH  15  17
ATOM     17  C   UNL     1       4.808  -1.850   3.426  0.00  0.00    +0.138 C 
BRANCH  17  18
ATOM     18  C   UNL     1       6.280  -1.998   3.136  0.00  0.00    -0.014 A 
ATOM     19  C   UNL     1       6.805  -3.243   2.845  0.00  0.00    +0.044 A 
ATOM     20  C   UNL     1       8.156  -3.379   2.579  0.00  0.00    +0.124 A 
ATOM     21  C   UNL     1       8.982  -2.267   2.604  0.00  0.00    +0.039 A 
ATOM     22  C   UNL     1       8.455  -1.023   2.895  0.00  0.00    +0.018 A 
ATOM     23  C   UNL     1       7.103  -0.887   3.155  0.00  0.00    +0.023 A 
ATOM     24 BR   UNL     1       6.382   0.817   3.545  0.00  0.00    -0.050 Br
ATOM     25  F   UNL     1       8.671  -4.595   2.295  0.00  0.00    -0.205 F 
ENDBRANCH  17  18
ENDBRANCH  15  17
ENDBRANCH   3  15
TORSDOF 5
