REMARK  Name = ZINC39600901
REMARK  8 active torsions:
REMARK  status: ('A' for Active; 'I' for Inactive)
REMARK    1  A    between atoms: C_1  and  C_2
REMARK    2  A    between atoms: C_2  and  C_3
REMARK    3  A    between atoms: C_3  and  C_5
REMARK    4  A    between atoms: C_3  and  C_6
REMARK    5  A    between atoms: C_6  and  C_7
REMARK    6  A    between atoms: C_11  and  C_20
REMARK    7  A    between atoms: N_22  and  C_23
REMARK    8  A    between atoms: C_23  and  C_24
REMARK                            x       y       z     vdW  Elec       q    Type
REMARK                         _______ _______ _______ _____ _____    ______ ____
ROOT
ATOM      1  C   UNL     1      -2.985  -2.594   0.242  0.00  0.00    +0.216 C 
ATOM      2  O   UNL     1      -3.929  -1.835   0.301  0.00  0.00    -0.276 OA
ATOM      3  N   UNL     1      -3.175  -3.920   0.393  0.00  0.00    -0.300 N 
ATOM      4  C   UNL     1      -2.154  -4.993   0.360  0.00  0.00    +0.121 C 
ATOM      5  C   UNL     1      -2.586  -5.977   1.470  0.00  0.00    +0.100 C 
ATOM      6  C   UNL     1      -4.096  -5.738   1.641  0.00  0.00    -0.004 C 
ATOM      7  C   UNL     1      -4.452  -4.633   0.636  0.00  0.00    +0.115 C 
ATOM      8  C   UNL     1      -4.872  -7.012   1.325  0.00  0.00    -0.010 C 
ATOM      9  C   UNL     1      -6.365  -6.766   1.558  0.00  0.00    -0.082 C 
ATOM     10  N   UNL     1      -6.586  -6.369   2.954  0.00  0.00    +0.379 N 
ATOM     11  C   UNL     1      -5.911  -5.093   3.224  0.00  0.00    -0.082 C 
ATOM     12  C   UNL     1      -4.399  -5.269   3.061  0.00  0.00    -0.010 C 
ATOM     13  H   UNL     1      -7.575  -6.266   3.120  0.00  0.00    -0.086 HD
ATOM     14  H   UNL     1      -6.216  -7.080   3.566  0.00  0.00    -0.086 HD
ENDROOT
BRANCH   5  15
ATOM     15  C   UNL     1      -2.323  -7.399   1.043  0.00  0.00    +0.218 C 
ATOM     16  O   UNL     1      -2.379  -7.699  -0.130  0.00  0.00    -0.275 OA
ATOM     17  N   UNL     1      -2.025  -8.335   1.966  0.00  0.00    -0.311 N 
ATOM     18  H   UNL     1      -1.981  -8.094   2.904  0.00  0.00    +0.149 HD
BRANCH  17  19
ATOM     19  C   UNL     1      -1.770  -9.717   1.551  0.00  0.00    +0.142 C 
BRANCH  19  20
ATOM     20  C   UNL     1      -1.463 -10.557   2.764  0.00  0.00    +0.006 A 
ATOM     21  C   UNL     1      -0.152 -10.857   3.084  0.00  0.00    +0.023 A 
ATOM     22  C   UNL     1       0.129 -11.628   4.197  0.00  0.00    +0.018 A 
ATOM     23  C   UNL     1      -0.901 -12.100   4.991  0.00  0.00    +0.018 A 
ATOM     24  C   UNL     1      -2.212 -11.800   4.672  0.00  0.00    +0.040 A 
ATOM     25  C   UNL     1      -2.494 -11.024   3.561  0.00  0.00    +0.128 A 
ATOM     26  F   UNL     1      -3.775 -10.726   3.252  0.00  0.00    -0.205 F 
ATOM     27 BR   UNL     1       1.923 -12.038   4.633  0.00  0.00    -0.050 Br
ENDBRANCH  19  20
ENDBRANCH  17  19
ENDBRANCH   5  15
BRANCH   1  28
ATOM     28  C   UNL     1      -1.599  -2.054   0.001  0.00  0.00    +0.099 C 
BRANCH  28  29
ATOM     29  C   UNL     1      -1.661  -0.532  -0.134  0.00  0.00    -0.006 C 
ATOM     30  C   UNL     1      -2.462  -0.162  -1.384  0.00  0.00    +0.008 C 
BRANCH  29  32
ATOM     31  C   UNL     1      -0.295   1.557  -0.264  0.00  0.00    +0.004 C 
ATOM     32  C   UNL     1      -0.242   0.028  -0.255  0.00  0.00    +0.000 C 
ENDBRANCH  29  32
ENDBRANCH  28  29
ENDBRANCH   1  28
TORSDOF 6
