REMARK  Name = ZINC04236713
REMARK  13 active torsions:
REMARK  status: ('A' for Active; 'I' for Inactive)
REMARK    1  A    between atoms: C_1  and  C_2
REMARK    2  A    between atoms: C_5  and  N_8
REMARK    3  A    between atoms: C_9  and  O_11
REMARK    4  A    between atoms: O_11  and  C_12
REMARK    5  A    between atoms: C_16  and  C_41
REMARK    6  A    between atoms: C_19  and  C_20
REMARK    7  A    between atoms: C_19  and  C_21
REMARK    8  A    between atoms: C_21  and  O_22
REMARK    9  A    between atoms: C_25  and  O_40
REMARK   10  A    between atoms: C_27  and  C_29
REMARK   11  A    between atoms: C_29  and  C_30
REMARK   12  A    between atoms: N_32  and  C_33
REMARK   13  A    between atoms: C_33  and  C_34
REMARK                            x       y       z     vdW  Elec       q    Type
REMARK                         _______ _______ _______ _____ _____    ______ ____
ROOT
ATOM      1  C   UNL     1       7.481   0.751   1.094  0.00  0.00    +0.186 C 
ATOM      2  C   UNL     1       6.673  -0.548   1.091  0.00  0.00    +0.046 C 
ATOM      3  C   UNL     1       5.183  -0.223   1.209  0.00  0.00    +0.011 C 
ATOM      4  C   UNL     1       4.755   0.647   0.025  0.00  0.00    -0.023 C 
ATOM      5  C   UNL     1       5.563   1.946   0.028  0.00  0.00    +0.007 C 
ATOM      6  C   UNL     1       7.053   1.621  -0.090  0.00  0.00    +0.031 C 
ATOM      7  C   UNL     1       7.861   2.920  -0.086  0.00  0.00    +0.017 C 
ATOM      8  C   UNL     1       5.135   2.816  -1.156  0.00  0.00    +0.007 C 
ATOM      9  C   UNL     1       3.645   3.141  -1.038  0.00  0.00    +0.032 C 
ATOM     10  C   UNL     1       2.837   1.842  -1.042  0.00  0.00    +0.119 C 
ATOM     11  C   UNL     1       3.265   0.972   0.143  0.00  0.00    +0.032 C 
ATOM     12  C   UNL     1       5.010  -0.109  -1.281  0.00  0.00    +0.012 C 
ENDROOT
BRANCH  10  13
ATOM     13  O   UNL     1       3.076   1.136  -2.261  0.00  0.00    -0.391 OA
ATOM     14  H   UNL     1       2.827   1.629  -3.055  0.00  0.00    +0.210 HD
ENDBRANCH  10  13
BRANCH   1  15
ATOM     15  O   UNL     1       8.895   0.442   0.982  0.00  0.00    -0.446 OA
BRANCH  15  17
ATOM     16  N   UNL     1      10.889  -0.032   2.097  0.00  0.00    -0.251 N 
ATOM     17  C   UNL     1       9.573   0.258   2.131  0.00  0.00    +0.405 C 
ATOM     18  O   UNL     1       8.999   0.352   3.197  0.00  0.00    -0.226 OA
ATOM     19  H   UNL     1      11.363  -0.039   1.251  0.00  0.00    +0.158 HD
BRANCH  16  24
ATOM     20  C   UNL     1      13.657  -1.209   6.907  0.00  0.00    +0.044 C 
ATOM     21  C   UNL     1      12.922  -0.896   5.630  0.00  0.00    -0.050 A 
ATOM     22  C   UNL     1      13.265  -1.547   4.459  0.00  0.00    +0.005 A 
ATOM     23  C   UNL     1      12.593  -1.263   3.286  0.00  0.00    +0.023 A 
ATOM     24  C   UNL     1      11.572  -0.322   3.284  0.00  0.00    +0.036 A 
ATOM     25  C   UNL     1      11.234   0.335   4.460  0.00  0.00    +0.023 A 
ATOM     26  C   UNL     1      11.906   0.042   5.630  0.00  0.00    +0.005 A 
ENDBRANCH  16  24
ENDBRANCH  15  17
ENDBRANCH   1  15
BRANCH   6  27
ATOM     27  C   UNL     1       7.308   0.865  -1.396  0.00  0.00    +0.166 C 
BRANCH  27  28
ATOM     28  O   UNL     1       8.716   0.737  -1.605  0.00  0.00    -0.394 OA
ATOM     29  H   UNL     1       8.952   0.267  -2.416  0.00  0.00    +0.209 HD
ENDBRANCH  27  28
ENDBRANCH   6  27
BRANCH  11  30
ATOM     30  C   UNL     1       2.457  -0.327   0.139  0.00  0.00    +0.102 C 
BRANCH  30  31
ATOM     31  C   UNL     1       1.002  -0.015   0.378  0.00  0.00    +0.214 C 
ATOM     32  O   UNL     1       0.646   1.134   0.536  0.00  0.00    -0.276 OA
ATOM     33  N   UNL     1       0.097  -1.012   0.417  0.00  0.00    -0.311 N 
ATOM     34  H   UNL     1       0.381  -1.931   0.291  0.00  0.00    +0.149 HD
BRANCH  33  35
ATOM     35  C   UNL     1      -1.319  -0.708   0.643  0.00  0.00    +0.139 C 
BRANCH  35  36
ATOM     36  C   UNL     1      -2.115  -1.988   0.634  0.00  0.00    -0.030 A 
ATOM     37  C   UNL     1      -2.650  -2.461  -0.549  0.00  0.00    +0.005 A 
ATOM     38  C   UNL     1      -3.377  -3.636  -0.558  0.00  0.00    +0.000 A 
ATOM     39  C   UNL     1      -3.576  -4.335   0.618  0.00  0.00    +0.000 A 
ATOM     40  C   UNL     1      -3.045  -3.859   1.803  0.00  0.00    +0.000 A 
ATOM     41  C   UNL     1      -2.315  -2.686   1.811  0.00  0.00    +0.005 A 
ENDBRANCH  35  36
ENDBRANCH  33  35
ENDBRANCH  30  31
ENDBRANCH  11  30
TORSDOF 10
