REMARK  Name = ZINC39631226
REMARK  15 active torsions:
REMARK  status: ('A' for Active; 'I' for Inactive)
REMARK    1  A    between atoms: C_1  and  C_2
REMARK    2  A    between atoms: C_2  and  C_4
REMARK    3  A    between atoms: C_2  and  N_11
REMARK    4  A    between atoms: C_4  and  C_5
REMARK    5  A    between atoms: C_5  and  C_6
REMARK    6  A    between atoms: C_6  and  C_7
REMARK    7  A    between atoms: C_7  and  C_8
REMARK    8  A    between atoms: C_7  and  C_9
REMARK    9  A    between atoms: C_7  and  O_10
REMARK   10  A    between atoms: C_12  and  C_14
REMARK   11  A    between atoms: C_25  and  C_27
REMARK   12  A    between atoms: C_29  and  O_35
REMARK   13  A    between atoms: C_31  and  O_33
REMARK   14  A    between atoms: O_33  and  C_34
REMARK   15  A    between atoms: O_35  and  C_36
REMARK                            x       y       z     vdW  Elec       q    Type
REMARK                         _______ _______ _______ _____ _____    ______ ____
ROOT
ATOM      1  C   UNL     1      -2.982  -1.546  -1.334  0.00  0.00    +0.100 C 
ATOM      2  C   UNL     1      -3.288  -2.938  -0.738  0.00  0.00    +0.121 C 
ATOM      3  N   UNL     1      -4.376  -3.478  -1.586  0.00  0.00    -0.296 N 
ATOM      4  C   UNL     1      -4.016  -3.056  -2.961  0.00  0.00    +0.115 C 
ATOM      5  C   UNL     1      -3.460  -1.628  -2.794  0.00  0.00    -0.004 C 
ATOM      6  C   UNL     1      -2.290  -1.402  -3.747  0.00  0.00    -0.010 C 
ATOM      7  C   UNL     1      -2.801  -1.430  -5.190  0.00  0.00    -0.082 C 
ATOM      8  N   UNL     1      -3.816  -0.385  -5.372  0.00  0.00    +0.379 N 
ATOM      9  C   UNL     1      -4.978  -0.661  -4.519  0.00  0.00    -0.082 C 
ATOM     10  C   UNL     1      -4.559  -0.601  -3.048  0.00  0.00    -0.010 C 
ATOM     11  C   UNL     1      -5.451  -4.192  -1.196  0.00  0.00    +0.247 C 
ATOM     12  O   UNL     1      -5.668  -4.366  -0.013  0.00  0.00    -0.270 OA
ATOM     13  H   UNL     1      -3.423   0.511  -5.123  0.00  0.00    -0.086 HD
ATOM     14  H   UNL     1      -4.106  -0.365  -6.338  0.00  0.00    -0.086 HD
ENDROOT
BRANCH  11  15
ATOM     15  C   UNL     1      -6.366  -4.763  -2.208  0.00  0.00    +0.044 A 
ATOM     16  C   UNL     1      -5.923  -4.969  -3.515  0.00  0.00    +0.059 A 
ATOM     17  C   UNL     1      -6.784  -5.505  -4.459  0.00  0.00    +0.124 A 
ATOM     18  C   UNL     1      -8.084  -5.835  -4.107  0.00  0.00    +0.091 A 
ATOM     19  C   UNL     1      -8.529  -5.631  -2.809  0.00  0.00    +0.124 A 
ATOM     20  C   UNL     1      -7.673  -5.101  -1.857  0.00  0.00    +0.059 A 
BRANCH  19  21
ATOM     21  O   UNL     1      -9.804  -5.956  -2.469  0.00  0.00    -0.495 OA
ATOM     22  C   UNL     1     -10.630  -6.503  -3.499  0.00  0.00    +0.277 C 
ENDBRANCH  19  21
BRANCH  17  23
ATOM     23  O   UNL     1      -6.353  -5.706  -5.732  0.00  0.00    -0.495 OA
ATOM     24  C   UNL     1      -7.293  -6.262  -6.654  0.00  0.00    +0.277 C 
ENDBRANCH  17  23
ENDBRANCH  11  15
BRANCH   1  26
ATOM     25  N   UNL     1      -1.059   0.003  -1.188  0.00  0.00    -0.312 N 
ATOM     26  C   UNL     1      -1.502  -1.266  -1.282  0.00  0.00    +0.218 C 
ATOM     27  O   UNL     1      -0.710  -2.184  -1.325  0.00  0.00    -0.275 OA
ATOM     28  H   UNL     1      -1.693   0.737  -1.154  0.00  0.00    +0.149 HD
BRANCH  25  30
ATOM     29  C   UNL     1       0.937   0.341  -2.561  0.00  0.00    +0.028 C 
ATOM     30  C   UNL     1       0.380   0.275  -1.137  0.00  0.00    +0.070 C 
BRANCH  30  31
ATOM     31  C   UNL     1       0.621   1.611  -0.432  0.00  0.00    +0.022 C 
BRANCH  31  32
ATOM     32  C   UNL     1       0.178   1.505   1.028  0.00  0.00    +0.005 C 
BRANCH  32  33
ATOM     33  C   UNL     1       0.420   2.841   1.733  0.00  0.00    +0.034 C 
BRANCH  33  34
ATOM     34  C   UNL     1      -0.024   2.735   3.193  0.00  0.00    +0.061 C 
ATOM     35  C   UNL     1       0.101   4.104   3.865  0.00  0.00    +0.041 C 
ATOM     36  C   UNL     1      -1.480   2.270   3.251  0.00  0.00    +0.041 C 
BRANCH  34  37
ATOM     37  O   UNL     1       0.805   1.792   3.876  0.00  0.00    -0.389 OA
ATOM     38  H   UNL     1       1.744   2.024   3.879  0.00  0.00    +0.210 HD
ENDBRANCH  34  37
ENDBRANCH  33  34
ENDBRANCH  32  33
ENDBRANCH  31  32
ENDBRANCH  30  31
ENDBRANCH  25  30
ENDBRANCH   1  26
TORSDOF 10
