REMARK  Name = ZINC12500011
REMARK  10 active torsions:
REMARK  status: ('A' for Active; 'I' for Inactive)
REMARK    1  A    between atoms: C_1  and  C_2
REMARK    2  A    between atoms: C_2  and  C_24
REMARK    3  A    between atoms: C_4  and  N_11
REMARK    4  A    between atoms: C_7  and  C_9
REMARK    5  A    between atoms: C_7  and  C_10
REMARK    6  A    between atoms: N_14  and  C_15
REMARK    7  A    between atoms: C_18  and  N_21
REMARK    8  A    between atoms: C_24  and  N_25
REMARK    9  A    between atoms: N_28  and  C_29
REMARK   10  A    between atoms: C_32  and  N_35
REMARK                            x       y       z     vdW  Elec       q    Type
REMARK                         _______ _______ _______ _____ _____    ______ ____
ROOT
ATOM      1  C   UNL     1      -0.000   1.913  -0.252  0.00  0.00    +0.013 C 
ATOM      2  C   UNL     1       0.265   0.408  -0.171  0.00  0.00    -0.014 C 
ATOM      3  C   UNL     1      -1.031  -0.380  -0.286  0.00  0.00    +0.030 C 
ATOM      4  C   UNL     1      -1.853  -0.383   0.991  0.00  0.00    +0.076 C 
ATOM      5  C   UNL     1      -1.034  -0.827   2.189  0.00  0.00    +0.028 C 
ATOM      6  C   UNL     1       0.270  -0.064   2.356  0.00  0.00    -0.033 C 
ATOM      7  C   UNL     1       1.063   0.056   1.069  0.00  0.00    +0.014 C 
ATOM      8  C   UNL     1       1.140  -0.856   3.364  0.00  0.00    +0.011 C 
ATOM      9  C   UNL     1       0.018   1.313   2.979  0.00  0.00    +0.011 C 
ENDROOT
BRANCH   4  10
ATOM     10  N   UNL     1      -2.519   0.894   1.222  0.00  0.00    -0.296 N 
ATOM     11  C   UNL     1      -3.640   0.944   1.968  0.00  0.00    +0.304 C 
ATOM     12  O   UNL     1      -4.097  -0.075   2.448  0.00  0.00    -0.253 OA
ATOM     13  N   UNL     1      -4.255   2.124   2.182  0.00  0.00    -0.269 N 
ATOM     14  H   UNL     1      -2.155   1.707   0.839  0.00  0.00    +0.151 HD
ATOM     15  H   UNL     1      -3.855   2.945   1.856  0.00  0.00    +0.156 HD
BRANCH  13  16
ATOM     16  C   UNL     1      -5.471   2.164   2.874  0.00  0.00    +0.035 A 
ATOM     17  C   UNL     1      -6.449   3.081   2.510  0.00  0.00    +0.025 A 
ATOM     18  C   UNL     1      -7.647   3.118   3.195  0.00  0.00    +0.034 A 
ATOM     19  C   UNL     1      -7.875   2.243   4.242  0.00  0.00    +0.126 A 
ATOM     20  C   UNL     1      -6.903   1.329   4.606  0.00  0.00    +0.034 A 
ATOM     21  C   UNL     1      -5.704   1.283   3.922  0.00  0.00    +0.025 A 
BRANCH  19  22
ATOM     22  N   UNL     1      -9.161   2.285   4.973  0.00  0.00    +0.056 N 
ATOM     23  O   UNL     1     -10.011   3.083   4.656  0.00  0.00    -0.126 OA
ATOM     24  O   UNL     1      -9.361   1.521   5.888  0.00  0.00    -0.126 OA
ENDBRANCH  19  22
ENDBRANCH  13  16
ENDBRANCH   4  10
BRANCH   2  25
ATOM     25  C   UNL     1       1.133   0.041  -1.400  0.00  0.00    +0.112 C 
BRANCH  25  26
ATOM     26  N   UNL     1       0.409   0.377  -2.628  0.00  0.00    -0.299 N 
ATOM     27  C   UNL     1       0.974   0.144  -3.829  0.00  0.00    +0.304 C 
ATOM     28  O   UNL     1       2.085  -0.345  -3.893  0.00  0.00    -0.253 OA
ATOM     29  N   UNL     1       0.307   0.453  -4.959  0.00  0.00    -0.269 N 
ATOM     30  H   UNL     1      -0.478   0.767  -2.577  0.00  0.00    +0.150 HD
ATOM     31  H   UNL     1      -0.546   0.911  -4.909  0.00  0.00    +0.156 HD
BRANCH  29  32
ATOM     32  C   UNL     1       0.847   0.113  -6.205  0.00  0.00    +0.035 A 
ATOM     33  C   UNL     1       0.634   0.936  -7.303  0.00  0.00    +0.025 A 
ATOM     34  C   UNL     1       1.168   0.598  -8.531  0.00  0.00    +0.034 A 
ATOM     35  C   UNL     1       1.914  -0.558  -8.668  0.00  0.00    +0.126 A 
ATOM     36  C   UNL     1       2.127  -1.380  -7.576  0.00  0.00    +0.034 A 
ATOM     37  C   UNL     1       1.601  -1.045  -6.344  0.00  0.00    +0.025 A 
BRANCH  35  38
ATOM     38  N   UNL     1       2.485  -0.917  -9.985  0.00  0.00    +0.056 N 
ATOM     39  O   UNL     1       2.299  -0.200 -10.941  0.00  0.00    -0.126 OA
ATOM     40  O   UNL     1       3.137  -1.928 -10.106  0.00  0.00    -0.126 OA
ENDBRANCH  35  38
ENDBRANCH  29  32
ENDBRANCH  25  26
ENDBRANCH   2  25
TORSDOF 7
