REMARK  Name = ZINC08923444
REMARK  8 active torsions:
REMARK  status: ('A' for Active; 'I' for Inactive)
REMARK    1  A    between atoms: C_1  and  C_2
REMARK    2  A    between atoms: C_2  and  C_3
REMARK    3  A    between atoms: C_2  and  N_58
REMARK    4  A    between atoms: C_11  and  O_30
REMARK    5  A    between atoms: C_13  and  C_16
REMARK    6  A    between atoms: C_20  and  O_22
REMARK    7  A    between atoms: O_22  and  C_23
REMARK    8  A    between atoms: C_23  and  C_24
REMARK                            x       y       z     vdW  Elec       q    Type
REMARK                         _______ _______ _______ _____ _____    ______ ____
ROOT
ATOM      1  C   UNL     1       1.710  -4.533  -0.329  0.00  0.00    -0.073 C 
ATOM      2  C   UNL     1       2.002  -3.163  -0.948  0.00  0.00    +0.018 C 
ATOM      3  C   UNL     1       0.949  -2.180  -0.449  0.00  0.00    -0.027 A 
ATOM      4  C   UNL     1      -0.205  -2.642   0.090  0.00  0.00    -0.021 A 
ATOM      5  S   UNL     1      -1.118  -1.187   0.526  0.00  0.00    -0.080 S 
ATOM      6  C   UNL     1       0.002  -0.004   0.002  0.00  0.00    +0.080 A 
ATOM      7  C   UNL     1       1.084  -0.737  -0.503  0.00  0.00    +0.067 A 
ATOM      8  C   UNL     1       2.241   0.032  -1.029  0.00  0.00    +0.220 C 
ATOM      9  N   UNL     1       2.267   1.317  -0.809  0.00  0.00    -0.223 NA
ATOM     10  C   UNL     1       1.296   2.042   0.001  0.00  0.00    +0.224 C 
ATOM     11  N   UNL     1      -0.017   1.370   0.010  0.00  0.00    -0.313 N 
ATOM     12  C   UNL     1      -0.594  -4.076   0.265  0.00  0.00    -0.035 C 
ATOM     13  H   UNL     1      -0.848   1.870   0.016  0.00  0.00    +0.149 HD
ATOM     14  N   UNL     1       0.301  -4.897  -0.586  0.00  0.00    +0.384 N 
ATOM     15  H   UNL     1       0.084  -4.715  -1.573  0.00  0.00    -0.081 HD
ENDROOT
BRANCH  10  16
ATOM     16  C   UNL     1       1.808   2.139   1.415  0.00  0.00    -0.002 A 
ATOM     17  C   UNL     1       0.917   2.241   2.467  0.00  0.00    +0.007 A 
ATOM     18  C   UNL     1       1.384   2.325   3.765  0.00  0.00    +0.004 A 
ATOM     19  C   UNL     1       2.743   2.317   4.014  0.00  0.00    +0.045 A 
ATOM     20  C   UNL     1       3.639   2.220   2.960  0.00  0.00    +0.121 A 
ATOM     21  C   UNL     1       3.168   2.130   1.658  0.00  0.00    +0.053 A 
BRANCH  20  22
ATOM     22  O   UNL     1       4.976   2.211   3.202  0.00  0.00    -0.487 OA
BRANCH  22  23
ATOM     23  C   UNL     1       5.389   2.306   4.566  0.00  0.00    +0.264 C 
BRANCH  23  24
ATOM     24  C   UNL     1       6.894   2.281   4.639  0.00  0.00    -0.010 A 
ATOM     25  C   UNL     1       7.560   1.077   4.768  0.00  0.00    +0.007 A 
ATOM     26  C   UNL     1       8.941   1.054   4.830  0.00  0.00    +0.000 A 
ATOM     27  C   UNL     1       9.655   2.236   4.772  0.00  0.00    +0.000 A 
ATOM     28  C   UNL     1       8.989   3.441   4.648  0.00  0.00    +0.000 A 
ATOM     29  C   UNL     1       7.609   3.464   4.581  0.00  0.00    +0.007 A 
ENDBRANCH  23  24
ENDBRANCH  22  23
ENDBRANCH  20  22
ENDBRANCH  10  16
BRANCH  14  31
ATOM     30  C   UNL     1       0.388  -6.639   1.164  0.00  0.00    -0.014 C 
ATOM     31  C   UNL     1       0.090  -6.333  -0.305  0.00  0.00    -0.074 C 
ATOM     32  C   UNL     1      -1.364  -6.693  -0.617  0.00  0.00    -0.014 C 
ENDBRANCH  14  31
BRANCH   8  33
ATOM     33  O   UNL     1       3.234  -0.580  -1.713  0.00  0.00    -0.492 OA
ATOM     34  H   UNL     1       3.936   0.017  -2.008  0.00  0.00    +0.294 HD
ENDBRANCH   8  33
TORSDOF 6
