REMARK  Name = ZINC40098791
REMARK  8 active torsions:
REMARK  status: ('A' for Active; 'I' for Inactive)
REMARK    1  A    between atoms: C_1  and  C_2
REMARK    2  A    between atoms: C_3  and  C_8
REMARK    3  A    between atoms: C_5  and  C_7
REMARK    4  A    between atoms: C_8  and  C_10
REMARK    5  A    between atoms: N_14  and  C_25
REMARK    6  A    between atoms: C_15  and  C_17
REMARK    7  A    between atoms: C_25  and  C_26
REMARK    8  A    between atoms: C_26  and  O_27
REMARK                            x       y       z     vdW  Elec       q    Type
REMARK                         _______ _______ _______ _____ _____    ______ ____
ROOT
ATOM      1  C   UNL     1      -0.318  -1.265  -3.229  0.00  0.00    +0.077 C 
ATOM      2  C   UNL     1       0.163  -0.713  -4.366  0.00  0.00    +0.249 C 
ATOM      3  C   UNL     1       0.606  -1.787  -5.278  0.00  0.00    +0.288 C 
ATOM      4  O   UNL     1       1.086  -1.612  -6.380  0.00  0.00    -0.266 OA
ATOM      5  N   UNL     1       0.400  -2.988  -4.707  0.00  0.00    -0.281 N 
ATOM      6  C   UNL     1      -0.188  -2.763  -3.381  0.00  0.00    +0.145 C 
ATOM      7  O   UNL     1       0.228   0.613  -4.627  0.00  0.00    -0.282 OA
ENDROOT
BRANCH   6   8
ATOM      8  C   UNL     1       0.716  -3.316  -2.310  0.00  0.00    -0.021 A 
ATOM      9  C   UNL     1       0.338  -4.440  -1.599  0.00  0.00    +0.007 A 
ATOM     10  C   UNL     1       1.165  -4.948  -0.616  0.00  0.00    +0.022 A 
ATOM     11  C   UNL     1       2.374  -4.333  -0.343  0.00  0.00    +0.059 A 
ATOM     12  C   UNL     1       2.753  -3.207  -1.055  0.00  0.00    +0.060 A 
ATOM     13  C   UNL     1       1.925  -2.703  -2.042  0.00  0.00    +0.027 A 
ATOM     14 CL   UNL     1       4.269  -2.433  -0.712  0.00  0.00    -0.082 Cl
ATOM     15 CL   UNL     1       3.414  -4.970   0.892  0.00  0.00    -0.082 Cl
ENDBRANCH   6   8
BRANCH   1  16
ATOM     16  C   UNL     1      -0.857  -0.547  -2.067  0.00  0.00    +0.203 C 
ATOM     17  O   UNL     1      -0.777   0.667  -2.011  0.00  0.00    -0.286 OA
BRANCH  16  20
ATOM     18  C   UNL     1      -1.815   0.597   0.681  0.00  0.00    +0.067 C 
ATOM     19  C   UNL     1      -1.938  -0.845   0.263  0.00  0.00    +0.057 A 
ATOM     20  C   UNL     1      -1.492  -1.292  -0.975  0.00  0.00    +0.082 A 
ATOM     21  S   UNL     1      -1.907  -3.025  -0.865  0.00  0.00    -0.069 S 
ATOM     22  C   UNL     1      -2.578  -3.006   0.679  0.00  0.00    +0.076 A 
ATOM     23  N   UNL     1      -2.468  -1.750   1.048  0.00  0.00    -0.249 NA
ATOM     24  C   UNL     1      -3.162  -4.157   1.456  0.00  0.00    +0.073 C 
ENDBRANCH  16  20
ENDBRANCH   1  16
BRANCH   5  25
ATOM     25  C   UNL     1       0.711  -4.290  -5.302  0.00  0.00    +0.137 C 
BRANCH  25  26
ATOM     26  C   UNL     1       2.190  -4.613  -5.078  0.00  0.00    +0.175 C 
BRANCH  26  27
ATOM     27  O   UNL     1       2.428  -4.812  -3.683  0.00  0.00    -0.393 OA
ATOM     28  H   UNL     1       3.347  -5.021  -3.467  0.00  0.00    +0.209 HD
ENDBRANCH  26  27
ENDBRANCH  25  26
ENDBRANCH   5  25
TORSDOF 6
