REMARK  Name = ZINC09128040
REMARK  8 active torsions:
REMARK  status: ('A' for Active; 'I' for Inactive)
REMARK    1  A    between atoms: C_1  and  C_2
REMARK    2  A    between atoms: C_5  and  C_34
REMARK    3  A    between atoms: C_6  and  C_8
REMARK    4  A    between atoms: C_15  and  O_18
REMARK    5  A    between atoms: O_18  and  C_19
REMARK    6  A    between atoms: C_19  and  C_20
REMARK    7  A    between atoms: N_22  and  C_23
REMARK    8  A    between atoms: C_24  and  C_31
REMARK                            x       y       z     vdW  Elec       q    Type
REMARK                         _______ _______ _______ _____ _____    ______ ____
ROOT
ATOM      1  O   UNL     1       3.884   4.147  -0.652  0.00  0.00    -0.466 OA
ENDROOT
BRANCH   1   9
ATOM      2  C   UNL     1       0.078   5.582  -0.242  0.00  0.00    +0.101 A 
ATOM      3  C   UNL     1       0.220   4.182  -0.405  0.00  0.00    +0.015 A 
ATOM      4  C   UNL     1      -0.873   3.310  -0.429  0.00  0.00    +0.011 A 
ATOM      5  C   UNL     1      -0.659   1.973  -0.596  0.00  0.00    +0.001 A 
ATOM      6  C   UNL     1       0.630   1.463  -0.732  0.00  0.00    +0.001 A 
ATOM      7  C   UNL     1       1.717   2.287  -0.713  0.00  0.00    +0.014 A 
ATOM      8  C   UNL     1       1.532   3.664  -0.549  0.00  0.00    +0.047 A 
ATOM      9  C   UNL     1       2.607   4.580  -0.520  0.00  0.00    +0.243 A 
ATOM     10  N   UNL     1       2.348   5.865  -0.362  0.00  0.00    -0.110 NA
ATOM     11  N   UNL     1       1.164   6.336  -0.232  0.00  0.00    -0.145 NA
BRANCH   2  17
ATOM     12  C   UNL     1      -4.615   6.159  -1.842  0.00  0.00    +0.044 C 
ATOM     13  C   UNL     1      -3.521   6.471  -0.853  0.00  0.00    -0.050 A 
ATOM     14  C   UNL     1      -3.770   7.330   0.203  0.00  0.00    +0.003 A 
ATOM     15  C   UNL     1      -2.771   7.622   1.114  0.00  0.00    +0.004 A 
ATOM     16  C   UNL     1      -1.519   7.058   0.975  0.00  0.00    -0.041 A 
ATOM     17  C   UNL     1      -1.263   6.191  -0.087  0.00  0.00    +0.006 A 
ATOM     18  C   UNL     1      -2.272   5.905  -1.006  0.00  0.00    +0.013 A 
ATOM     19  C   UNL     1      -0.433   7.377   1.969  0.00  0.00    +0.044 C 
ENDBRANCH   2  17
ENDBRANCH   1   9
BRANCH   1  20
ATOM     20  C   UNL     1       4.913   5.138  -0.612  0.00  0.00    +0.326 C 
BRANCH  20  21
ATOM     21  C   UNL     1       6.256   4.474  -0.774  0.00  0.00    +0.255 C 
ATOM     22  O   UNL     1       6.325   3.271  -0.910  0.00  0.00    -0.272 OA
ATOM     23  N   UNL     1       7.380   5.217  -0.767  0.00  0.00    -0.277 N 
ATOM     24  H   UNL     1       7.325   6.179  -0.658  0.00  0.00    +0.155 HD
BRANCH  23  25
ATOM     25  C   UNL     1       8.616   4.606  -0.916  0.00  0.00    +0.084 A 
ATOM     26  C   UNL     1       9.869   5.195  -0.941  0.00  0.00    +0.068 A 
ATOM     27  C   UNL     1      11.026   4.316  -1.108  0.00  0.00    -0.023 A 
ATOM     28  C   UNL     1      10.737   3.008  -1.232  0.00  0.00    -0.004 A 
ATOM     29  S   UNL     1       8.966   2.924  -1.124  0.00  0.00    -0.077 S 
ATOM     30  C   UNL     1      11.976   2.171  -1.403  0.00  0.00    +0.043 C 
ATOM     31  C   UNL     1      13.131   3.085  -0.938  0.00  0.00    +0.010 C 
ATOM     32  C   UNL     1      12.543   4.487  -1.192  0.00  0.00    +0.037 C 
BRANCH  26  33
ATOM     33  C   UNL     1      10.030   6.645  -0.799  0.00  0.00    +0.244 C 
ATOM     34  O   UNL     1      10.169   7.137   0.305  0.00  0.00    -0.270 OA
ATOM     35  N   UNL     1      10.024   7.433  -1.893  0.00  0.00    -0.325 N 
ATOM     36  H   UNL     1       9.913   7.041  -2.773  0.00  0.00    +0.145 HD
ATOM     37  H   UNL     1      10.131   8.393  -1.799  0.00  0.00    +0.145 HD
ENDBRANCH  26  33
ENDBRANCH  23  25
ENDBRANCH  20  21
ENDBRANCH   1  20
TORSDOF 6
