REMARK  Name = ZINC48116656
REMARK  13 active torsions:
REMARK  status: ('A' for Active; 'I' for Inactive)
REMARK    1  A    between atoms: C_1  and  C_2
REMARK    2  A    between atoms: C_2  and  N_3
REMARK    3  A    between atoms: C_4  and  C_6
REMARK    4  A    between atoms: C_9  and  N_13
REMARK    5  A    between atoms: C_10  and  C_12
REMARK    6  A    between atoms: N_16  and  C_17
REMARK    7  A    between atoms: C_17  and  C_18
REMARK    8  A    between atoms: C_18  and  C_20
REMARK    9  A    between atoms: C_18  and  N_21
REMARK   10  A    between atoms: N_21  and  C_22
REMARK   11  A    between atoms: N_21  and  C_24
REMARK   12  A    between atoms: C_22  and  C_23
REMARK   13  A    between atoms: C_24  and  C_25
REMARK                            x       y       z     vdW  Elec       q    Type
REMARK                         _______ _______ _______ _____ _____    ______ ____
ROOT
ATOM      1  N   UNL     1      -7.026  -4.333   0.896  0.00  0.00    -0.269 N 
ATOM      2  C   UNL     1      -7.985  -3.404   0.715  0.00  0.00    +0.304 C 
ATOM      3  O   UNL     1      -7.681  -2.269   0.400  0.00  0.00    -0.253 OA
ATOM      4  N   UNL     1      -9.282  -3.732   0.882  0.00  0.00    -0.301 N 
ATOM      5  H   UNL     1      -7.271  -5.253   1.080  0.00  0.00    +0.156 HD
ATOM      6  H   UNL     1      -9.525  -4.637   1.133  0.00  0.00    +0.150 HD
ENDROOT
BRANCH   1  10
ATOM      7  C   UNL     1      -3.010  -3.252   0.671  0.00  0.00    +0.037 A 
ATOM      8  C   UNL     1      -3.955  -2.609  -0.134  0.00  0.00    +0.015 A 
ATOM      9  C   UNL     1      -5.281  -2.968  -0.057  0.00  0.00    +0.024 A 
ATOM     10  C   UNL     1      -5.682  -3.971   0.821  0.00  0.00    +0.038 A 
ATOM     11  C   UNL     1      -4.744  -4.613   1.624  0.00  0.00    -0.028 A 
ATOM     12  C   UNL     1      -3.415  -4.262   1.547  0.00  0.00    +0.018 A 
ATOM     13  C   UNL     1      -5.183  -5.697   2.574  0.00  0.00    +0.045 C 
BRANCH   7  15
ATOM     14  N   UNL     1      -1.198  -1.895  -0.256  0.00  0.00    -0.312 N 
ATOM     15  C   UNL     1      -1.587  -2.869   0.590  0.00  0.00    +0.244 C 
ATOM     16  O   UNL     1      -0.765  -3.433   1.287  0.00  0.00    -0.270 OA
ATOM     17  H   UNL     1      -1.853  -1.445  -0.812  0.00  0.00    +0.149 HD
BRANCH  14  19
ATOM     18  C   UNL     1       0.385  -0.394  -1.363  0.00  0.00    +0.024 C 
ATOM     19  C   UNL     1       0.215  -1.515  -0.336  0.00  0.00    +0.101 C 
ENDBRANCH  14  19
ENDBRANCH   7  15
ENDBRANCH   1  10
BRANCH   4  20
ATOM     20  C   UNL     1     -10.324  -2.722   0.684  0.00  0.00    +0.090 C 
BRANCH  20  21
ATOM     21  C   UNL     1     -11.700  -3.389   0.747  0.00  0.00    -0.054 C 
ATOM     22  C   UNL     1     -12.785  -2.314   0.836  0.00  0.00    -0.012 C 
BRANCH  21  23
ATOM     23  N   UNL     1     -11.908  -4.197  -0.462  0.00  0.00    +0.382 N 
ATOM     24  H   UNL     1     -12.855  -4.544  -0.476  0.00  0.00    -0.081 HD
BRANCH  23  25
ATOM     25  C   UNL     1     -11.674  -3.367  -1.652  0.00  0.00    -0.082 C 
ATOM     26  C   UNL     1     -12.011  -4.171  -2.909  0.00  0.00    -0.017 C 
ENDBRANCH  23  25
BRANCH  23  27
ATOM     27  C   UNL     1     -10.972  -5.329  -0.463  0.00  0.00    -0.082 C 
ATOM     28  C   UNL     1     -11.248  -6.219   0.750  0.00  0.00    -0.017 C 
ENDBRANCH  23  27
ENDBRANCH  21  23
ENDBRANCH  20  21
ENDBRANCH   4  20
TORSDOF 8
