REMARK  Name = ZINC39677083
REMARK  9 active torsions:
REMARK  status: ('A' for Active; 'I' for Inactive)
REMARK    1  A    between atoms: C_1  and  C_2
REMARK    2  A    between atoms: C_5  and  C_33
REMARK    3  A    between atoms: C_6  and  C_8
REMARK    4  A    between atoms: C_8  and  C_9
REMARK    5  A    between atoms: C_9  and  N_10
REMARK    6  A    between atoms: C_11  and  C_13
REMARK    7  A    between atoms: C_24  and  C_26
REMARK    8  A    between atoms: C_27  and  C_32
REMARK    9  A    between atoms: C_30  and  C_31
REMARK                            x       y       z     vdW  Elec       q    Type
REMARK                         _______ _______ _______ _____ _____    ______ ____
ROOT
ATOM      1  C   UNL     1       2.701  -5.104   5.948  0.00  0.00    +0.100 C 
ATOM      2  C   UNL     1       1.844  -6.385   5.833  0.00  0.00    +0.121 C 
ATOM      3  N   UNL     1       2.811  -7.453   5.485  0.00  0.00    -0.296 N 
ATOM      4  C   UNL     1       4.011  -7.143   6.299  0.00  0.00    +0.115 C 
ATOM      5  C   UNL     1       4.121  -5.606   6.257  0.00  0.00    -0.004 C 
ATOM      6  C   UNL     1       4.587  -5.073   7.609  0.00  0.00    -0.010 C 
ATOM      7  C   UNL     1       6.024  -5.536   7.867  0.00  0.00    -0.082 C 
ATOM      8  N   UNL     1       6.899  -5.045   6.797  0.00  0.00    +0.379 N 
ATOM      9  C   UNL     1       6.501  -5.636   5.513  0.00  0.00    -0.082 C 
ATOM     10  C   UNL     1       5.085  -5.176   5.155  0.00  0.00    -0.010 C 
ATOM     11  C   UNL     1       2.639  -8.474   4.623  0.00  0.00    +0.252 C 
ATOM     12  O   UNL     1       3.535  -9.276   4.443  0.00  0.00    -0.270 OA
ATOM     13  H   UNL     1       6.827  -4.040   6.740  0.00  0.00    -0.086 HD
ATOM     14  H   UNL     1       7.854  -5.299   7.001  0.00  0.00    -0.086 HD
ENDROOT
BRANCH  11  15
ATOM     15  C   UNL     1       1.364  -8.620   3.898  0.00  0.00    +0.101 A 
ATOM     16  C   UNL     1       1.032  -8.046   2.593  0.00  0.00    +0.093 A 
ATOM     17  N   UNL     1      -0.185  -8.410   2.313  0.00  0.00    -0.083 NA
ATOM     18  O   UNL     1      -0.677  -9.202   3.375  0.00  0.00    -0.359 OA
ATOM     19  C   UNL     1       0.268  -9.321   4.311  0.00  0.00    +0.147 A 
ATOM     20  C   UNL     1       0.144 -10.090   5.601  0.00  0.00    +0.090 C 
ATOM     21  C   UNL     1       1.930  -7.192   1.736  0.00  0.00    +0.070 C 
ENDBRANCH  11  15
BRANCH   1  23
ATOM     22  N   UNL     1       2.908  -3.015   4.641  0.00  0.00    -0.315 N 
ATOM     23  C   UNL     1       2.684  -4.344   4.647  0.00  0.00    +0.218 C 
ATOM     24  O   UNL     1       2.470  -4.928   3.606  0.00  0.00    -0.275 OA
ATOM     25  H   UNL     1       3.080  -2.548   5.473  0.00  0.00    +0.149 HD
BRANCH  22  26
ATOM     26  C   UNL     1       2.892  -2.276   3.376  0.00  0.00    +0.109 C 
BRANCH  26  27
ATOM     27  C   UNL     1       3.172  -0.796   3.647  0.00  0.00    +0.054 C 
BRANCH  27  33
ATOM     28  C   UNL     1       5.612   1.166  -0.258  0.00  0.00    +0.044 C 
ATOM     29  C   UNL     1       4.323   0.904   0.478  0.00  0.00    -0.050 A 
ATOM     30  C   UNL     1       3.126   1.361  -0.040  0.00  0.00    +0.003 A 
ATOM     31  C   UNL     1       1.944   1.120   0.634  0.00  0.00    +0.004 A 
ATOM     32  C   UNL     1       1.959   0.422   1.828  0.00  0.00    -0.047 A 
ATOM     33  C   UNL     1       3.156  -0.035   2.346  0.00  0.00    -0.043 A 
ATOM     34  C   UNL     1       4.337   0.201   1.668  0.00  0.00    +0.007 A 
ATOM     35  C   UNL     1       0.670   0.161   2.564  0.00  0.00    +0.044 C 
ENDBRANCH  27  33
ENDBRANCH  26  27
ENDBRANCH  22  26
ENDBRANCH   1  23
TORSDOF 5
