REMARK  Name = ZINC58045157
REMARK  13 active torsions:
REMARK  status: ('A' for Active; 'I' for Inactive)
REMARK    1  A    between atoms: C_1  and  C_2
REMARK    2  A    between atoms: C_2  and  C_3
REMARK    3  A    between atoms: C_3  and  C_27
REMARK    4  A    between atoms: N_6  and  N_10
REMARK    5  A    between atoms: C_11  and  C_13
REMARK    6  A    between atoms: C_13  and  N_14
REMARK    7  A    between atoms: N_14  and  C_15
REMARK    8  A    between atoms: N_14  and  C_16
REMARK    9  A    between atoms: C_16  and  C_17
REMARK   10  A    between atoms: C_20  and  C_23
REMARK   11  A    between atoms: C_23  and  C_24
REMARK   12  A    between atoms: C_23  and  C_25
REMARK   13  A    between atoms: C_23  and  C_26
REMARK                            x       y       z     vdW  Elec       q    Type
REMARK                         _______ _______ _______ _____ _____    ______ ____
ROOT
ATOM      1  N   UNL     1      -2.365  -3.480   1.957  0.00  0.00    -0.225 N 
ATOM      2  C   UNL     1      -1.666  -3.875   3.039  0.00  0.00    +0.213 C 
ATOM      3  O   UNL     1      -0.826  -3.144   3.518  0.00  0.00    -0.276 OA
ATOM      4  H   UNL     1      -3.037  -4.065   1.574  0.00  0.00    +0.173 HD
ENDROOT
BRANCH   1   8
ATOM      5  C   UNL     1      -1.433  -0.534   0.013  0.00  0.00    +0.111 C 
ATOM      6  C   UNL     1      -1.447  -2.033   0.236  0.00  0.00    +0.263 C 
ATOM      7  O   UNL     1      -0.952  -2.883  -0.472  0.00  0.00    -0.271 OA
ATOM      8  N   UNL     1      -2.123  -2.224   1.386  0.00  0.00    -0.137 N 
ATOM      9  C   UNL     1      -2.534  -1.066   1.915  0.00  0.00    +0.326 C 
ATOM     10  O   UNL     1      -3.163  -0.982   2.952  0.00  0.00    -0.251 OA
ATOM     11  N   UNL     1      -2.172  -0.004   1.172  0.00  0.00    -0.284 N 
ATOM     12  C   UNL     1      -2.148  -0.174  -1.291  0.00  0.00    +0.041 C 
ATOM     13  H   UNL     1      -2.361   0.928   1.363  0.00  0.00    +0.151 HD
BRANCH   5  15
ATOM     14  C   UNL     1      -0.019   1.526   0.010  0.00  0.00    +0.006 C 
ATOM     15  C   UNL     1       0.002  -0.004   0.002  0.00  0.00    +0.032 C 
ENDBRANCH   5  15
ENDBRANCH   1   8
BRANCH   2  16
ATOM     16  C   UNL     1      -1.927  -5.227   3.653  0.00  0.00    +0.020 C 
BRANCH  16  17
ATOM     17  N   UNL     1      -1.043  -5.418   4.810  0.00  0.00    +0.386 N 
ATOM     18  C   UNL     1      -1.386  -4.443   5.855  0.00  0.00    -0.095 C 
ATOM     19  H   UNL     1      -0.084  -5.283   4.527  0.00  0.00    -0.081 HD
BRANCH  17  20
ATOM     20  C   UNL     1      -1.212  -6.779   5.336  0.00  0.00    -0.043 C 
BRANCH  20  21
ATOM     21  C   UNL     1      -0.218  -7.016   6.444  0.00  0.00    -0.064 A 
ATOM     22  C   UNL     1       1.033  -7.527   6.154  0.00  0.00    +0.002 A 
ATOM     23  C   UNL     1       1.944  -7.744   7.170  0.00  0.00    +0.004 A 
ATOM     24  C   UNL     1       1.604  -7.451   8.478  0.00  0.00    -0.042 A 
ATOM     25  C   UNL     1       0.353  -6.940   8.768  0.00  0.00    +0.004 A 
ATOM     26  C   UNL     1      -0.557  -6.718   7.751  0.00  0.00    +0.002 A 
BRANCH  24  27
ATOM     27  C   UNL     1       2.597  -7.689   9.586  0.00  0.00    -0.013 C 
ATOM     28  C   UNL     1       3.853  -6.853   9.334  0.00  0.00    +0.015 C 
ATOM     29  C   UNL     1       1.974  -7.285  10.924  0.00  0.00    +0.015 C 
ATOM     30  C   UNL     1       2.971  -9.172   9.625  0.00  0.00    +0.015 C 
ENDBRANCH  24  27
ENDBRANCH  20  21
ENDBRANCH  17  20
ENDBRANCH  16  17
ENDBRANCH   2  16
TORSDOF 7
