REMARK  Name = ZINC20828691
REMARK  6 active torsions:
REMARK  status: ('A' for Active; 'I' for Inactive)
REMARK    1  A    between atoms: C_1  and  C_2
REMARK    2  A    between atoms: C_5  and  N_9
REMARK    3  A    between atoms: N_9  and  C_10
REMARK    4  A    between atoms: C_10  and  C_12
REMARK    5  A    between atoms: C_10  and  C_13
REMARK    6  A    between atoms: C_17  and  N_19
REMARK                            x       y       z     vdW  Elec       q    Type
REMARK                         _______ _______ _______ _____ _____    ______ ____
ROOT
ATOM      1  C   UNL     1       2.420   4.232   0.001  0.00  0.00    +0.098 C 
ATOM      2  C   UNL     1       2.936   4.377   1.434  0.00  0.00    +0.033 C 
ENDROOT
BRANCH   1   3
ATOM      3  C   UNL     1       2.189   5.598  -0.590  0.00  0.00    -0.026 A 
ATOM      4  C   UNL     1       1.037   6.299  -0.282  0.00  0.00    +0.005 A 
ATOM      5  C   UNL     1       0.822   7.553  -0.823  0.00  0.00    +0.002 A 
ATOM      6  C   UNL     1       1.758   8.110  -1.673  0.00  0.00    +0.028 A 
ATOM      7  C   UNL     1       2.915   7.409  -1.984  0.00  0.00    +0.069 A 
ATOM      8  C   UNL     1       3.131   6.153  -1.435  0.00  0.00    +0.033 A 
BRANCH   7   9
ATOM      9  N   UNL     1       3.867   7.972  -2.847  0.00  0.00    -0.200 N 
ATOM     10  C   UNL     1       3.857   9.212  -3.382  0.00  0.00    +0.250 A 
ATOM     11  N   UNL     1       4.927   9.324  -4.124  0.00  0.00    -0.116 NA
ATOM     12  N   UNL     1       5.614   8.239  -4.094  0.00  0.00    -0.023 NA
ATOM     13  N   UNL     1       5.039   7.369  -3.335  0.00  0.00    -0.039 NA
ENDBRANCH   7   9
ENDBRANCH   1   3
BRANCH   1  14
ATOM     14  N   UNL     1       1.161   3.484   0.009  0.00  0.00    -0.337 N 
ATOM     15  H   UNL     1       0.201   4.022   0.021  0.00  0.00    +0.147 HD
BRANCH  14  20
ATOM     16  C   UNL     1       1.224  -2.188  -0.022  0.00  0.00    +0.047 C 
ATOM     17  C   UNL     1       1.208  -0.681  -0.014  0.00  0.00    -0.015 A 
ATOM     18  C   UNL     1       0.002  -0.004   0.002  0.00  0.00    +0.008 A 
ATOM     19  C   UNL     1      -0.017   1.377   0.010  0.00  0.00    +0.023 A 
ATOM     20  C   UNL     1       1.177   2.087   0.002  0.00  0.00    +0.030 A 
ATOM     21  C   UNL     1       2.387   1.406  -0.014  0.00  0.00    +0.061 A 
ATOM     22  C   UNL     1       2.400   0.023  -0.022  0.00  0.00    +0.128 A 
ATOM     23  F   UNL     1       3.576  -0.641  -0.037  0.00  0.00    -0.205 F 
ENDBRANCH  14  20
ENDBRANCH   1  14
TORSDOF 4
