REMARK  Name = ZINC11971938
REMARK  11 active torsions:
REMARK  status: ('A' for Active; 'I' for Inactive)
REMARK    1  A    between atoms: C_1  and  C_2
REMARK    2  A    between atoms: C_5  and  C_7
REMARK    3  A    between atoms: C_7  and  N_63
REMARK    4  A    between atoms: C_10  and  C_13
REMARK    5  A    between atoms: C_13  and  C_31
REMARK    6  A    between atoms: N_16  and  C_20
REMARK    7  A    between atoms: C_20  and  C_21
REMARK    8  A    between atoms: C_25  and  O_29
REMARK    9  A    between atoms: C_26  and  O_27
REMARK   10  A    between atoms: O_27  and  C_28
REMARK   11  A    between atoms: O_29  and  C_30
REMARK                            x       y       z     vdW  Elec       q    Type
REMARK                         _______ _______ _______ _____ _____    ______ ____
ROOT
ATOM      1  C   UNL     1       6.098   1.292   5.068  0.00  0.00    +0.112 C 
ATOM      2  C   UNL     1       5.688   2.505   5.880  0.00  0.00    +0.247 C 
ATOM      3  O   UNL     1       4.563   2.921   6.056  0.00  0.00    -0.273 OA
ATOM      4  N   UNL     1       6.833   3.024   6.364  0.00  0.00    -0.220 N 
ATOM      5  C   UNL     1       7.899   2.315   5.974  0.00  0.00    +0.310 C 
ATOM      6  O   UNL     1       9.042   2.589   6.285  0.00  0.00    -0.252 OA
ATOM      7  N   UNL     1       7.565   1.267   5.201  0.00  0.00    -0.285 N 
ATOM      8  C   UNL     1       5.479   0.020   5.650  0.00  0.00    +0.042 C 
ATOM      9  H   UNL     1       8.171   0.620   4.808  0.00  0.00    +0.151 HD
ENDROOT
BRANCH   1  12
ATOM     10  C   UNL     1       3.784   1.861   2.044  0.00  0.00    -0.078 C 
ATOM     11  C   UNL     1       4.192   1.750   3.514  0.00  0.00    -0.013 C 
ATOM     12  C   UNL     1       5.694   1.464   3.602  0.00  0.00    +0.018 C 
ATOM     13  C   UNL     1       6.006   0.178   2.831  0.00  0.00    -0.013 C 
ATOM     14  C   UNL     1       5.545   0.334   1.380  0.00  0.00    -0.078 C 
ATOM     15  N   UNL     1       4.088   0.584   1.364  0.00  0.00    +0.384 N 
ATOM     16  H   UNL     1       3.614  -0.179   1.861  0.00  0.00    -0.081 HD
BRANCH  15  17
ATOM     17  C   UNL     1       3.599   0.625  -0.030  0.00  0.00    -0.003 C 
BRANCH  17  22
ATOM     18  C   UNL     1      -1.208  -0.902   0.009  0.00  0.00    +0.086 C 
ATOM     19  C   UNL     1       0.002  -0.004   0.002  0.00  0.00    +0.102 A 
ATOM     20  C   UNL     1      -0.016   1.341   0.009  0.00  0.00    +0.044 A 
ATOM     21  C   UNL     1       1.331   1.769  -0.001  0.00  0.00    +0.043 A 
ATOM     22  C   UNL     1       2.092   0.660  -0.014  0.00  0.00    +0.089 A 
ATOM     23  O   UNL     1       1.282  -0.411  -0.012  0.00  0.00    -0.467 OA
ENDBRANCH  17  22
ENDBRANCH  15  17
ENDBRANCH   1  12
BRANCH   4  24
ATOM     24  C   UNL     1       6.903   4.217   7.211  0.00  0.00    +0.157 C 
BRANCH  24  25
ATOM     25  C   UNL     1       6.806   3.812   8.659  0.00  0.00    +0.016 A 
ATOM     26  C   UNL     1       5.604   3.928   9.331  0.00  0.00    +0.009 A 
ATOM     27  C   UNL     1       5.512   3.556  10.659  0.00  0.00    +0.004 A 
ATOM     28  C   UNL     1       6.623   3.066  11.322  0.00  0.00    +0.049 A 
ATOM     29  C   UNL     1       7.831   2.947  10.654  0.00  0.00    +0.162 A 
ATOM     30  C   UNL     1       7.922   3.317   9.315  0.00  0.00    +0.166 A 
BRANCH  30  31
ATOM     31  O   UNL     1       9.104   3.197   8.654  0.00  0.00    -0.491 OA
ATOM     32  C   UNL     1       9.985   4.321   8.691  0.00  0.00    +0.277 C 
ENDBRANCH  30  31
BRANCH  29  33
ATOM     33  O   UNL     1       8.924   2.466  11.304  0.00  0.00    -0.491 OA
ATOM     34  C   UNL     1       8.755   2.100  12.675  0.00  0.00    +0.277 C 
ENDBRANCH  29  33
ENDBRANCH  24  25
ENDBRANCH   4  24
TORSDOF 7
