REMARK  Name = ZINC62800364
REMARK  4 active torsions:
REMARK  status: ('A' for Active; 'I' for Inactive)
REMARK    1  A    between atoms: C_5  and  O_7
REMARK    2  A    between atoms: O_7  and  C_8
REMARK    3  A    between atoms: C_8  and  C_9
REMARK    4  A    between atoms: N_17  and  O_18
REMARK                            x       y       z     vdW  Elec       q    Type
REMARK                         _______ _______ _______ _____ _____    ______ ____
ROOT
ATOM      1  C   UNL     1      -0.017   1.378   0.010  0.00  0.00    +0.004 A 
ATOM      2  C   UNL     1       1.165   2.088   0.002  0.00  0.00    +0.010 A 
ATOM      3  C   UNL     1       2.393   1.412  -0.013  0.00  0.00    +0.006 A 
ATOM      4  C   UNL     1       2.408   0.021  -0.021  0.00  0.00    +0.004 A 
ATOM      5  C   UNL     1       1.212  -0.683  -0.013  0.00  0.00    +0.125 A 
ATOM      6  C   UNL     1       0.002  -0.004   0.002  0.00  0.00    +0.046 A 
ATOM      7  C   UNL     1       3.834  -0.472  -0.036  0.00  0.00    +0.046 C 
ATOM      8  C   UNL     1       4.725   0.778  -0.038  0.00  0.00    +0.064 C 
ATOM      9  C   UNL     1       3.770   1.947  -0.023  0.00  0.00    +0.088 C 
ATOM     10  N   UNL     1       4.100   3.197  -0.019  0.00  0.00    -0.092 NA
ENDROOT
BRANCH  10  11
ATOM     11  O   UNL     1       5.466   3.569  -0.030  0.00  0.00    -0.409 OA
ATOM     12  H   UNL     1       5.614   4.525  -0.026  0.00  0.00    +0.328 HD
ENDBRANCH  10  11
BRANCH   5  13
ATOM     13  O   UNL     1       1.226  -2.042  -0.021  0.00  0.00    -0.487 OA
BRANCH  13  14
ATOM     14  C   UNL     1      -0.041  -2.704  -0.013  0.00  0.00    +0.265 C 
BRANCH  14  15
ATOM     15  C   UNL     1       0.172  -4.196  -0.024  0.00  0.00    -0.003 A 
ATOM     16  C   UNL     1       0.265  -4.883  -1.220  0.00  0.00    +0.014 A 
ATOM     17  C   UNL     1       0.456  -6.224  -1.194  0.00  0.00    +0.045 A 
ATOM     18  S   UNL     1       0.511  -6.556   0.560  0.00  0.00    -0.105 S 
ATOM     19  C   UNL     1       0.280  -4.883   1.139  0.00  0.00    +0.052 A 
ENDBRANCH  14  15
ENDBRANCH  13  14
ENDBRANCH   5  13
TORSDOF 4
