REMARK  Name = ZINC20757430
REMARK  6 active torsions:
REMARK  status: ('A' for Active; 'I' for Inactive)
REMARK    1  A    between atoms: C_1  and  C_2
REMARK    2  A    between atoms: C_2  and  O_3
REMARK    3  A    between atoms: O_3  and  C_4
REMARK    4  A    between atoms: C_9  and  N_10
REMARK    5  A    between atoms: C_13  and  C_20
REMARK    6  A    between atoms: N_34  and  C_35
REMARK                            x       y       z     vdW  Elec       q    Type
REMARK                         _______ _______ _______ _____ _____    ______ ____
ROOT
ATOM      1  N   UNL     1       1.953  -1.466  -3.425  0.00  0.00    -0.225 N 
ATOM      2  C   UNL     1       3.229  -1.048  -3.314  0.00  0.00    +0.267 A 
ATOM      3  O   UNL     1       3.917  -1.418  -2.377  0.00  0.00    -0.267 OA
ATOM      4  C   UNL     1       3.763  -0.182  -4.284  0.00  0.00    +0.074 A 
ATOM      5  C   UNL     1       2.973   0.217  -5.322  0.00  0.00    +0.260 A 
ATOM      6  N   UNL     1       1.679  -0.233  -5.397  0.00  0.00    -0.274 N 
ATOM      7  H   UNL     1       1.114   0.048  -6.134  0.00  0.00    +0.173 HD
ATOM      8  C   UNL     1       1.192  -1.065  -4.460  0.00  0.00    +0.337 A 
ATOM      9  O   UNL     1       0.044  -1.458  -4.546  0.00  0.00    -0.246 OA
ATOM     10  O   UNL     1       3.461   1.048  -6.267  0.00  0.00    -0.267 OA
ENDROOT
BRANCH   4  11
ATOM     11  C   UNL     1       5.187   0.299  -4.179  0.00  0.00    +0.021 C 
ATOM     12  C   UNL     1       5.344   1.153  -2.944  0.00  0.00    +0.011 A 
ATOM     13  C   UNL     1       6.410   1.058  -2.115  0.00  0.00    -0.022 A 
ATOM     14  C   UNL     1       6.213   2.017  -1.053  0.00  0.00    +0.003 A 
ATOM     15  C   UNL     1       6.970   2.362   0.071  0.00  0.00    +0.010 A 
ATOM     16  C   UNL     1       6.462   3.344   0.885  0.00  0.00    +0.001 A 
ATOM     17  C   UNL     1       5.257   3.973   0.617  0.00  0.00    +0.002 A 
ATOM     18  C   UNL     1       4.487   3.652  -0.487  0.00  0.00    +0.026 A 
ATOM     19  C   UNL     1       4.977   2.658  -1.332  0.00  0.00    +0.047 A 
ATOM     20  N   UNL     1       4.484   2.110  -2.481  0.00  0.00    -0.359 N 
ATOM     21  H   UNL     1       3.649   2.362  -2.906  0.00  0.00    +0.166 HD
ATOM     22  C   UNL     1       7.550   0.098  -2.343  0.00  0.00    +0.019 C 
ATOM     23  C   UNL     1       7.461  -0.403  -3.791  0.00  0.00    -0.073 C 
ATOM     24  N   UNL     1       6.092  -0.857  -4.074  0.00  0.00    +0.387 N 
ATOM     25  C   UNL     1       6.074  -1.605  -5.338  0.00  0.00    -0.095 C 
ATOM     26  H   UNL     1       5.780  -1.459  -3.327  0.00  0.00    -0.081 HD
ENDBRANCH   4  11
BRANCH   1  32
ATOM     27  C   UNL     1       0.777  -1.811  -1.336  0.00  0.00    +0.144 A 
ATOM     28  C   UNL     1       0.244  -2.669  -0.388  0.00  0.00    +0.048 A 
ATOM     29  C   UNL     1       0.352  -4.037  -0.554  0.00  0.00    +0.004 A 
ATOM     30  C   UNL     1       0.993  -4.553  -1.666  0.00  0.00    +0.002 A 
ATOM     31  C   UNL     1       1.527  -3.704  -2.616  0.00  0.00    +0.030 A 
ATOM     32  C   UNL     1       1.416  -2.330  -2.459  0.00  0.00    +0.096 A 
BRANCH  27  33
ATOM     33  O   UNL     1       0.671  -0.465  -1.174  0.00  0.00    -0.490 OA
BRANCH  33  35
ATOM     34  C   UNL     1      -0.019   1.526   0.010  0.00  0.00    +0.048 C 
ATOM     35  C   UNL     1       0.002  -0.004   0.002  0.00  0.00    +0.226 C 
ENDBRANCH  33  35
ENDBRANCH  27  33
ENDBRANCH   1  32
TORSDOF 4
