REMARK  Name = ZINC07046965
REMARK  5 active torsions:
REMARK  status: ('A' for Active; 'I' for Inactive)
REMARK    1  A    between atoms: C_1  and  C_2
REMARK    2  A    between atoms: C_5  and  N_9
REMARK    3  A    between atoms: C_6  and  C_8
REMARK    4  A    between atoms: C_13  and  C_15
REMARK    5  A    between atoms: C_15  and  N_16
REMARK                            x       y       z     vdW  Elec       q    Type
REMARK                         _______ _______ _______ _____ _____    ______ ____
ROOT
ATOM      1  N   UNL     1      -5.782   0.008   3.211  0.00  0.00    -0.269 N 
ATOM      2  C   UNL     1      -4.558   0.514   2.962  0.00  0.00    +0.310 C 
ATOM      3  O   UNL     1      -3.828   0.820   3.884  0.00  0.00    -0.252 OA
ATOM      4  N   UNL     1      -4.144   0.681   1.690  0.00  0.00    -0.239 N 
ATOM      5  C   UNL     1      -2.920   1.188   1.441  0.00  0.00    +0.238 C 
ATOM      6  O   UNL     1      -2.192   1.493   2.361  0.00  0.00    -0.274 OA
ATOM      7  H   UNL     1      -6.396  -0.160   2.478  0.00  0.00    +0.156 HD
ATOM      8  H   UNL     1      -4.726   0.437   0.954  0.00  0.00    +0.159 HD
ENDROOT
BRANCH   1  13
ATOM      9  C   UNL     1      -7.345  -1.141   8.542  0.00  0.00    +0.044 C 
ATOM     10  C   UNL     1      -6.930  -0.836   7.125  0.00  0.00    -0.050 A 
ATOM     11  C   UNL     1      -5.589  -0.818   6.788  0.00  0.00    +0.005 A 
ATOM     12  C   UNL     1      -5.205  -0.538   5.492  0.00  0.00    +0.024 A 
ATOM     13  C   UNL     1      -6.168  -0.276   4.525  0.00  0.00    +0.038 A 
ATOM     14  C   UNL     1      -7.513  -0.290   4.868  0.00  0.00    -0.029 A 
ATOM     15  C   UNL     1      -7.891  -0.575   6.166  0.00  0.00    +0.008 A 
ATOM     16  C   UNL     1      -8.560   0.001   3.824  0.00  0.00    +0.045 C 
ENDBRANCH   1  13
BRANCH   5  17
ATOM     17  C   UNL     1      -2.457   1.375   0.019  0.00  0.00    +0.212 C 
BRANCH  17  18
ATOM     18  N   UNL     1      -1.103   1.936   0.016  0.00  0.00    -0.233 N 
ATOM     19  C   UNL     1      -0.002   1.173   0.018  0.00  0.00    +0.223 C 
ATOM     20  O   UNL     1       0.013  -0.039   0.022  0.00  0.00    -0.275 OA
ATOM     21  C   UNL     1       1.221   2.066   0.007  0.00  0.00    +0.112 C 
ATOM     22  C   UNL     1       0.626   3.485   0.006  0.00  0.00    +0.056 C 
ATOM     23  C   UNL     1      -0.865   3.255   0.016  0.00  0.00    +0.229 C 
ATOM     24  O   UNL     1      -1.711   4.123   0.018  0.00  0.00    -0.275 OA
ATOM     25  C   UNL     1       1.047   4.232  -1.254  0.00  0.00    +0.016 C 
ATOM     26  C   UNL     1       0.430   5.633  -1.250  0.00  0.00    +0.001 C 
ATOM     27  C   UNL     1       0.898   6.391  -0.006  0.00  0.00    +0.000 C 
ATOM     28  C   UNL     1       0.446   5.642   1.249  0.00  0.00    +0.001 C 
ATOM     29  C   UNL     1       1.062   4.241   1.255  0.00  0.00    +0.016 C 
ENDBRANCH  17  18
ENDBRANCH   5  17
TORSDOF 3
