REMARK  Name = ZINC04770758
REMARK  8 active torsions:
REMARK  status: ('A' for Active; 'I' for Inactive)
REMARK    1  A    between atoms: C_6  and  O_7
REMARK    2  A    between atoms: O_7  and  C_8
REMARK    3  A    between atoms: C_8  and  C_9
REMARK    4  A    between atoms: C_9  and  C_11
REMARK    5  A    between atoms: C_9  and  O_26
REMARK    6  A    between atoms: C_11  and  N_62
REMARK    7  A    between atoms: N_14  and  S_17
REMARK    8  A    between atoms: S_17  and  N_20
REMARK                            x       y       z     vdW  Elec       q    Type
REMARK                         _______ _______ _______ _____ _____    ______ ____
ROOT
ATOM      1  C   UNL     1       0.926  -0.650   1.168  0.00  0.00    -0.061 C 
ATOM      2  C   UNL     1      -0.055  -0.242   0.064  0.00  0.00    +0.092 C 
ATOM      3  N   UNL     1      -0.179   1.224   0.067  0.00  0.00    -0.170 NA
ATOM      4  C   UNL     1       1.053   2.027   0.032  0.00  0.00    +0.092 C 
ATOM      5  C   UNL     1       1.990   1.529   1.137  0.00  0.00    -0.061 C 
ATOM      6  N   UNL     1       2.199   0.075   0.964  0.00  0.00    +0.383 N 
ATOM      7  H   UNL     1       2.534  -0.102   0.009  0.00  0.00    -0.082 HD
ENDROOT
BRANCH   3   8
ATOM      8  S   UNL     1      -1.666   1.951   0.104  0.00  0.00    +0.099 S 
ATOM      9  O   UNL     1      -1.498   3.248  -0.451  0.00  0.00    -0.141 OA
ATOM     10  O   UNL     1      -2.591   1.010  -0.425  0.00  0.00    -0.141 OA
BRANCH   8  11
ATOM     11  N   UNL     1      -2.068   2.165   1.696  0.00  0.00    -0.166 NA
ATOM     12  C   UNL     1      -2.809   1.128   2.427  0.00  0.00    +0.110 C 
ATOM     13  C   UNL     1      -2.029   0.777   3.703  0.00  0.00    +0.017 C 
ATOM     14  C   UNL     1      -1.776   2.054   4.507  0.00  0.00    +0.003 C 
ATOM     15  C   UNL     1      -0.931   3.023   3.677  0.00  0.00    +0.017 C 
ATOM     16  C   UNL     1      -1.694   3.397   2.403  0.00  0.00    +0.110 C 
ENDBRANCH   8  11
ENDBRANCH   3   8
BRANCH   6  17
ATOM     17  C   UNL     1       3.214  -0.407   1.924  0.00  0.00    -0.044 C 
BRANCH  17  18
ATOM     18  C   UNL     1       2.925   0.132   3.326  0.00  0.00    +0.135 C 
BRANCH  18  19
ATOM     19  O   UNL     1       1.705  -0.433   3.812  0.00  0.00    -0.390 OA
ATOM     20  H   UNL     1       1.715  -1.398   3.873  0.00  0.00    +0.210 HD
ENDBRANCH  18  19
BRANCH  18  21
ATOM     21  C   UNL     1       4.071  -0.248   4.265  0.00  0.00    +0.258 C 
BRANCH  21  22
ATOM     22  O   UNL     1       3.859   0.352   5.544  0.00  0.00    -0.489 OA
BRANCH  22  28
ATOM     23  C   UNL     1       5.893  -0.685   6.216  0.00  0.00    +0.046 A 
ATOM     24  C   UNL     1       6.840  -0.925   7.191  0.00  0.00    +0.007 A 
ATOM     25  C   UNL     1       6.697  -0.375   8.454  0.00  0.00    -0.044 A 
ATOM     26  C   UNL     1       5.602   0.420   8.741  0.00  0.00    -0.041 A 
ATOM     27  C   UNL     1       4.654   0.668   7.764  0.00  0.00    +0.049 A 
ATOM     28  C   UNL     1       4.794   0.112   6.501  0.00  0.00    +0.121 A 
ATOM     29  C   UNL     1       5.678   0.897  10.176  0.00  0.00    +0.036 C 
ATOM     30  C   UNL     1       7.145   0.672  10.599  0.00  0.00    +0.009 C 
ATOM     31  C   UNL     1       7.582  -0.486   9.677  0.00  0.00    +0.036 C 
ENDBRANCH  22  28
ENDBRANCH  21  22
ENDBRANCH  18  21
ENDBRANCH  17  18
ENDBRANCH   6  17
TORSDOF 8
