REMARK  Name = ZINC21976078
REMARK  5 active torsions:
REMARK  status: ('A' for Active; 'I' for Inactive)
REMARK    1  A    between atoms: C_1  and  C_2
REMARK    2  A    between atoms: C_2  and  C_4
REMARK    3  A    between atoms: C_2  and  S_16
REMARK    4  A    between atoms: S_16  and  C_17
REMARK    5  A    between atoms: N_25  and  C_28
REMARK                            x       y       z     vdW  Elec       q    Type
REMARK                         _______ _______ _______ _____ _____    ______ ____
ROOT
ATOM      1  C   UNL     1       3.587  -0.734  -0.105  0.00  0.00    +0.172 A 
ATOM      2  N   UNL     1       2.785  -1.827   0.049  0.00  0.00    -0.301 N 
ATOM      3  H   UNL     1       3.173  -2.831  -0.181  0.00  0.00    +0.171 HD
ATOM      4  C   UNL     1       1.514  -1.685   0.485  0.00  0.00    +0.263 A 
ATOM      5  O   UNL     1       0.789  -2.655   0.627  0.00  0.00    -0.267 OA
ATOM      6  C   UNL     1       1.045  -0.379   0.773  0.00  0.00    +0.103 A 
ATOM      7  C   UNL     1      -0.181   0.146   1.233  0.00  0.00    +0.150 A 
ATOM      8  N   UNL     1      -0.065   1.441   1.327  0.00  0.00    -0.172 NA
ATOM      9  N   UNL     1       1.224   1.827   0.938  0.00  0.00    -0.214 N 
ATOM     10  C   UNL     1       1.919   0.706   0.594  0.00  0.00    +0.171 A 
ATOM     11  N   UNL     1       3.165   0.483   0.157  0.00  0.00    -0.204 NA
ENDROOT
BRANCH   9  12
ATOM     12  C   UNL     1       1.714   3.138   0.909  0.00  0.00    +0.068 A 
ATOM     13  C   UNL     1       3.015   3.404   1.317  0.00  0.00    +0.028 A 
ATOM     14  C   UNL     1       3.497   4.697   1.283  0.00  0.00    +0.002 A 
ATOM     15  C   UNL     1       2.683   5.729   0.852  0.00  0.00    +0.000 A 
ATOM     16  C   UNL     1       1.386   5.469   0.449  0.00  0.00    +0.002 A 
ATOM     17  C   UNL     1       0.900   4.176   0.477  0.00  0.00    +0.028 A 
ENDBRANCH   9  12
BRANCH   1  18
ATOM     18  S   UNL     1       5.239  -0.960  -0.676  0.00  0.00    -0.075 S 
BRANCH  18  20
ATOM     19  C   UNL     1       4.971   1.434  -1.966  0.00  0.00    +0.029 C 
ATOM     20  C   UNL     1       5.756   0.768  -0.834  0.00  0.00    +0.137 C 
BRANCH  20  21
ATOM     21  C   UNL     1       7.230   0.824  -1.143  0.00  0.00    +0.233 C 
ATOM     22  O   UNL     1       7.789  -0.145  -1.611  0.00  0.00    -0.274 OA
ATOM     23  N   UNL     1       7.926   1.952  -0.898  0.00  0.00    -0.270 N 
ATOM     24  C   UNL     1       7.279   3.107  -0.262  0.00  0.00    +0.114 C 
ATOM     25  C   UNL     1       7.702   4.365  -1.023  0.00  0.00    +0.024 C 
ATOM     26  C   UNL     1       9.215   4.541  -0.890  0.00  0.00    +0.038 C 
ATOM     27  C   UNL     1       9.929   3.269  -1.264  0.00  0.00    -0.026 A 
ATOM     28  C   UNL     1       9.279   2.045  -1.253  0.00  0.00    +0.039 A 
ATOM     29  C   UNL     1       9.969   0.888  -1.599  0.00  0.00    +0.024 A 
ATOM     30  C   UNL     1      11.302   0.959  -1.954  0.00  0.00    +0.002 A 
ATOM     31  C   UNL     1      11.948   2.181  -1.966  0.00  0.00    +0.000 A 
ATOM     32  C   UNL     1      11.264   3.331  -1.623  0.00  0.00    +0.005 A 
ENDBRANCH  20  21
ENDBRANCH  18  20
ENDBRANCH   1  18
TORSDOF 4
