REMARK  Name = ZINC38670395
REMARK  10 active torsions:
REMARK  status: ('A' for Active; 'I' for Inactive)
REMARK    1  A    between atoms: C_1  and  C_2
REMARK    2  A    between atoms: C_2  and  C_3
REMARK    3  A    between atoms: C_2  and  C_4
REMARK    4  A    between atoms: C_2  and  C_5
REMARK    5  A    between atoms: C_8  and  C_11
REMARK    6  A    between atoms: N_13  and  C_14
REMARK    7  A    between atoms: C_14  and  C_15
REMARK    8  A    between atoms: C_15  and  C_17
REMARK    9  A    between atoms: C_15  and  N_28
REMARK   10  A    between atoms: N_26  and  C_27
REMARK                            x       y       z     vdW  Elec       q    Type
REMARK                         _______ _______ _______ _____ _____    ______ ____
ROOT
ATOM      1  C   UNL     1       6.027  -1.601  -5.960  0.00  0.00    -0.020 C 
ENDROOT
BRANCH   1   2
ATOM      2  C   UNL     1       6.654  -1.812  -7.314  0.00  0.00    -0.059 A 
ATOM      3  C   UNL     1       6.357  -0.949  -8.353  0.00  0.00    +0.004 A 
ATOM      4  C   UNL     1       6.930  -1.143  -9.594  0.00  0.00    +0.023 A 
ATOM      5  C   UNL     1       7.804  -2.205  -9.799  0.00  0.00    +0.033 A 
ATOM      6  C   UNL     1       8.103  -3.068  -8.756  0.00  0.00    -0.026 A 
ATOM      7  C   UNL     1       7.526  -2.864  -7.513  0.00  0.00    +0.007 A 
ATOM      8  C   UNL     1       9.052  -4.223  -8.938  0.00  0.00    +0.038 C 
ATOM      9  C   UNL     1       9.182  -4.580 -10.418  0.00  0.00    +0.024 C 
ATOM     10  C   UNL     1       9.506  -3.307 -11.210  0.00  0.00    +0.105 C 
ATOM     11  N   UNL     1       8.370  -2.387 -11.065  0.00  0.00    -0.333 N 
ATOM     12  C   UNL     1       7.837  -1.673 -12.228  0.00  0.00    +0.129 C 
ENDBRANCH   1   2
BRANCH   1  13
ATOM     13  N   UNL     1       5.987  -0.164  -5.657  0.00  0.00    +0.385 N 
ATOM     14  C   UNL     1       5.431   0.057  -4.298  0.00  0.00    -0.078 C 
ATOM     15  C   UNL     1       5.964   1.463  -3.922  0.00  0.00    -0.020 C 
ATOM     16  C   UNL     1       7.386   1.467  -4.528  0.00  0.00    -0.020 C 
ATOM     17  C   UNL     1       7.358   0.390  -5.628  0.00  0.00    -0.078 C 
ATOM     18  H   UNL     1       5.430   0.321  -6.345  0.00  0.00    -0.081 HD
ENDBRANCH   1  13
BRANCH   1  19
ATOM     19  C   UNL     1       4.604  -2.162  -5.963  0.00  0.00    +0.094 C 
BRANCH  19  22
ATOM     20  C   UNL     1       3.517  -4.340  -6.079  0.00  0.00    +0.244 C 
ATOM     21  O   UNL     1       2.451  -3.785  -5.891  0.00  0.00    -0.270 OA
ATOM     22  N   UNL     1       4.653  -3.617  -6.132  0.00  0.00    -0.313 N 
ATOM     23  H   UNL     1       5.503  -4.060  -6.281  0.00  0.00    +0.149 HD
BRANCH  20  27
ATOM     24  C   UNL     1       3.658  -8.557  -6.569  0.00  0.00    -0.042 A 
ATOM     25  C   UNL     1       2.444  -7.928  -6.355  0.00  0.00    +0.005 A 
ATOM     26  C   UNL     1       2.391  -6.559  -6.195  0.00  0.00    +0.013 A 
ATOM     27  C   UNL     1       3.566  -5.808  -6.249  0.00  0.00    +0.037 A 
ATOM     28  C   UNL     1       4.787  -6.448  -6.465  0.00  0.00    +0.013 A 
ATOM     29  C   UNL     1       4.827  -7.818  -6.618  0.00  0.00    +0.005 A 
BRANCH  24  31
ATOM     30  C   UNL     1       4.580 -10.665  -5.646  0.00  0.00    +0.015 C 
ATOM     31  C   UNL     1       3.708 -10.053  -6.743  0.00  0.00    -0.013 C 
ATOM     32  C   UNL     1       4.301 -10.387  -8.113  0.00  0.00    +0.015 C 
ATOM     33  C   UNL     1       2.292 -10.625  -6.647  0.00  0.00    +0.015 C 
ENDBRANCH  24  31
ENDBRANCH  20  27
ENDBRANCH  19  22
ENDBRANCH   1  19
TORSDOF 6
