REMARK  Name = ZINC20639159
REMARK  4 active torsions:
REMARK  status: ('A' for Active; 'I' for Inactive)
REMARK    1  A    between atoms: C_1  and  C_2
REMARK    2  A    between atoms: C_8  and  C_10
REMARK    3  A    between atoms: C_11  and  C_25
REMARK    4  A    between atoms: C_15  and  N_16
REMARK                            x       y       z     vdW  Elec       q    Type
REMARK                         _______ _______ _______ _____ _____    ______ ____
ROOT
ATOM      1  C   UNL     1      -1.136  -2.164   0.001  0.00  0.00    +0.092 A 
ATOM      2  C   UNL     1      -1.109  -2.886   1.208  0.00  0.00    +0.118 A 
ATOM      3  C   UNL     1      -1.096  -4.263   1.144  0.00  0.00    +0.202 A 
ATOM      4  C   UNL     1      -1.099  -4.899  -0.101  0.00  0.00    +0.266 A 
ATOM      5  N   UNL     1      -1.120  -4.197  -1.220  0.00  0.00    -0.194 NA
ATOM      6  C   UNL     1      -1.138  -2.872  -1.211  0.00  0.00    +0.133 A 
ATOM      7  O   UNL     1      -1.079  -6.252  -0.132  0.00  0.00    -0.436 OA
ATOM      8  C   UNL     1      -1.418  -6.942   1.003  0.00  0.00    +0.145 C 
ATOM      9  C   UNL     1      -1.409  -6.345   2.172  0.00  0.00    +0.144 C 
ATOM     10  O   UNL     1      -1.074  -5.020   2.269  0.00  0.00    -0.451 OA
ATOM     11  C   UNL     1      -1.741  -7.050   3.462  0.00  0.00    +0.078 C 
ATOM     12  C   UNL     1      -2.491  -8.352   3.195  0.00  0.00    +0.008 C 
ATOM     13  C   UNL     1      -1.705  -9.146   2.144  0.00  0.00    +0.008 C 
ATOM     14  C   UNL     1      -1.791  -8.392   0.820  0.00  0.00    +0.078 C 
ENDROOT
BRANCH   1  22
ATOM     15  C   UNL     1       2.508   1.439  -0.013  0.00  0.00    +0.048 C 
ATOM     16  C   UNL     1       1.163   2.118   0.002  0.00  0.00    -0.002 A 
ATOM     17  C   UNL     1       1.045   3.472   0.010  0.00  0.00    +0.072 A 
ATOM     18  S   UNL     1      -0.674   3.690   0.027  0.00  0.00    +0.006 S 
ATOM     19  N   UNL     1      -1.156   2.051   0.019  0.00  0.00    -0.195 NA
ATOM     20  C   UNL     1      -0.017   1.396   0.010  0.00  0.00    +0.137 A 
ATOM     21  N   UNL     1       0.002  -0.004   0.002  0.00  0.00    -0.266 N 
ATOM     22  C   UNL     1      -1.156  -0.694   0.009  0.00  0.00    +0.253 C 
ATOM     23  O   UNL     1      -2.218  -0.100   0.023  0.00  0.00    -0.270 OA
ATOM     24  H   UNL     1       0.962  -0.541  -0.010  0.00  0.00    +0.157 HD
ENDBRANCH   1  22
BRANCH   2  25
ATOM     25  C   UNL     1      -1.099  -2.174   2.536  0.00  0.00    +0.422 C 
ATOM     26  F   UNL     1      -2.415  -1.971   2.966  0.00  0.00    -0.166 F 
ATOM     27  F   UNL     1      -0.416  -2.950   3.478  0.00  0.00    -0.166 F 
ATOM     28  F   UNL     1      -0.459  -0.938   2.397  0.00  0.00    -0.166 F 
ENDBRANCH   2  25
BRANCH   6  29
ATOM     29  N   UNL     1      -1.159  -2.179  -2.409  0.00  0.00    -0.342 N 
ATOM     30  H   UNL     1      -1.160  -2.728  -3.362  0.00  0.00    +0.144 HD
ATOM     31  H   UNL     1      -1.173  -1.079  -2.408  0.00  0.00    +0.144 HD
ENDBRANCH   6  29
TORSDOF 3
