REMARK  Name = ZINC19760157
REMARK  4 active torsions:
REMARK  status: ('A' for Active; 'I' for Inactive)
REMARK    1  A    between atoms: C_1  and  C_2
REMARK    2  A    between atoms: C_2  and  N_3
REMARK    3  A    between atoms: C_5  and  C_20
REMARK    4  A    between atoms: C_11  and  C_14
REMARK                            x       y       z     vdW  Elec       q    Type
REMARK                         _______ _______ _______ _____ _____    ______ ____
ROOT
ATOM      1  N   UNL     1      -4.903   1.298   0.022  0.00  0.00    -0.324 N 
ATOM      2  C   UNL     1      -5.883   2.197   0.642  0.00  0.00    +0.149 C 
ATOM      3  C   UNL     1      -5.901   3.516  -0.142  0.00  0.00    +0.188 C 
ATOM      4  O   UNL     1      -4.610   4.120  -0.018  0.00  0.00    -0.486 OA
ATOM      5  C   UNL     1      -3.533   3.304  -0.194  0.00  0.00    +0.142 A 
ATOM      6  C   UNL     1      -3.664   1.919  -0.170  0.00  0.00    +0.073 A 
ATOM      7  C   UNL     1      -2.542   1.119  -0.346  0.00  0.00    +0.036 A 
ATOM      8  C   UNL     1      -1.294   1.702  -0.550  0.00  0.00    +0.003 A 
ATOM      9  C   UNL     1      -1.171   3.090  -0.571  0.00  0.00    +0.014 A 
ATOM     10  C   UNL     1      -2.288   3.881  -0.399  0.00  0.00    +0.048 A 
ATOM     11  C   UNL     1      -6.967   4.448   0.437  0.00  0.00    +0.053 C 
ENDROOT
BRANCH   8  12
ATOM     12  C   UNL     1      -0.097   0.846  -0.738  0.00  0.00    +0.080 A 
ATOM     13  C   UNL     1       1.130   1.412  -0.944  0.00  0.00    +0.076 A 
ATOM     14  S   UNL     1       2.148  -0.049  -1.106  0.00  0.00    -0.060 S 
ATOM     15  C   UNL     1       0.848  -1.256  -0.885  0.00  0.00    +0.156 A 
ATOM     16  N   UNL     1      -0.207  -0.480  -0.714  0.00  0.00    -0.225 NA
ATOM     17  N   UNL     1       0.926  -2.639  -0.891  0.00  0.00    -0.338 N 
ATOM     18  H   UNL     1       0.019  -3.242  -0.739  0.00  0.00    +0.144 HD
ATOM     19  H   UNL     1       1.895  -3.134  -1.049  0.00  0.00    +0.144 HD
ENDBRANCH   8  12
BRANCH   1  21
ATOM     20  C   UNL     1      -6.139  -0.530   1.085  0.00  0.00    +0.024 C 
ATOM     21  C   UNL     1      -4.756   0.061   0.801  0.00  0.00    +0.102 C 
ENDBRANCH   1  21
TORSDOF 2
