REMARK  Name = ZINC26511331
REMARK  4 active torsions:
REMARK  status: ('A' for Active; 'I' for Inactive)
REMARK    1  A    between atoms: C_4  and  C_7
REMARK    2  A    between atoms: C_8  and  N_22
REMARK    3  A    between atoms: N_9  and  C_13
REMARK    4  A    between atoms: C_17  and  N_19
REMARK                            x       y       z     vdW  Elec       q    Type
REMARK                         _______ _______ _______ _____ _____    ______ ____
ROOT
ATOM      1  C   UNL     1      -0.850   7.376  -0.021  0.00  0.00    +0.062 C 
ATOM      2  C   UNL     1      -1.178   6.028  -0.052  0.00  0.00    +0.100 C 
ATOM      3  N   UNL     1      -0.069   5.241   0.031  0.00  0.00    -0.281 N 
ATOM      4  C   UNL     1       1.103   6.121   0.133  0.00  0.00    +0.191 C 
ATOM      5  C   UNL     1       0.540   7.526   0.088  0.00  0.00    +0.184 C 
ATOM      6  O   UNL     1       1.164   8.569   0.141  0.00  0.00    -0.290 OA
ENDROOT
BRANCH   1  10
ATOM      7  C   UNL     1      -3.641  10.575  -0.226  0.00  0.00    +0.000 A 
ATOM      8  C   UNL     1      -2.893  10.386   0.922  0.00  0.00    +0.001 A 
ATOM      9  C   UNL     1      -1.985   9.350   0.995  0.00  0.00    +0.009 A 
ATOM     10  C   UNL     1      -1.823   8.492  -0.093  0.00  0.00    -0.011 A 
ATOM     11  C   UNL     1      -2.576   8.691  -1.250  0.00  0.00    +0.009 A 
ATOM     12  C   UNL     1      -3.485   9.727  -1.308  0.00  0.00    +0.001 A 
ENDBRANCH   1  10
BRANCH   3  13
ATOM     13  C   UNL     1      -0.051   3.842   0.027  0.00  0.00    +0.037 A 
ATOM     14  C   UNL     1      -0.600   3.136   1.090  0.00  0.00    +0.023 A 
ATOM     15  C   UNL     1      -0.579   1.755   1.083  0.00  0.00    +0.004 A 
ATOM     16  C   UNL     1      -0.013   1.076   0.019  0.00  0.00    +0.033 A 
ATOM     17  C   UNL     1       0.540   1.776  -1.037  0.00  0.00    +0.128 A 
ATOM     18  C   UNL     1       0.518   3.157  -1.039  0.00  0.00    +0.056 A 
BRANCH  17  19
ATOM     19  N   UNL     1       1.150   1.045  -2.171  0.00  0.00    +0.056 N 
ATOM     20  O   UNL     1       1.165  -0.173  -2.172  0.00  0.00    -0.126 OA
ATOM     21  O   UNL     1       1.636   1.661  -3.102  0.00  0.00    -0.126 OA
ENDBRANCH  17  19
ENDBRANCH   3  13
BRANCH   2  22
ATOM     22  N   UNL     1      -2.454   5.551  -0.154  0.00  0.00    -0.346 N 
ATOM     23  H   UNL     1      -2.635   4.466  -0.172  0.00  0.00    +0.143 HD
ATOM     24  H   UNL     1      -3.300   6.251  -0.217  0.00  0.00    +0.143 HD
ENDBRANCH   2  22
TORSDOF 4
