REMARK  Name = ZINC16450223
REMARK  5 active torsions:
REMARK  status: ('A' for Active; 'I' for Inactive)
REMARK    1  A    between atoms: C_4  and  N_25
REMARK    2  A    between atoms: C_5  and  N_7
REMARK    3  A    between atoms: N_7  and  C_8
REMARK    4  A    between atoms: N_15  and  C_18
REMARK    5  A    between atoms: C_26  and  C_28
REMARK                            x       y       z     vdW  Elec       q    Type
REMARK                         _______ _______ _______ _____ _____    ______ ____
ROOT
ATOM      1  C   UNL     1       0.560  -3.240   0.599  0.00  0.00    +0.090 C 
ATOM      2  C   UNL     1       0.894  -4.559   0.846  0.00  0.00    +0.113 C 
ATOM      3  C   UNL     1       2.298  -4.980   1.004  0.00  0.00    +0.258 C 
ATOM      4  O   UNL     1       3.205  -4.174   0.920  0.00  0.00    -0.270 OA
ATOM      5  N   UNL     1       2.549  -6.284   1.243  0.00  0.00    -0.235 N 
ATOM      6  C   UNL     1       1.559  -7.182   1.338  0.00  0.00    +0.320 C 
ATOM      7  O   UNL     1       1.853  -8.341   1.555  0.00  0.00    -0.251 OA
ATOM      8  N   UNL     1       0.262  -6.870   1.206  0.00  0.00    -0.190 N 
ATOM      9  C   UNL     1      -0.137  -5.604   0.970  0.00  0.00    +0.265 C 
ATOM     10  O   UNL     1      -1.318  -5.332   0.857  0.00  0.00    -0.269 OA
ATOM     11  H   UNL     1       3.468  -6.577   1.349  0.00  0.00    +0.159 HD
ENDROOT
BRANCH   8  12
ATOM     12  C   UNL     1      -0.701  -7.882   1.321  0.00  0.00    +0.046 A 
ATOM     13  C   UNL     1      -1.606  -8.101   0.292  0.00  0.00    +0.025 A 
ATOM     14  C   UNL     1      -2.554  -9.099   0.408  0.00  0.00    +0.022 A 
ATOM     15  C   UNL     1      -2.602  -9.880   1.549  0.00  0.00    +0.041 A 
ATOM     16  C   UNL     1      -1.701  -9.663   2.577  0.00  0.00    +0.022 A 
ATOM     17  C   UNL     1      -0.748  -8.670   2.463  0.00  0.00    +0.025 A 
ATOM     18 CL   UNL     1      -3.795 -11.133   1.692  0.00  0.00    -0.084 Cl
ENDBRANCH   8  12
BRANCH   1  19
ATOM     19  N   UNL     1       1.530  -2.329   0.377  0.00  0.00    -0.318 N 
ATOM     20  H   UNL     1       2.455  -2.612   0.311  0.00  0.00    +0.152 HD
BRANCH  19  25
ATOM     21  C   UNL     1      -0.446   0.767   0.198  0.00  0.00    +0.002 A 
ATOM     22  C   UNL     1       0.546   1.703  -0.030  0.00  0.00    +0.002 A 
ATOM     23  C   UNL     1       1.867   1.308  -0.124  0.00  0.00    +0.025 A 
ATOM     24  C   UNL     1       2.201  -0.032   0.011  0.00  0.00    +0.055 A 
ATOM     25  C   UNL     1       1.200  -0.976   0.240  0.00  0.00    +0.052 A 
ATOM     26  C   UNL     1      -0.123  -0.569   0.333  0.00  0.00    +0.025 A 
BRANCH  24  27
ATOM     27  N   UNL     1       3.538  -0.436  -0.085  0.00  0.00    -0.277 N 
ATOM     28  C   UNL     1       4.527   0.438   0.190  0.00  0.00    +0.322 C 
ATOM     29  O   UNL     1       4.261   1.540   0.622  0.00  0.00    -0.266 OA
ATOM     30  H   UNL     1       3.753  -1.344  -0.349  0.00  0.00    +0.155 HD
BRANCH  28  31
ATOM     31  C   UNL     1       5.964   0.047  -0.041  0.00  0.00    +0.470 C 
ATOM     32  F   UNL     1       6.800   1.111   0.315  0.00  0.00    -0.162 F 
ATOM     33  F   UNL     1       6.274  -1.071   0.742  0.00  0.00    -0.162 F 
ATOM     34  F   UNL     1       6.152  -0.263  -1.392  0.00  0.00    -0.162 F 
ENDBRANCH  28  31
ENDBRANCH  24  27
ENDBRANCH  19  25
ENDBRANCH   1  19
TORSDOF 5
