REMARK  Name = ZINC63349954
REMARK  4 active torsions:
REMARK  status: ('A' for Active; 'I' for Inactive)
REMARK    1  A    between atoms: C_1  and  O_2
REMARK    2  A    between atoms: O_2  and  C_3
REMARK    3  A    between atoms: C_10  and  C_18
REMARK    4  A    between atoms: C_23  and  O_24
REMARK                            x       y       z     vdW  Elec       q    Type
REMARK                         _______ _______ _______ _____ _____    ______ ____
ROOT
ATOM      1  C   UNL     1       0.571  -0.634   1.071  0.00  0.00    +0.121 A 
ATOM      2  C   UNL     1       1.135   0.158   2.087  0.00  0.00    +0.047 A 
ATOM      3  C   UNL     1       1.773  -0.375   3.151  0.00  0.00    +0.029 A 
ATOM      4  C   UNL     1       1.897  -1.829   3.275  0.00  0.00    +0.043 A 
ATOM      5  N   UNL     1       2.476  -2.585   4.179  0.00  0.00    -0.376 N 
ATOM      6  C   UNL     1       2.212  -3.982   3.851  0.00  0.00    +0.128 C 
ATOM      7  C   UNL     1       3.495  -4.806   3.705  0.00  0.00    +0.114 C 
ATOM      8  N   UNL     1       3.148  -6.100   3.096  0.00  0.00    -0.307 NA
ATOM      9  C   UNL     1       2.684  -5.981   1.710  0.00  0.00    +0.086 C 
ATOM     10  C   UNL     1       1.352  -5.210   1.664  0.00  0.00    +0.048 C 
ATOM     11  C   UNL     1       1.540  -3.954   2.487  0.00  0.00    -0.035 C 
ATOM     12  C   UNL     1       1.310  -2.668   2.199  0.00  0.00    +0.003 A 
ATOM     13  C   UNL     1       0.629  -1.986   1.091  0.00  0.00    +0.055 A 
ATOM     14  H   UNL     1       3.917  -6.750   3.165  0.00  0.00    +0.123 HD
ATOM     15  H   UNL     1       2.992  -2.269   4.937  0.00  0.00    +0.160 HD
ENDROOT
BRANCH   7  16
ATOM     16  C   UNL     1       4.111  -5.031   5.061  0.00  0.00    +0.013 A 
ATOM     17  C   UNL     1       5.245  -4.333   5.430  0.00  0.00    +0.009 A 
ATOM     18  C   UNL     1       5.811  -4.540   6.675  0.00  0.00    +0.001 A 
ATOM     19  C   UNL     1       5.244  -5.445   7.553  0.00  0.00    +0.004 A 
ATOM     20  C   UNL     1       4.109  -6.144   7.189  0.00  0.00    +0.046 A 
ATOM     21  C   UNL     1       3.537  -5.935   5.943  0.00  0.00    +0.122 A 
BRANCH  21  22
ATOM     22  O   UNL     1       2.418  -6.618   5.585  0.00  0.00    -0.506 OA
ATOM     23  H   UNL     1       2.593  -7.495   5.217  0.00  0.00    +0.292 HD
ENDBRANCH  21  22
ENDBRANCH   7  16
BRANCH   1  25
ATOM     24  C   UNL     1      -0.099   1.408   0.053  0.00  0.00    +0.277 C 
ATOM     25  O   UNL     1      -0.060  -0.020   0.035  0.00  0.00    -0.495 OA
ENDBRANCH   1  25
TORSDOF 3
