REMARK  Name = ZINC05591994
REMARK  9 active torsions:
REMARK  status: ('A' for Active; 'I' for Inactive)
REMARK    1  A    between atoms: C_1  and  C_2
REMARK    2  A    between atoms: C_2  and  O_3
REMARK    3  A    between atoms: O_3  and  C_4
REMARK    4  A    between atoms: C_4  and  C_6
REMARK    5  A    between atoms: N_7  and  C_8
REMARK    6  A    between atoms: C_8  and  C_9
REMARK    7  A    between atoms: C_9  and  O_10
REMARK    8  A    between atoms: N_11  and  N_12
REMARK    9  A    between atoms: N_12  and  C_13
REMARK                            x       y       z     vdW  Elec       q    Type
REMARK                         _______ _______ _______ _____ _____    ______ ____
ROOT
ATOM      1  C   UNL     1      -0.070   2.308   2.065  0.00  0.00    +0.196 C 
ATOM      2  N   UNL     1      -0.692   1.544   1.221  0.00  0.00    -0.322 N 
ATOM      3  N   UNL     1      -0.687   2.682   3.240  0.00  0.00    -0.288 N 
ATOM      4  H   UNL     1      -1.744   1.274   1.396  0.00  0.00    +0.148 HD
ATOM      5  H   UNL     1      -0.159   3.330   3.956  0.00  0.00    +0.186 HD
ENDROOT
BRANCH   1   6
ATOM      6  C   UNL     1       1.309   2.780   1.766  0.00  0.00    +0.372 C 
ATOM      7  O   UNL     1       1.931   3.405   2.600  0.00  0.00    -0.242 OA
BRANCH   6   8
ATOM      8  O   UNL     1       1.866   2.514   0.570  0.00  0.00    -0.460 OA
BRANCH   8  10
ATOM      9  C   UNL     1       3.676   2.609  -1.057  0.00  0.00    +0.048 C 
ATOM     10  C   UNL     1       3.215   3.005   0.347  0.00  0.00    +0.229 C 
ENDBRANCH   8  10
ENDBRANCH   6   8
ENDBRANCH   1   6
BRANCH   3  11
ATOM     11  N   UNL     1      -1.985   2.238   3.522  0.00  0.00    -0.257 N 
ATOM     12  H   UNL     1      -2.512   1.591   2.806  0.00  0.00    +0.172 HD
BRANCH  11  13
ATOM     13  C   UNL     1      -2.610   2.618   4.713  0.00  0.00    +0.066 A 
ATOM     14  C   UNL     1      -1.944   3.430   5.620  0.00  0.00    +0.046 A 
ATOM     15  C   UNL     1      -2.566   3.807   6.795  0.00  0.00    +0.043 A 
ATOM     16  C   UNL     1      -3.849   3.368   7.072  0.00  0.00    +0.021 A 
ATOM     17  C   UNL     1      -4.514   2.554   6.173  0.00  0.00    +0.023 A 
ATOM     18  C   UNL     1      -3.898   2.178   4.994  0.00  0.00    +0.063 A 
ATOM     19 CL   UNL     1      -4.734   1.157   3.866  0.00  0.00    -0.082 Cl
ATOM     20 CL   UNL     1      -1.736   4.828   7.928  0.00  0.00    -0.083 Cl
ENDBRANCH  11  13
ENDBRANCH   3  11
BRANCH   2  21
ATOM     21  C   UNL     1       0.006   1.043   0.035  0.00  0.00    +0.131 C 
BRANCH  21  22
ATOM     22  C   UNL     1      -0.901   0.065  -0.716  0.00  0.00    +0.174 C 
BRANCH  22  23
ATOM     23  O   UNL     1      -2.042   0.764  -1.216  0.00  0.00    -0.393 OA
ATOM     24  H   UNL     1      -2.812   0.223  -1.787  0.00  0.00    +0.209 HD
ENDBRANCH  22  23
ENDBRANCH  21  22
ENDBRANCH   2  21
TORSDOF 8
