REMARK  Name = ZINC08790298
REMARK  6 active torsions:
REMARK  status: ('A' for Active; 'I' for Inactive)
REMARK    1  A    between atoms: C_1  and  C_2
REMARK    2  A    between atoms: C_7  and  C_36
REMARK    3  A    between atoms: C_20  and  C_22
REMARK    4  A    between atoms: C_22  and  N_66
REMARK    5  A    between atoms: C_25  and  C_28
REMARK    6  A    between atoms: C_25  and  O_35
REMARK                            x       y       z     vdW  Elec       q    Type
REMARK                         _______ _______ _______ _____ _____    ______ ____
ROOT
ATOM      1  C   UNL     1       8.779  -2.251   6.558  0.00  0.00    +0.010 C 
ATOM      2  C   UNL     1      10.242  -2.034   6.167  0.00  0.00    +0.021 C 
ATOM      3  C   UNL     1      11.083  -3.136   6.795  0.00  0.00    +0.006 C 
ATOM      4  C   UNL     1      10.678  -4.493   6.218  0.00  0.00    +0.001 C 
ATOM      5  C   UNL     1      10.941  -4.524   4.711  0.00  0.00    +0.010 C 
ATOM      6  C   UNL     1      10.070  -3.469   4.027  0.00  0.00    +0.003 C 
ATOM      7  C   UNL     1      10.382  -2.101   4.646  0.00  0.00    +0.104 C 
ATOM      8  C   UNL     1      10.122  -0.865   3.808  0.00  0.00    +0.159 C 
ATOM      9  O   UNL     1      11.430  -1.382   4.063  0.00  0.00    -0.363 OA
ATOM     10  C   UNL     1       9.575  -0.964   2.397  0.00  0.00    +0.073 C 
ATOM     11  C   UNL     1       9.427  -2.390   1.879  0.00  0.00    +0.183 C 
ATOM     12  C   UNL     1      10.395  -3.379   2.535  0.00  0.00    +0.054 C 
ATOM     13  O   UNL     1       8.027  -2.751   1.975  0.00  0.00    -0.461 OA
ATOM     14  C   UNL     1       7.312  -1.759   2.529  0.00  0.00    +0.309 C 
ATOM     15  O   UNL     1       6.222  -1.873   3.037  0.00  0.00    -0.251 OA
ATOM     16  C   UNL     1       8.103  -0.470   2.410  0.00  0.00    +0.090 C 
ATOM     17  C   UNL     1       8.591  -3.806   4.221  0.00  0.00    +0.014 C 
ENDROOT
BRANCH  16  18
ATOM     18  C   UNL     1       7.764   0.255   1.106  0.00  0.00    -0.064 C 
BRANCH  18  24
ATOM     19  C   UNL     1       6.208   1.767   2.179  0.00  0.00    -0.076 C 
ATOM     20  C   UNL     1       4.726   2.131   2.304  0.00  0.00    +0.021 C 
ATOM     21  C   UNL     1       4.214   2.634   0.951  0.00  0.00    +0.088 C 
ATOM     22  C   UNL     1       4.443   1.552  -0.107  0.00  0.00    +0.021 C 
ATOM     23  C   UNL     1       5.933   1.205  -0.162  0.00  0.00    -0.076 C 
ATOM     24  N   UNL     1       6.357   0.704   1.163  0.00  0.00    +0.380 N 
ATOM     25  H   UNL     1       5.764  -0.092   1.424  0.00  0.00    -0.082 HD
BRANCH  21  26
ATOM     26  C   UNL     1       2.742   2.937   1.052  0.00  0.00    -0.016 A 
ATOM     27  C   UNL     1       2.184   3.926   0.263  0.00  0.00    +0.008 A 
ATOM     28  C   UNL     1       0.834   4.205   0.354  0.00  0.00    +0.020 A 
ATOM     29  C   UNL     1       0.039   3.493   1.235  0.00  0.00    +0.041 A 
ATOM     30  C   UNL     1       0.597   2.503   2.024  0.00  0.00    +0.020 A 
ATOM     31  C   UNL     1       1.948   2.226   1.932  0.00  0.00    +0.008 A 
ATOM     32 CL   UNL     1      -1.656   3.847   1.356  0.00  0.00    -0.084 Cl
ENDBRANCH  21  26
BRANCH  21  33
ATOM     33  O   UNL     1       4.922   3.820   0.584  0.00  0.00    -0.384 OA
ATOM     34  H   UNL     1       4.650   4.194  -0.265  0.00  0.00    +0.211 HD
ENDBRANCH  21  33
ENDBRANCH  18  24
ENDBRANCH  16  18
TORSDOF 4
