REMARK  Name = ZINC49731235
REMARK  7 active torsions:
REMARK  status: ('A' for Active; 'I' for Inactive)
REMARK    1  A    between atoms: C_1  and  C_2
REMARK    2  A    between atoms: C_5  and  O_18
REMARK    3  A    between atoms: C_6  and  C_8
REMARK    4  A    between atoms: C_9  and  C_14
REMARK    5  A    between atoms: C_12  and  N_13
REMARK    6  A    between atoms: C_14  and  C_15
REMARK    7  A    between atoms: O_18  and  C_19
REMARK                            x       y       z     vdW  Elec       q    Type
REMARK                         _______ _______ _______ _____ _____    ______ ____
ROOT
ATOM      1  C   UNL     1       0.053  -2.842   2.467  0.00  0.00    +0.070 A 
ATOM      2  C   UNL     1       1.200  -3.245   3.184  0.00  0.00    +0.094 A 
ATOM      3  N   UNL     1       0.810  -3.878   4.254  0.00  0.00    -0.080 NA
ATOM      4  O   UNL     1      -0.605  -3.911   4.271  0.00  0.00    -0.339 OA
ATOM      5  C   UNL     1      -1.052  -3.270   3.177  0.00  0.00    +0.223 A 
ENDROOT
BRANCH   1  11
ATOM      6  C   UNL     1      -0.018   1.503   0.010  0.00  0.00    +0.044 C 
ATOM      7  C   UNL     1       0.002  -0.004   0.002  0.00  0.00    -0.050 A 
ATOM      8  C   UNL     1       0.006  -0.687  -1.201  0.00  0.00    +0.007 A 
ATOM      9  C   UNL     1       0.024  -2.069  -1.219  0.00  0.00    +0.046 A 
ATOM     10  C   UNL     1       0.040  -2.778  -0.029  0.00  0.00    +0.128 A 
ATOM     11  C   UNL     1       0.037  -2.091   1.188  0.00  0.00    +0.031 A 
ATOM     12  C   UNL     1       0.023  -0.698   1.195  0.00  0.00    +0.015 A 
BRANCH  10  13
ATOM     13  O   UNL     1       0.058  -4.137  -0.046  0.00  0.00    -0.494 OA
ATOM     14  C   UNL     1       0.060  -4.771  -1.327  0.00  0.00    +0.277 C 
ENDBRANCH  10  13
ENDBRANCH   1  11
BRANCH   5  15
ATOM     15  N   UNL     1      -2.372  -3.078   2.827  0.00  0.00    -0.327 N 
ATOM     16  H   UNL     1      -2.593  -2.601   2.012  0.00  0.00    +0.145 HD
ATOM     17  H   UNL     1      -3.080  -3.419   3.396  0.00  0.00    +0.145 HD
ENDBRANCH   5  15
BRANCH   2  18
ATOM     18  C   UNL     1       2.629  -2.987   2.782  0.00  0.00    +0.063 C 
BRANCH  18  19
ATOM     19  C   UNL     1       3.094  -1.655   3.376  0.00  0.00    -0.005 C 
ATOM     20  C   UNL     1       3.465  -0.538   2.399  0.00  0.00    +0.004 C 
ATOM     21  C   UNL     1       4.561  -1.267   3.179  0.00  0.00    +0.004 C 
ENDBRANCH  18  19
ENDBRANCH   2  18
TORSDOF 5
