REMARK  Name = ZINC04429584
REMARK  5 active torsions:
REMARK  status: ('A' for Active; 'I' for Inactive)
REMARK    1  A    between atoms: C_1  and  C_2
REMARK    2  A    between atoms: C_3  and  N_11
REMARK    3  A    between atoms: C_4  and  N_10
REMARK    4  A    between atoms: C_6  and  S_8
REMARK    5  A    between atoms: S_8  and  C_9
REMARK                            x       y       z     vdW  Elec       q    Type
REMARK                         _______ _______ _______ _____ _____    ______ ____
ROOT
ATOM      1  C   UNL     1       1.216   3.575   0.009  0.00  0.00    +0.068 C 
ATOM      2  C   UNL     1       1.188   2.068   0.002  0.00  0.00    +0.075 A 
ATOM      3  C   UNL     1      -0.017   1.392   0.010  0.00  0.00    +0.186 A 
ATOM      4  C   UNL     1       0.002  -0.004   0.002  0.00  0.00    +0.151 A 
ATOM      5  N   UNL     1       1.173  -0.633  -0.013  0.00  0.00    -0.205 NA
ATOM      6  C   UNL     1       2.307   0.052  -0.020  0.00  0.00    +0.190 A 
ATOM      7  N   UNL     1       2.318   1.377  -0.013  0.00  0.00    -0.225 NA
ENDROOT
BRANCH   4   8
ATOM      8  N   UNL     1      -1.182  -0.723   0.010  0.00  0.00    -0.341 N 
ATOM      9  H   UNL     1      -2.033  -0.257   0.021  0.00  0.00    +0.144 HD
ATOM     10  H   UNL     1      -1.161  -1.693   0.004  0.00  0.00    +0.144 HD
ENDBRANCH   4   8
BRANCH   3  11
ATOM     11  N   UNL     1      -1.299   2.132   0.020  0.00  0.00    +0.062 N 
ATOM     12  O   UNL     1      -1.821   2.430   1.079  0.00  0.00    -0.126 OA
ATOM     13  O   UNL     1      -1.832   2.442  -1.031  0.00  0.00    -0.126 OA
ENDBRANCH   3  11
BRANCH   6  14
ATOM     14  S   UNL     1       3.838  -0.821  -0.038  0.00  0.00    -0.089 S 
ATOM     15  C   UNL     1       3.228  -2.525  -0.041  0.00  0.00    +0.093 C 
ENDBRANCH   6  14
TORSDOF 3
