REMARK  Name = ZINC32209899
REMARK  7 active torsions:
REMARK  status: ('A' for Active; 'I' for Inactive)
REMARK    1  A    between atoms: C_1  and  C_2
REMARK    2  A    between atoms: C_2  and  N_3
REMARK    3  A    between atoms: N_3  and  C_4
REMARK    4  A    between atoms: N_3  and  S_12
REMARK    5  A    between atoms: C_8  and  N_10
REMARK    6  A    between atoms: S_12  and  C_15
REMARK    7  A    between atoms: C_20  and  C_21
REMARK                            x       y       z     vdW  Elec       q    Type
REMARK                         _______ _______ _______ _____ _____    ______ ____
ROOT
ATOM      1  N   UNL     1      -0.905   1.849  -1.345  0.00  0.00    -0.203 N 
ENDROOT
BRANCH   1   2
ATOM      2  C   UNL     1      -0.735   3.119  -1.905  0.00  0.00    +0.053 A 
ATOM      3  C   UNL     1      -0.128   4.128  -1.168  0.00  0.00    +0.027 A 
ATOM      4  C   UNL     1       0.046   5.382  -1.722  0.00  0.00    +0.042 A 
ATOM      5  C   UNL     1      -0.395   5.640  -3.008  0.00  0.00    +0.144 A 
ATOM      6  C   UNL     1      -1.008   4.635  -3.748  0.00  0.00    +0.062 A 
ATOM      7  C   UNL     1      -1.178   3.374  -3.195  0.00  0.00    +0.050 A 
ATOM      8  F   UNL     1      -0.229   6.869  -3.545  0.00  0.00    -0.204 F 
BRANCH   6   9
ATOM      9  N   UNL     1      -1.453   4.895  -5.048  0.00  0.00    -0.356 N 
ATOM     10  H   UNL     1      -1.938   4.100  -5.633  0.00  0.00    +0.142 HD
ATOM     11  H   UNL     1      -1.318   5.895  -5.486  0.00  0.00    +0.142 HD
ENDBRANCH   6   9
ENDBRANCH   1   2
BRANCH   1  12
ATOM     12  S   UNL     1       0.117   1.328  -0.151  0.00  0.00    +0.075 S 
ATOM     13  O   UNL     1      -0.003  -0.087  -0.103  0.00  0.00    -0.150 OA
ATOM     14  O   UNL     1       1.361   1.980  -0.367  0.00  0.00    -0.150 OA
BRANCH  12  15
ATOM     15  C   UNL     1      -0.513   1.938   1.377  0.00  0.00    +0.112 A 
ATOM     16  C   UNL     1      -1.493   2.914   1.381  0.00  0.00    +0.029 A 
ATOM     17  C   UNL     1      -1.991   3.389   2.579  0.00  0.00    +0.002 A 
ATOM     18  C   UNL     1      -1.502   2.897   3.775  0.00  0.00    +0.000 A 
ATOM     19  C   UNL     1      -0.518   1.925   3.772  0.00  0.00    +0.005 A 
ATOM     20  C   UNL     1      -0.024   1.446   2.573  0.00  0.00    -0.024 A 
ATOM     21  C   UNL     1       1.048   0.387   2.569  0.00  0.00    +0.046 C 
ENDBRANCH  12  15
ENDBRANCH   1  12
BRANCH   1  23
ATOM     22  C   UNL     1      -3.276   1.321  -1.067  0.00  0.00    +0.026 C 
ATOM     23  C   UNL     1      -1.986   0.980  -1.815  0.00  0.00    +0.128 C 
ENDBRANCH   1  23
TORSDOF 5
