REMARK  Name = ZINC06216853
REMARK  7 active torsions:
REMARK  status: ('A' for Active; 'I' for Inactive)
REMARK    1  A    between atoms: C_1  and  C_2
REMARK    2  A    between atoms: C_2  and  C_4
REMARK    3  A    between atoms: C_2  and  S_13
REMARK    4  A    between atoms: N_6  and  C_7
REMARK    5  A    between atoms: S_13  and  C_14
REMARK    6  A    between atoms: C_17  and  C_20
REMARK    7  A    between atoms: N_18  and  N_19
REMARK                            x       y       z     vdW  Elec       q    Type
REMARK                         _______ _______ _______ _____ _____    ______ ____
ROOT
ATOM      1  C   UNL     1      -2.356  -0.039   1.544  0.00  0.00    +0.209 A 
ATOM      2  N   UNL     1      -1.666   0.509   2.520  0.00  0.00    -0.121 NA
ATOM      3  N   UNL     1      -2.415   0.674   3.551  0.00  0.00    -0.127 NA
ATOM      4  C   UNL     1      -3.628   0.242   3.297  0.00  0.00    +0.183 A 
ATOM      5  N   UNL     1      -3.629  -0.223   2.003  0.00  0.00    -0.224 N 
ENDROOT
BRANCH   4   6
ATOM      6  C   UNL     1      -4.778   0.257   4.226  0.00  0.00    +0.040 A 
ATOM      7  C   UNL     1      -5.567  -0.883   4.383  0.00  0.00    +0.033 A 
ATOM      8  C   UNL     1      -6.640  -0.863   5.253  0.00  0.00    +0.042 A 
ATOM      9  C   UNL     1      -6.933   0.287   5.967  0.00  0.00    +0.021 A 
ATOM     10  C   UNL     1      -6.156   1.420   5.816  0.00  0.00    +0.022 A 
ATOM     11  C   UNL     1      -5.076   1.411   4.954  0.00  0.00    +0.052 A 
ATOM     12 CL   UNL     1      -4.096   2.832   4.772  0.00  0.00    -0.083 Cl
ATOM     13 CL   UNL     1      -7.623  -2.280   5.449  0.00  0.00    -0.084 Cl
ENDBRANCH   4   6
BRANCH   5  14
ATOM     14  N   UNL     1      -4.683  -0.760   1.319  0.00  0.00    -0.295 N 
ATOM     15  H   UNL     1      -4.777  -1.745   1.515  0.00  0.00    +0.163 HD
ATOM     16  H   UNL     1      -5.538  -0.266   1.527  0.00  0.00    +0.163 HD
ENDBRANCH   5  14
BRANCH   1  17
ATOM     17  S   UNL     1      -1.752  -0.451  -0.059  0.00  0.00    -0.072 S 
BRANCH  17  19
ATOM     18  C   UNL     1       0.086   1.564   0.147  0.00  0.00    +0.029 C 
ATOM     19  C   UNL     1      -0.008   0.045  -0.012  0.00  0.00    +0.137 C 
BRANCH  19  20
ATOM     20  C   UNL     1       0.667  -0.368  -1.295  0.00  0.00    +0.226 C 
ATOM     21  O   UNL     1       0.012  -0.513  -2.305  0.00  0.00    -0.275 OA
ATOM     22  N   UNL     1       1.998  -0.578  -1.319  0.00  0.00    -0.312 N 
ATOM     23  H   UNL     1       2.522  -0.463  -0.511  0.00  0.00    +0.149 HD
BRANCH  22  24
ATOM     24  C   UNL     1       2.654  -0.980  -2.566  0.00  0.00    +0.073 C 
ATOM     25  C   UNL     1       2.559  -2.499  -2.725  0.00  0.00    +0.022 C 
ATOM     26  C   UNL     1       3.244  -2.918  -4.028  0.00  0.00    +0.002 C 
ATOM     27  C   UNL     1       4.715  -2.500  -3.988  0.00  0.00    +0.000 C 
ATOM     28  C   UNL     1       4.809  -0.981  -3.829  0.00  0.00    +0.002 C 
ATOM     29  C   UNL     1       4.125  -0.561  -2.527  0.00  0.00    +0.022 C 
ENDBRANCH  22  24
ENDBRANCH  19  20
ENDBRANCH  17  19
ENDBRANCH   1  17
TORSDOF 6
