REMARK  Name = ZINC45471168
REMARK  4 active torsions:
REMARK  status: ('A' for Active; 'I' for Inactive)
REMARK    1  A    between atoms: N_7  and  C_20
REMARK    2  A    between atoms: C_9  and  C_12
REMARK    3  A    between atoms: C_20  and  C_21
REMARK    4  A    between atoms: N_23  and  C_24
REMARK                            x       y       z     vdW  Elec       q    Type
REMARK                         _______ _______ _______ _____ _____    ______ ____
ROOT
ATOM      1  C   UNL     1      -0.017   1.379   0.010  0.00  0.00    +0.002 A 
ATOM      2  C   UNL     1       1.170   2.087   0.002  0.00  0.00    +0.004 A 
ATOM      3  C   UNL     1       2.381   1.420  -0.012  0.00  0.00    +0.047 A 
ATOM      4  C   UNL     1       2.410   0.034  -0.018  0.00  0.00    +0.143 A 
ATOM      5  C   UNL     1       1.213  -0.678  -0.013  0.00  0.00    +0.073 A 
ATOM      6  C   UNL     1       0.002  -0.004   0.002  0.00  0.00    +0.027 A 
ATOM      7  N   UNL     1       1.237  -2.082  -0.028  0.00  0.00    -0.314 N 
ATOM      8  C   UNL     1       2.518  -2.747   0.265  0.00  0.00    +0.160 C 
ATOM      9  C   UNL     1       3.622  -1.974  -0.470  0.00  0.00    +0.276 C 
ATOM     10  O   UNL     1       3.605  -0.615  -0.027  0.00  0.00    -0.476 OA
ENDROOT
BRANCH   9  11
ATOM     11  C   UNL     1       4.962  -2.591  -0.163  0.00  0.00    +0.258 C 
ATOM     12  O   UNL     1       5.793  -1.959   0.454  0.00  0.00    -0.271 OA
ATOM     13  N   UNL     1       5.236  -3.845  -0.573  0.00  0.00    -0.298 N 
ATOM     14  C   UNL     1       4.240  -4.621  -1.325  0.00  0.00    +0.108 C 
ATOM     15  C   UNL     1       4.884  -5.122  -2.622  0.00  0.00    +0.019 C 
ATOM     16  C   UNL     1       6.161  -5.896  -2.287  0.00  0.00    +0.003 C 
ATOM     17  C   UNL     1       7.153  -4.966  -1.584  0.00  0.00    +0.019 C 
ATOM     18  C   UNL     1       6.537  -4.461  -0.280  0.00  0.00    +0.108 C 
ENDBRANCH   9  11
BRANCH   7  19
ATOM     19  C   UNL     1       0.030  -2.857  -0.324  0.00  0.00    +0.201 C 
BRANCH  19  20
ATOM     20  C   UNL     1      -0.058  -3.103  -1.808  0.00  0.00    +0.231 C 
ATOM     21  O   UNL     1       0.803  -2.673  -2.546  0.00  0.00    -0.274 OA
ATOM     22  N   UNL     1      -1.093  -3.801  -2.316  0.00  0.00    -0.308 N 
ATOM     23  H   UNL     1      -1.782  -4.145  -1.726  0.00  0.00    +0.149 HD
BRANCH  22  24
ATOM     24  C   UNL     1      -1.178  -4.040  -3.759  0.00  0.00    +0.035 C 
ATOM     25  C   UNL     1      -1.239  -2.700  -4.495  0.00  0.00    +0.029 C 
ATOM     26  C   UNL     1      -1.328  -2.950  -6.002  0.00  0.00    -0.008 C 
ATOM     27  C   UNL     1      -2.589  -3.760  -6.311  0.00  0.00    +0.007 C 
ATOM     28  C   UNL     1      -2.528  -5.100  -5.575  0.00  0.00    -0.008 C 
ATOM     29  C   UNL     1      -2.439  -4.850  -4.068  0.00  0.00    +0.029 C 
ATOM     30  C   UNL     1      -1.294  -5.879  -6.036  0.00  0.00    +0.007 C 
ATOM     31  C   UNL     1      -0.034  -5.069  -5.727  0.00  0.00    -0.008 C 
ATOM     32  C   UNL     1      -0.095  -3.729  -6.463  0.00  0.00    +0.007 C 
ATOM     33  C   UNL     1       0.055  -4.819  -4.220  0.00  0.00    +0.029 C 
ENDBRANCH  22  24
ENDBRANCH  19  20
ENDBRANCH   7  19
TORSDOF 4
