REMARK  Name = ZINC02962312
REMARK  9 active torsions:
REMARK  status: ('A' for Active; 'I' for Inactive)
REMARK    1  A    between atoms: C_1  and  C_2
REMARK    2  A    between atoms: C_7  and  N_8
REMARK    3  A    between atoms: N_8  and  C_9
REMARK    4  A    between atoms: C_10  and  C_26
REMARK    5  A    between atoms: C_11  and  N_25
REMARK    6  A    between atoms: C_12  and  C_14
REMARK    7  A    between atoms: C_14  and  C_16
REMARK    8  A    between atoms: C_19  and  N_22
REMARK    9  A    between atoms: N_28  and  C_29
REMARK                            x       y       z     vdW  Elec       q    Type
REMARK                         _______ _______ _______ _____ _____    ______ ____
ROOT
ATOM      1  C   UNL     1       2.100   2.484   1.034  0.00  0.00    +0.084 A 
ATOM      2  C   UNL     1       1.414   1.822   0.010  0.00  0.00    +0.087 A 
ATOM      3  C   UNL     1       1.796   2.084  -1.303  0.00  0.00    +0.057 A 
ATOM      4  C   UNL     1       2.830   3.000  -1.489  0.00  0.00    +0.082 A 
ATOM      5  S   UNL     1       3.250   3.460   0.181  0.00  0.00    -0.068 S 
ENDROOT
BRANCH   2   6
ATOM      6  C   UNL     1       0.333   0.879   0.309  0.00  0.00    +0.252 C 
ATOM      7  O   UNL     1      -0.815   1.275   0.388  0.00  0.00    -0.270 OA
ATOM      8  N   UNL     1       0.610  -0.427   0.493  0.00  0.00    -0.281 N 
ATOM      9  H   UNL     1       1.634  -0.799   0.338  0.00  0.00    +0.155 HD
BRANCH   8  10
ATOM     10  C   UNL     1      -0.404  -1.309   0.880  0.00  0.00    +0.034 A 
ATOM     11  C   UNL     1      -0.421  -2.608   0.388  0.00  0.00    +0.023 A 
ATOM     12  C   UNL     1      -1.421  -3.478   0.776  0.00  0.00    +0.002 A 
ATOM     13  C   UNL     1      -2.410  -3.054   1.644  0.00  0.00    +0.000 A 
ATOM     14  C   UNL     1      -2.399  -1.760   2.132  0.00  0.00    +0.002 A 
ATOM     15  C   UNL     1      -1.399  -0.887   1.752  0.00  0.00    +0.023 A 
ENDBRANCH   8  10
ENDBRANCH   2   6
BRANCH   3  16
ATOM     16  N   UNL     1       1.172   1.467  -2.375  0.00  0.00    -0.356 N 
ATOM     17  H   UNL     1       1.494   1.693  -3.402  0.00  0.00    +0.142 HD
ATOM     18  H   UNL     1       0.356   0.752  -2.199  0.00  0.00    +0.142 HD
ENDBRANCH   3  16
BRANCH   1  19
ATOM     19  N   UNL     1       1.908   2.384   2.392  0.00  0.00    -0.308 N 
ATOM     20  H   UNL     1       1.065   1.797   2.786  0.00  0.00    +0.153 HD
BRANCH  19  27
ATOM     21  C   UNL     1       0.831   3.514   4.771  0.00  0.00    +0.045 C 
ATOM     22  C   UNL     1       2.300   3.594   4.444  0.00  0.00    -0.029 A 
ATOM     23  C   UNL     1       3.168   4.225   5.313  0.00  0.00    +0.005 A 
ATOM     24  C   UNL     1       4.516   4.303   5.011  0.00  0.00    +0.000 A 
ATOM     25  C   UNL     1       4.999   3.746   3.841  0.00  0.00    +0.002 A 
ATOM     26  C   UNL     1       4.137   3.109   2.970  0.00  0.00    +0.023 A 
ATOM     27  C   UNL     1       2.783   3.028   3.271  0.00  0.00    +0.035 A 
ENDBRANCH  19  27
ENDBRANCH   1  19
BRANCH   4  28
ATOM     28  C   UNL     1       3.403   3.446  -2.695  0.00  0.00    +0.202 C 
ATOM     29  O   UNL     1       3.081   2.928  -3.751  0.00  0.00    -0.286 OA
BRANCH  28  30
ATOM     30  C   UNL     1       4.397   4.542  -2.681  0.00  0.00    +0.023 A 
ATOM     31  C   UNL     1       4.362   5.507  -1.673  0.00  0.00    +0.014 A 
ATOM     32  C   UNL     1       5.295   6.523  -1.662  0.00  0.00    +0.033 A 
ATOM     33  C   UNL     1       6.256   6.595  -2.655  0.00  0.00    +0.126 A 
ATOM     34  C   UNL     1       6.293   5.645  -3.660  0.00  0.00    +0.033 A 
ATOM     35  C   UNL     1       5.369   4.620  -3.679  0.00  0.00    +0.014 A 
BRANCH  33  36
ATOM     36  N   UNL     1       7.250   7.691  -2.641  0.00  0.00    +0.056 N 
ATOM     37  O   UNL     1       8.097   7.757  -3.513  0.00  0.00    -0.126 OA
ATOM     38  O   UNL     1       7.220   8.529  -1.757  0.00  0.00    -0.126 OA
ENDBRANCH  33  36
ENDBRANCH  28  30
ENDBRANCH   4  28
TORSDOF 8
