REMARK  Name = ZINC12045361
REMARK  7 active torsions:
REMARK  status: ('A' for Active; 'I' for Inactive)
REMARK    1  A    between atoms: C_1  and  C_2
REMARK    2  A    between atoms: C_5  and  S_13
REMARK    3  A    between atoms: N_6  and  C_7
REMARK    4  A    between atoms: S_13  and  C_14
REMARK    5  A    between atoms: C_14  and  C_15
REMARK    6  A    between atoms: N_20  and  C_21
REMARK    7  A    between atoms: C_27  and  C_29
REMARK                            x       y       z     vdW  Elec       q    Type
REMARK                         _______ _______ _______ _____ _____    ______ ____
ROOT
ATOM      1  C   UNL     1       0.095  -6.239   0.999  0.00  0.00    +0.231 C 
ATOM      2  O   UNL     1       0.101  -6.300   2.210  0.00  0.00    -0.274 OA
ATOM      3  N   UNL     1       0.108  -7.370   0.267  0.00  0.00    -0.239 N 
ATOM      4  C   UNL     1       0.128  -8.570   0.881  0.00  0.00    +0.306 C 
ATOM      5  O   UNL     1       0.134  -8.631   2.095  0.00  0.00    -0.252 OA
ATOM      6  N   UNL     1       0.141  -9.701   0.149  0.00  0.00    -0.296 N 
ATOM      7  H   UNL     1       0.104  -7.321  -0.701  0.00  0.00    +0.159 HD
ATOM      8  H   UNL     1       0.137  -9.653  -0.819  0.00  0.00    +0.151 HD
ENDROOT
BRANCH   6   9
ATOM      9  C   UNL     1       0.163 -11.005   0.817  0.00  0.00    +0.077 C 
ATOM     10  C   UNL     1       1.607 -11.382   1.155  0.00  0.00    +0.022 C 
ATOM     11  C   UNL     1       1.629 -12.743   1.853  0.00  0.00    +0.002 C 
ATOM     12  C   UNL     1       1.031 -13.802   0.923  0.00  0.00    +0.000 C 
ATOM     13  C   UNL     1      -0.413 -13.426   0.585  0.00  0.00    +0.005 C 
ATOM     14  C   UNL     1      -0.436 -12.064  -0.112  0.00  0.00    +0.006 C 
ATOM     15  C   UNL     1      -1.879 -11.688  -0.451  0.00  0.00    +0.009 C 
ENDBRANCH   6   9
BRANCH   1  16
ATOM     16  C   UNL     1       0.073  -4.897   0.313  0.00  0.00    +0.173 C 
BRANCH  16  17
ATOM     17  S   UNL     1       0.059  -3.580   1.560  0.00  0.00    -0.077 S 
BRANCH  17  22
ATOM     18  C   UNL     1      -0.018   1.503   0.010  0.00  0.00    +0.088 C 
ATOM     19  C   UNL     1       0.002  -0.004   0.002  0.00  0.00    +0.131 A 
ATOM     20  N   UNL     1       0.008  -0.770  -1.052  0.00  0.00    -0.134 NA
ATOM     21  N   UNL     1       0.027  -2.006  -0.699  0.00  0.00    -0.122 NA
ATOM     22  C   UNL     1       0.034  -2.095   0.611  0.00  0.00    +0.192 A 
ATOM     23  N   UNL     1       0.024  -0.820   1.099  0.00  0.00    -0.303 N 
BRANCH  23  24
ATOM     24  C   UNL     1       0.031  -0.411   2.506  0.00  0.00    +0.091 C 
ATOM     25  C   UNL     1       1.294  -0.944   3.186  0.00  0.00    +0.025 C 
ATOM     26  C   UNL     1       1.301  -0.517   4.655  0.00  0.00    +0.002 C 
ATOM     27  C   UNL     1       0.066  -1.085   5.357  0.00  0.00    +0.000 C 
ATOM     28  C   UNL     1      -1.197  -0.552   4.677  0.00  0.00    +0.002 C 
ATOM     29  C   UNL     1      -1.204  -0.979   3.208  0.00  0.00    +0.025 C 
ENDBRANCH  23  24
ENDBRANCH  17  22
ENDBRANCH  16  17
ENDBRANCH   1  16
TORSDOF 5
