REMARK  Name = ZINC04125682
REMARK  5 active torsions:
REMARK  status: ('A' for Active; 'I' for Inactive)
REMARK    1  A    between atoms: C_4  and  C_30
REMARK    2  A    between atoms: C_5  and  C_7
REMARK    3  A    between atoms: C_11  and  C_21
REMARK    4  A    between atoms: C_16  and  N_20
REMARK    5  A    between atoms: C_17  and  C_18
REMARK                            x       y       z     vdW  Elec       q    Type
REMARK                         _______ _______ _______ _____ _____    ______ ____
ROOT
ATOM      1  C   UNL     1       0.813  -0.749   0.315  0.00  0.00    +0.083 C 
ATOM      2  C   UNL     1       0.536  -1.907   1.280  0.00  0.00    +0.140 C 
ATOM      3  C   UNL     1       0.722  -1.468   2.714  0.00  0.00    +0.084 C 
ATOM      4  N   UNL     1      -0.451  -1.571   3.279  0.00  0.00    -0.150 NA
ATOM      5  N   UNL     1      -1.433  -1.997   2.385  0.00  0.00    -0.115 NA
ATOM      6  C   UNL     1      -0.963  -2.178   1.188  0.00  0.00    +0.227 C 
ATOM      7  O   UNL     1      -1.552  -2.460   0.005  0.00  0.00    -0.425 OA
ATOM      8  C   UNL     1      -1.060  -1.756  -1.046  0.00  0.00    +0.200 C 
ATOM      9  C   UNL     1       0.030  -0.964  -0.952  0.00  0.00    +0.095 C 
ENDROOT
BRANCH   3  10
ATOM     10  C   UNL     1       1.972  -1.018   3.346  0.00  0.00    +0.002 A 
ATOM     11  C   UNL     1       3.201  -1.521   2.908  0.00  0.00    +0.013 A 
ATOM     12  C   UNL     1       4.370  -1.097   3.502  0.00  0.00    +0.050 A 
ATOM     13  C   UNL     1       4.333  -0.170   4.535  0.00  0.00    +0.166 A 
ATOM     14  C   UNL     1       3.111   0.336   4.977  0.00  0.00    +0.167 A 
ATOM     15  C   UNL     1       1.935  -0.080   4.383  0.00  0.00    +0.059 A 
ATOM     16  O   UNL     1       3.347   1.220   5.991  0.00  0.00    -0.453 OA
ATOM     17  C   UNL     1       4.687   0.943   6.438  0.00  0.00    +0.466 C 
ATOM     18  O   UNL     1       5.331   0.398   5.272  0.00  0.00    -0.453 OA
ENDBRANCH   3  10
BRANCH   1  23
ATOM     19  C   UNL     1      -1.283   1.893   2.012  0.00  0.00    +0.000 A 
ATOM     20  C   UNL     1      -0.379   2.934   2.122  0.00  0.00    +0.001 A 
ATOM     21  C   UNL     1       0.910   2.783   1.646  0.00  0.00    +0.012 A 
ATOM     22  C   UNL     1       1.296   1.591   1.062  0.00  0.00    +0.059 A 
ATOM     23  C   UNL     1       0.393   0.550   0.953  0.00  0.00    -0.026 A 
ATOM     24  C   UNL     1      -0.897   0.702   1.427  0.00  0.00    +0.005 A 
BRANCH  22  25
ATOM     25  C   UNL     1       2.701   1.427   0.542  0.00  0.00    +0.418 C 
ATOM     26  F   UNL     1       3.440   2.580   0.825  0.00  0.00    -0.166 F 
ATOM     27  F   UNL     1       3.301   0.325   1.161  0.00  0.00    -0.166 F 
ATOM     28  F   UNL     1       2.666   1.222  -0.841  0.00  0.00    -0.166 F 
ENDBRANCH  22  25
ENDBRANCH   1  23
BRANCH   8  29
ATOM     29  N   UNL     1      -1.698  -1.852  -2.258  0.00  0.00    -0.328 N 
ATOM     30  H   UNL     1      -2.483  -2.415  -2.349  0.00  0.00    +0.145 HD
ATOM     31  H   UNL     1      -1.364  -1.358  -3.023  0.00  0.00    +0.145 HD
ENDBRANCH   8  29
BRANCH   9  32
ATOM     32  C   UNL     1       0.469  -0.284  -2.134  0.00  0.00    +0.100 C 
ATOM     33  N   UNL     1       0.818   0.255  -3.071  0.00  0.00    -0.191 NA
ENDBRANCH   9  32
TORSDOF 5
