REMARK  Name = ZINC09814948
REMARK  9 active torsions:
REMARK  status: ('A' for Active; 'I' for Inactive)
REMARK    1  A    between atoms: C_1  and  C_2
REMARK    2  A    between atoms: C_2  and  C_31
REMARK    3  A    between atoms: N_5  and  C_9
REMARK    4  A    between atoms: C_9  and  C_10
REMARK    5  A    between atoms: N_12  and  C_13
REMARK    6  A    between atoms: N_12  and  C_14
REMARK    7  A    between atoms: C_15  and  N_30
REMARK    8  A    between atoms: N_16  and  C_23
REMARK    9  A    between atoms: C_23  and  C_24
REMARK                            x       y       z     vdW  Elec       q    Type
REMARK                         _______ _______ _______ _____ _____    ______ ____
ROOT
ATOM      1  C   UNL     1      -4.203   1.221   3.423  0.00  0.00    +0.139 A 
ATOM      2  C   UNL     1      -2.975   1.725   3.045  0.00  0.00    +0.128 A 
ATOM      3  N   UNL     1      -2.080   0.901   2.403  0.00  0.00    -0.276 N 
ATOM      4  C   UNL     1      -2.399  -0.379   2.142  0.00  0.00    +0.331 A 
ATOM      5  O   UNL     1      -1.596  -1.090   1.570  0.00  0.00    -0.246 OA
ATOM      6  N   UNL     1      -3.589  -0.889   2.508  0.00  0.00    -0.273 N 
ATOM      7  H   UNL     1      -3.798  -1.847   2.310  0.00  0.00    +0.173 HD
ATOM      8  C   UNL     1      -4.501  -0.125   3.139  0.00  0.00    +0.277 A 
ATOM      9  O   UNL     1      -5.579  -0.596   3.462  0.00  0.00    -0.266 OA
ENDROOT
BRANCH   1  12
ATOM     10  C   UNL     1      -5.491   1.777   5.359  0.00  0.00    +0.238 C 
ATOM     11  O   UNL     1      -4.924   0.897   5.972  0.00  0.00    -0.274 OA
ATOM     12  N   UNL     1      -5.143   2.041   4.082  0.00  0.00    -0.266 N 
ATOM     13  C   UNL     1      -5.742   3.179   3.380  0.00  0.00    +0.138 C 
BRANCH  10  14
ATOM     14  C   UNL     1      -6.583   2.576   6.023  0.00  0.00    +0.214 C 
BRANCH  14  19
ATOM     15  C   UNL     1      -5.478   1.037  10.323  0.00  0.00    +0.042 C 
ATOM     16  C   UNL     1      -6.620   1.806   9.656  0.00  0.00    +0.113 C 
ATOM     17  C   UNL     1      -6.109   2.590   8.464  0.00  0.00    +0.247 C 
ATOM     18  O   UNL     1      -5.279   3.474   8.469  0.00  0.00    -0.273 OA
ATOM     19  N   UNL     1      -6.769   2.100   7.396  0.00  0.00    -0.215 N 
ATOM     20  C   UNL     1      -7.620   1.128   7.745  0.00  0.00    +0.310 C 
ATOM     21  O   UNL     1      -8.331   0.536   6.957  0.00  0.00    -0.252 OA
ATOM     22  N   UNL     1      -7.600   0.878   9.067  0.00  0.00    -0.285 N 
ATOM     23  H   UNL     1      -8.130   0.218   9.540  0.00  0.00    +0.151 HD
BRANCH  16  24
ATOM     24  C   UNL     1      -7.298   2.738  10.663  0.00  0.00    +0.021 C 
ATOM     25  C   UNL     1      -6.545   3.047  11.959  0.00  0.00    +0.006 C 
ATOM     26  C   UNL     1      -7.769   2.128  11.985  0.00  0.00    +0.006 C 
ENDBRANCH  16  24
ENDBRANCH  14  19
ENDBRANCH  10  14
ENDBRANCH   1  12
BRANCH   2  27
ATOM     27  N   UNL     1      -2.651   3.035   3.307  0.00  0.00    -0.343 N 
ATOM     28  H   UNL     1      -1.763   3.365   3.099  0.00  0.00    +0.144 HD
ATOM     29  H   UNL     1      -3.310   3.629   3.699  0.00  0.00    +0.144 HD
ENDBRANCH   2  27
BRANCH   3  30
ATOM     30  C   UNL     1      -0.773   1.423   1.996  0.00  0.00    +0.163 C 
BRANCH  30  31
ATOM     31  C   UNL     1       0.220   1.217   3.111  0.00  0.00    -0.028 A 
ATOM     32  C   UNL     1       0.961   0.052   3.170  0.00  0.00    +0.005 A 
ATOM     33  C   UNL     1       1.876  -0.135   4.189  0.00  0.00    +0.000 A 
ATOM     34  C   UNL     1       2.045   0.841   5.154  0.00  0.00    +0.000 A 
ATOM     35  C   UNL     1       1.300   2.004   5.098  0.00  0.00    +0.000 A 
ATOM     36  C   UNL     1       0.385   2.191   4.079  0.00  0.00    +0.005 A 
ENDBRANCH  30  31
ENDBRANCH   3  30
TORSDOF 7
