REMARK  Name = ZINC51545220
REMARK  7 active torsions:
REMARK  status: ('A' for Active; 'I' for Inactive)
REMARK    1  A    between atoms: C_1  and  C_2
REMARK    2  A    between atoms: C_2  and  C_3
REMARK    3  A    between atoms: C_2  and  N_4
REMARK    4  A    between atoms: N_4  and  C_5
REMARK    5  A    between atoms: C_5  and  C_6
REMARK    6  A    between atoms: C_9  and  O_12
REMARK    7  A    between atoms: O_12  and  C_13
REMARK                            x       y       z     vdW  Elec       q    Type
REMARK                         _______ _______ _______ _____ _____    ______ ____
ROOT
ATOM      1  C   UNL     1      -2.865  -2.268  -0.087  0.00  0.00    +0.047 A 
ATOM      2  C   UNL     1      -3.576  -2.379  -1.273  0.00  0.00    +0.028 A 
ATOM      3  C   UNL     1      -4.846  -2.934  -1.221  0.00  0.00    +0.071 A 
ATOM      4  C   UNL     1      -5.327  -3.347   0.019  0.00  0.00    +0.240 A 
ATOM      5  N   UNL     1      -4.573  -3.200   1.097  0.00  0.00    -0.111 NA
ATOM      6  N   UNL     1      -3.397  -2.690   1.043  0.00  0.00    -0.153 NA
ENDROOT
BRANCH   1   7
ATOM      7  C   UNL     1      -1.481  -1.671  -0.091  0.00  0.00    -0.024 C 
BRANCH   7   8
ATOM      8  N   UNL     1      -1.563  -0.242   0.240  0.00  0.00    +0.384 N 
ATOM      9  H   UNL     1      -1.974  -0.132   1.155  0.00  0.00    -0.085 HD
ATOM     10  H   UNL     1      -2.135   0.230  -0.444  0.00  0.00    -0.085 HD
BRANCH   8  12
ATOM     11  C   UNL     1      -0.310   1.851   0.458  0.00  0.00    -0.014 C 
ATOM     12  C   UNL     1      -0.214   0.340   0.236  0.00  0.00    -0.078 C 
ATOM     13  C   UNL     1       0.616  -0.288   1.357  0.00  0.00    -0.014 C 
ENDBRANCH   8  12
ENDBRANCH   7   8
ENDBRANCH   1   7
BRANCH   4  14
ATOM     14  O   UNL     1      -6.563  -3.896   0.122  0.00  0.00    -0.435 OA
BRANCH  14  15
ATOM     15  C   UNL     1      -7.032  -4.185   1.365  0.00  0.00    +0.150 A 
ATOM     16  C   UNL     1      -6.866  -5.458   1.891  0.00  0.00    +0.069 A 
ATOM     17  C   UNL     1      -7.344  -5.750   3.155  0.00  0.00    +0.063 A 
ATOM     18  C   UNL     1      -7.987  -4.773   3.896  0.00  0.00    +0.061 A 
ATOM     19  C   UNL     1      -8.155  -3.503   3.372  0.00  0.00    +0.045 A 
ATOM     20  C   UNL     1      -7.673  -3.206   2.111  0.00  0.00    +0.085 A 
ATOM     21 CL   UNL     1      -7.876  -1.610   1.458  0.00  0.00    -0.080 Cl
ATOM     22 CL   UNL     1      -8.586  -5.142   5.483  0.00  0.00    -0.082 Cl
ATOM     23 CL   UNL     1      -7.137  -7.343   3.813  0.00  0.00    -0.082 Cl
ENDBRANCH  14  15
ENDBRANCH   4  14
TORSDOF 5
