REMARK  Name = ZINC51330786
REMARK  6 active torsions:
REMARK  status: ('A' for Active; 'I' for Inactive)
REMARK    1  A    between atoms: C_1  and  C_2
REMARK    2  A    between atoms: C_2  and  C_3
REMARK    3  A    between atoms: C_2  and  C_4
REMARK    4  A    between atoms: C_4  and  C_6
REMARK    5  A    between atoms: C_4  and  N_9
REMARK    6  A    between atoms: C_13  and  C_14
REMARK                            x       y       z     vdW  Elec       q    Type
REMARK                         _______ _______ _______ _____ _____    ______ ____
ROOT
ATOM      1  N   UNL     1       2.070   0.114  -1.277  0.00  0.00    -0.241 N 
ATOM      2  C   UNL     1       3.068  -0.744  -1.402  0.00  0.00    +0.259 C 
ATOM      3  O   UNL     1       2.873  -1.941  -1.506  0.00  0.00    -0.269 OA
ATOM      4  C   UNL     1       4.430  -0.179  -1.408  0.00  0.00    +0.077 C 
ATOM      5  C   UNL     1       5.630  -0.809  -1.520  0.00  0.00    +0.033 C 
ATOM      6  S   UNL     1       4.071   1.563  -1.228  0.00  0.00    -0.061 S 
ATOM      7  C   UNL     1       2.290   1.440  -1.167  0.00  0.00    +0.121 C 
ATOM      8  S   UNL     1       1.142   2.699  -1.005  0.00  0.00    -0.027 S 
ENDROOT
BRANCH   5   9
ATOM      9  C   UNL     1       6.862  -0.025  -1.625  0.00  0.00    +0.041 A 
ATOM     10  C   UNL     1       6.936   1.053  -2.496  0.00  0.00    +0.023 A 
ATOM     11  C   UNL     1       8.138   1.790  -2.575  0.00  0.00    +0.003 A 
ATOM     12  C   UNL     1       8.239   2.886  -3.451  0.00  0.00    +0.059 A 
ATOM     13  C   UNL     1       9.403   3.596  -3.526  0.00  0.00    +0.167 A 
ATOM     14  C   UNL     1      10.502   3.239  -2.733  0.00  0.00    +0.168 A 
ATOM     15  C   UNL     1      10.419   2.164  -1.866  0.00  0.00    +0.075 A 
ATOM     16  C   UNL     1       9.243   1.429  -1.777  0.00  0.00    +0.053 A 
ATOM     17  N   UNL     1       9.164   0.356  -0.912  0.00  0.00    -0.322 N 
ATOM     18  H   UNL     1       9.933   0.122  -0.369  0.00  0.00    +0.169 HD
ATOM     19  C   UNL     1       8.033  -0.366  -0.806  0.00  0.00    +0.256 A 
ATOM     20  O   UNL     1       7.982  -1.307  -0.034  0.00  0.00    -0.267 OA
ATOM     21  O   UNL     1      11.525   4.101  -3.000  0.00  0.00    -0.453 OA
ATOM     22  C   UNL     1      11.187   4.726  -4.251  0.00  0.00    +0.466 C 
ATOM     23  O   UNL     1       9.749   4.679  -4.283  0.00  0.00    -0.453 OA
ENDBRANCH   5   9
BRANCH   1  24
ATOM     24  C   UNL     1       0.693  -0.387  -1.264  0.00  0.00    +0.198 C 
BRANCH  24  26
ATOM     25  C   UNL     1      -1.038  -1.610  -2.588  0.00  0.00    +0.009 C 
ATOM     26  C   UNL     1       0.439  -1.211  -2.527  0.00  0.00    +0.015 C 
ATOM     27  C   UNL     1       0.793  -0.378  -3.761  0.00  0.00    +0.009 C 
ENDBRANCH  24  26
BRANCH  24  28
ATOM     28  C   UNL     1       0.485  -1.253  -0.048  0.00  0.00    +0.377 C 
ATOM     29  O   UNL     1       1.439  -1.585   0.634  0.00  0.00    -0.244 OA
ATOM     30  O   UNL     1      -0.638  -1.621   0.252  0.00  0.00    -0.244 OA
ENDBRANCH  24  28
ENDBRANCH   1  24
TORSDOF 4
