REMARK  Name = ZINC61951520
REMARK  5 active torsions:
REMARK  status: ('A' for Active; 'I' for Inactive)
REMARK    1  A    between atoms: C_1  and  N_2
REMARK    2  A    between atoms: N_2  and  C_3
REMARK    3  A    between atoms: C_7  and  C_9
REMARK    4  A    between atoms: N_10  and  O_11
REMARK    5  A    between atoms: C_13  and  C_15
REMARK                            x       y       z     vdW  Elec       q    Type
REMARK                         _______ _______ _______ _____ _____    ______ ____
ROOT
ATOM      1  C   UNL     1       0.038  -0.589   1.273  0.00  0.00    +0.037 A 
ATOM      2  C   UNL     1       1.139  -0.392   2.098  0.00  0.00    +0.023 A 
ATOM      3  C   UNL     1       1.179  -0.967   3.354  0.00  0.00    +0.002 A 
ATOM      4  C   UNL     1       0.126  -1.741   3.797  0.00  0.00    +0.011 A 
ATOM      5  C   UNL     1      -0.984  -1.945   2.976  0.00  0.00    +0.019 A 
ATOM      6  C   UNL     1      -1.027  -1.360   1.712  0.00  0.00    +0.035 A 
ENDROOT
BRANCH   5   7
ATOM      7  C   UNL     1      -2.115  -2.775   3.449  0.00  0.00    +0.162 C 
ATOM      8  N   UNL     1      -3.148  -2.963   2.683  0.00  0.00    -0.072 NA
ATOM      9  N   UNL     1      -2.072  -3.351   4.708  0.00  0.00    -0.340 N 
ATOM     10  H   UNL     1      -1.301  -3.210   5.280  0.00  0.00    +0.144 HD
ATOM     11  H   UNL     1      -2.813  -3.895   5.018  0.00  0.00    +0.144 HD
BRANCH   8  12
ATOM     12  O   UNL     1      -4.230  -3.757   3.135  0.00  0.00    -0.408 OA
ATOM     13  H   UNL     1      -4.952  -3.840   2.496  0.00  0.00    +0.328 HD
ENDBRANCH   8  12
ENDBRANCH   5   7
BRANCH   1  15
ATOM     14  C   UNL     1      -0.033   1.454  -0.133  0.00  0.00    +0.138 C 
ATOM     15  N   UNL     1       0.002  -0.004   0.002  0.00  0.00    -0.272 N 
ATOM     16  C   UNL     1      -0.001  -0.783  -1.098  0.00  0.00    +0.248 C 
ATOM     17  O   UNL     1      -0.069  -1.989  -0.987  0.00  0.00    -0.272 OA
BRANCH  16  18
ATOM     18  C   UNL     1       0.082  -0.155  -2.466  0.00  0.00    +0.204 C 
ATOM     19  C   UNL     1       1.436   0.540  -2.627  0.00  0.00    +0.041 C 
ATOM     20  C   UNL     1       1.536   1.124  -4.040  0.00  0.00    +0.005 C 
ATOM     21  C   UNL     1       1.335  -0.001  -5.060  0.00  0.00    +0.028 C 
ATOM     22  C   UNL     1      -0.015  -0.676  -4.805  0.00  0.00    +0.161 C 
ATOM     23  O   UNL     1      -0.054  -1.169  -3.464  0.00  0.00    -0.367 OA
ENDBRANCH  16  18
ENDBRANCH   1  15
TORSDOF 4
