REMARK  Name = ZINC23972258
REMARK  8 active torsions:
REMARK  status: ('A' for Active; 'I' for Inactive)
REMARK    1  A    between atoms: C_1  and  C_2
REMARK    2  A    between atoms: C_7  and  N_8
REMARK    3  A    between atoms: C_9  and  C_11
REMARK    4  A    between atoms: C_11  and  C_13
REMARK    5  A    between atoms: C_11  and  S_14
REMARK    6  A    between atoms: S_14  and  C_15
REMARK    7  A    between atoms: C_18  and  C_21
REMARK    8  A    between atoms: N_19  and  N_20
REMARK                            x       y       z     vdW  Elec       q    Type
REMARK                         _______ _______ _______ _____ _____    ______ ____
ROOT
ATOM      1  C   UNL     1      -2.976   3.659   5.108  0.00  0.00    +0.137 C 
ATOM      2  C   UNL     1      -1.718   3.248   5.876  0.00  0.00    +0.029 C 
ENDROOT
BRANCH   1   4
ATOM      3  N   UNL     1      -4.580   4.144   6.928  0.00  0.00    -0.284 N 
ATOM      4  C   UNL     1      -3.786   4.614   5.945  0.00  0.00    +0.230 C 
ATOM      5  O   UNL     1      -3.724   5.808   5.736  0.00  0.00    -0.274 OA
ATOM      6  H   UNL     1      -4.707   3.059   7.059  0.00  0.00    +0.155 HD
BRANCH   3  13
ATOM      7  C   UNL     1      -6.958   3.257   8.213  0.00  0.00    +0.045 C 
ATOM      8  C   UNL     1      -6.406   4.643   8.427  0.00  0.00    -0.029 A 
ATOM      9  C   UNL     1      -7.058   5.524   9.267  0.00  0.00    +0.005 A 
ATOM     10  C   UNL     1      -6.551   6.796   9.464  0.00  0.00    +0.000 A 
ATOM     11  C   UNL     1      -5.392   7.189   8.822  0.00  0.00    +0.002 A 
ATOM     12  C   UNL     1      -4.733   6.310   7.984  0.00  0.00    +0.023 A 
ATOM     13  C   UNL     1      -5.242   5.034   7.779  0.00  0.00    +0.036 A 
ENDBRANCH   3  13
ENDBRANCH   1   4
BRANCH   1  14
ATOM     14  S   UNL     1      -2.501   4.467   3.560  0.00  0.00    -0.072 S 
BRANCH  14  15
ATOM     15  C   UNL     1      -1.722   3.118   2.736  0.00  0.00    +0.209 A 
ATOM     16  N   UNL     1      -1.576   1.899   3.202  0.00  0.00    -0.121 NA
ATOM     17  N   UNL     1      -0.962   1.172   2.337  0.00  0.00    -0.123 NA
ATOM     18  C   UNL     1      -0.683   1.877   1.278  0.00  0.00    +0.255 A 
ATOM     19  N   UNL     1      -1.152   3.143   1.496  0.00  0.00    -0.220 N 
BRANCH  18  20
ATOM     20  C   UNL     1       0.031   1.390   0.044  0.00  0.00    +0.454 C 
ATOM     21  F   UNL     1       0.057  -0.009   0.042  0.00  0.00    -0.163 F 
ATOM     22  F   UNL     1       1.341   1.880   0.038  0.00  0.00    -0.163 F 
ATOM     23  F   UNL     1      -0.642   1.845  -1.095  0.00  0.00    -0.163 F 
ENDBRANCH  18  20
BRANCH  19  24
ATOM     24  N   UNL     1      -1.070   4.210   0.648  0.00  0.00    -0.295 N 
ATOM     25  H   UNL     1      -0.582   4.099  -0.332  0.00  0.00    +0.163 HD
ATOM     26  H   UNL     1      -1.493   5.182   0.944  0.00  0.00    +0.163 HD
ENDBRANCH  19  24
ENDBRANCH  14  15
ENDBRANCH   1  14
TORSDOF 6
