REMARK  Name = ZINC39990777
REMARK  7 active torsions:
REMARK  status: ('A' for Active; 'I' for Inactive)
REMARK    1  A    between atoms: C_1  and  C_2
REMARK    2  A    between atoms: C_2  and  C_4
REMARK    3  A    between atoms: C_2  and  S_15
REMARK    4  A    between atoms: C_4  and  C_6
REMARK    5  A    between atoms: S_15  and  C_16
REMARK    6  A    between atoms: C_20  and  C_22
REMARK    7  A    between atoms: C_22  and  C_23
REMARK                            x       y       z     vdW  Elec       q    Type
REMARK                         _______ _______ _______ _____ _____    ______ ____
ROOT
ATOM      1  S   UNL     1      -1.700  -0.632   0.015  0.00  0.00    -0.085 S 
ENDROOT
BRANCH   1   2
ATOM      2  C   UNL     1      -2.384  -0.077  -1.571  0.00  0.00    +0.339 C 
ATOM      3  N   UNL     1      -1.560  -0.569  -2.689  0.00  0.00    -0.219 N 
ATOM      4  N   UNL     1      -1.086   0.583  -3.334  0.00  0.00    -0.150 NA
ATOM      5  C   UNL     1      -1.520   1.636  -2.746  0.00  0.00    +0.208 C 
ATOM      6  O   UNL     1      -2.307   1.352  -1.680  0.00  0.00    -0.446 OA
ATOM      7  H   UNL     1      -1.383  -1.492  -2.929  0.00  0.00    +0.173 HD
BRANCH   5   8
ATOM      8  C   UNL     1      -1.191   3.038  -3.192  0.00  0.00    +0.102 C 
BRANCH   8   9
ATOM      9  C   UNL     1      -0.285   2.982  -4.423  0.00  0.00    +0.020 C 
ATOM     10  C   UNL     1       1.078   2.384  -4.038  0.00  0.00    +0.028 C 
ATOM     11  C   UNL     1       2.098   2.616  -5.178  0.00  0.00    +0.166 C 
ATOM     12  S   UNL     1       1.474   4.154  -5.971  0.00  0.00    -0.031 S 
ATOM     13  O   UNL     1       2.390   5.210  -5.714  0.00  0.00    -0.174 OA
ATOM     14  O   UNL     1       1.099   3.864  -7.310  0.00  0.00    -0.174 OA
ATOM     15  C   UNL     1      -0.046   4.421  -4.965  0.00  0.00    +0.170 C 
ENDBRANCH   8   9
ENDBRANCH   5   8
ENDBRANCH   1   2
BRANCH   1  17
ATOM     16  C   UNL     1      -0.019   1.526   0.010  0.00  0.00    +0.027 C 
ATOM     17  C   UNL     1       0.002  -0.004   0.002  0.00  0.00    +0.119 C 
BRANCH  17  18
ATOM     18  C   UNL     1       0.731  -0.503   1.223  0.00  0.00    +0.174 C 
ATOM     19  O   UNL     1       0.108  -0.806   2.220  0.00  0.00    -0.291 OA
BRANCH  18  20
ATOM     20  C   UNL     1       2.137  -0.619   1.207  0.00  0.00    +0.024 C 
ATOM     21  C   UNL     1       2.952  -1.062   2.233  0.00  0.00    +0.006 A 
ATOM     22  C   UNL     1       2.684  -1.515   3.547  0.00  0.00    +0.010 A 
ATOM     23  C   UNL     1       3.699  -1.896   4.356  0.00  0.00    +0.001 A 
ATOM     24  C   UNL     1       5.041  -1.864   3.947  0.00  0.00    +0.002 A 
ATOM     25  C   UNL     1       5.404  -1.448   2.714  0.00  0.00    +0.026 A 
ATOM     26  C   UNL     1       4.360  -1.016   1.770  0.00  0.00    +0.043 A 
ATOM     27  N   UNL     1       4.424  -0.577   0.545  0.00  0.00    -0.380 N 
ATOM     28  C   UNL     1       3.069  -0.290   0.061  0.00  0.00    +0.152 C 
ATOM     29  H   UNL     1       5.239  -0.461   0.032  0.00  0.00    +0.160 HD
ENDBRANCH  18  20
ENDBRANCH  17  18
ENDBRANCH   1  17
TORSDOF 6
