REMARK  Name = ZINC58414576
REMARK  7 active torsions:
REMARK  status: ('A' for Active; 'I' for Inactive)
REMARK    1  A    between atoms: C_3  and  O_25
REMARK    2  A    between atoms: C_6  and  C_7
REMARK    3  A    between atoms: C_8  and  C_9
REMARK    4  A    between atoms: N_11  and  C_12
REMARK    5  A    between atoms: C_12  and  C_13
REMARK    6  A    between atoms: O_25  and  C_26
REMARK    7  A    between atoms: C_26  and  C_27
REMARK                            x       y       z     vdW  Elec       q    Type
REMARK                         _______ _______ _______ _____ _____    ______ ____
ROOT
ATOM      1  C   UNL     1      -2.585  -2.848   0.030  0.00  0.00    +0.237 C 
ATOM      2  O   UNL     1      -3.659  -2.276   0.033  0.00  0.00    -0.271 OA
ATOM      3  N   UNL     1      -2.539  -4.195   0.020  0.00  0.00    -0.308 N 
ATOM      4  H   UNL     1      -1.683  -4.651   0.017  0.00  0.00    +0.149 HD
ENDROOT
BRANCH   1   6
ATOM      5  C   UNL     1      -1.390  -0.725   0.048  0.00  0.00    +0.013 C 
ATOM      6  C   UNL     1      -1.344  -2.074   0.037  0.00  0.00    +0.068 C 
BRANCH   5  12
ATOM      7  C   UNL     1      -0.188   1.452   0.065  0.00  0.00    +0.011 A 
ATOM      8  C   UNL     1       0.983   2.176   0.073  0.00  0.00    +0.046 A 
ATOM      9  C   UNL     1       2.209   1.519   0.070  0.00  0.00    +0.121 A 
ATOM     10  C   UNL     1       2.259   0.130   0.059  0.00  0.00    +0.046 A 
ATOM     11  C   UNL     1       1.094  -0.603   0.051  0.00  0.00    +0.011 A 
ATOM     12  C   UNL     1      -0.143   0.053   0.055  0.00  0.00    -0.025 A 
BRANCH   9  13
ATOM     13  O   UNL     1       3.360   2.238   0.077  0.00  0.00    -0.483 OA
BRANCH  13  14
ATOM     14  C   UNL     1       4.585   1.501   0.073  0.00  0.00    +0.324 C 
BRANCH  14  15
ATOM     15  C   UNL     1       5.748   2.459   0.082  0.00  0.00    +0.248 C 
ATOM     16  O   UNL     1       5.548   3.655   0.091  0.00  0.00    -0.272 OA
ATOM     17  N   UNL     1       7.010   1.986   0.081  0.00  0.00    -0.327 N 
ATOM     18  H   UNL     1       7.170   1.030   0.073  0.00  0.00    +0.145 HD
ATOM     19  H   UNL     1       7.759   2.603   0.086  0.00  0.00    +0.145 HD
ENDBRANCH  14  15
ENDBRANCH  13  14
ENDBRANCH   9  13
ENDBRANCH   5  12
ENDBRANCH   1   6
BRANCH   3  20
ATOM     20  C   UNL     1      -3.782  -4.970   0.012  0.00  0.00    +0.140 C 
BRANCH  20  21
ATOM     21  C   UNL     1      -3.457  -6.442   0.002  0.00  0.00    -0.026 A 
ATOM     22  C   UNL     1      -3.296  -7.125  -1.197  0.00  0.00    +0.023 A 
ATOM     23  C   UNL     1      -2.998  -8.472  -1.173  0.00  0.00    +0.084 A 
ATOM     24  N   UNL     1      -2.864  -9.115  -0.028  0.00  0.00    -0.350 N 
ATOM     25  C   UNL     1      -3.010  -8.500   1.135  0.00  0.00    +0.099 A 
ATOM     26  C   UNL     1      -3.305  -7.141   1.185  0.00  0.00    +0.047 A 
ATOM     27  N   UNL     1      -2.860  -9.216   2.317  0.00  0.00    -0.317 N 
ATOM     28  C   UNL     1      -2.672 -10.673   2.290  0.00  0.00    +0.106 C 
ATOM     29  C   UNL     1      -1.410 -11.022   3.086  0.00  0.00    +0.019 C 
ATOM     30  C   UNL     1      -1.518 -10.427   4.492  0.00  0.00    +0.003 C 
ATOM     31  C   UNL     1      -1.624  -8.904   4.397  0.00  0.00    +0.019 C 
ATOM     32  C   UNL     1      -2.882  -8.530   3.616  0.00  0.00    +0.106 C 
ATOM     33  H   UNL     1      -2.654 -10.062  -0.040  0.00  0.00    +0.166 HD
ENDBRANCH  20  21
ENDBRANCH   3  20
TORSDOF 7
