REMARK  Name = ZINC00538560
REMARK  7 active torsions:
REMARK  status: ('A' for Active; 'I' for Inactive)
REMARK    1  A    between atoms: C_1  and  C_2
REMARK    2  A    between atoms: C_7  and  C_8
REMARK    3  A    between atoms: C_10  and  C_25
REMARK    4  A    between atoms: C_11  and  N_24
REMARK    5  A    between atoms: C_13  and  C_18
REMARK    6  A    between atoms: C_14  and  C_15
REMARK    7  A    between atoms: C_15  and  C_17
REMARK                            x       y       z     vdW  Elec       q    Type
REMARK                         _______ _______ _______ _____ _____    ______ ____
ROOT
ATOM      1  C   UNL     1      -0.126   0.534   3.386  0.00  0.00    +0.102 C 
ATOM      2  C   UNL     1      -1.034  -0.441   4.084  0.00  0.00    +0.098 C 
ATOM      3  C   UNL     1      -0.546  -1.578   4.636  0.00  0.00    +0.199 C 
ATOM      4  O   UNL     1       0.763  -1.884   4.586  0.00  0.00    -0.440 OA
ATOM      5  C   UNL     1       1.667  -0.921   4.327  0.00  0.00    +0.145 C 
ATOM      6  C   UNL     1       1.305   0.257   3.755  0.00  0.00    +0.050 C 
ENDROOT
BRANCH   1  13
ATOM      7  C   UNL     1      -1.860   2.346   1.952  0.00  0.00    +0.044 C 
ATOM      8  C   UNL     1      -1.124   1.262   1.208  0.00  0.00    -0.046 A 
ATOM      9  C   UNL     1      -1.274   1.138  -0.160  0.00  0.00    +0.003 A 
ATOM     10  C   UNL     1      -0.598   0.143  -0.842  0.00  0.00    +0.000 A 
ATOM     11  C   UNL     1       0.228  -0.728  -0.155  0.00  0.00    +0.000 A 
ATOM     12  C   UNL     1       0.378  -0.603   1.213  0.00  0.00    +0.005 A 
ATOM     13  C   UNL     1      -0.294   0.395   1.895  0.00  0.00    -0.032 A 
ENDBRANCH   1  13
BRANCH   5  14
ATOM     14  C   UNL     1       3.082  -1.150   4.673  0.00  0.00    +0.018 A 
ATOM     15  C   UNL     1       3.458  -1.331   6.007  0.00  0.00    +0.011 A 
ATOM     16  C   UNL     1       4.784  -1.545   6.322  0.00  0.00    +0.001 A 
ATOM     17  C   UNL     1       5.740  -1.581   5.322  0.00  0.00    +0.000 A 
ATOM     18  C   UNL     1       5.374  -1.403   4.000  0.00  0.00    +0.001 A 
ATOM     19  C   UNL     1       4.052  -1.193   3.668  0.00  0.00    +0.011 A 
ENDBRANCH   5  14
BRANCH   6  20
ATOM     20  C   UNL     1       2.283   1.227   3.505  0.00  0.00    +0.161 C 
ATOM     21  O   UNL     1       3.417   1.066   3.911  0.00  0.00    -0.293 OA
ATOM     22  C   UNL     1       1.929   2.472   2.733  0.00  0.00    +0.091 C 
ENDBRANCH   6  20
BRANCH   3  23
ATOM     23  N   UNL     1      -1.410  -2.440   5.263  0.00  0.00    -0.328 N 
ATOM     24  H   UNL     1      -2.357  -2.232   5.306  0.00  0.00    +0.145 HD
ATOM     25  H   UNL     1      -1.075  -3.258   5.663  0.00  0.00    +0.145 HD
ENDBRANCH   3  23
BRANCH   2  26
ATOM     26  C   UNL     1      -2.436  -0.164   4.166  0.00  0.00    +0.101 C 
ATOM     27  N   UNL     1      -3.549   0.056   4.231  0.00  0.00    -0.191 NA
ENDBRANCH   2  26
TORSDOF 5
