REMARK  Name = ZINC37338844
REMARK  6 active torsions:
REMARK  status: ('A' for Active; 'I' for Inactive)
REMARK    1  A    between atoms: C_3  and  C_19
REMARK    2  A    between atoms: C_5  and  C_7
REMARK    3  A    between atoms: C_14  and  C_16
REMARK    4  A    between atoms: C_16  and  C_17
REMARK    5  A    between atoms: C_17  and  O_18
REMARK    6  A    between atoms: N_20  and  O_21
REMARK                            x       y       z     vdW  Elec       q    Type
REMARK                         _______ _______ _______ _____ _____    ______ ____
ROOT
ATOM      1  C   UNL     1       0.058   1.425   0.327  0.00  0.00    +0.001 A 
ATOM      2  C   UNL     1       1.030   2.054   1.079  0.00  0.00    +0.011 A 
ATOM      3  C   UNL     1       2.072   1.314   1.639  0.00  0.00    +0.018 A 
ATOM      4  C   UNL     1       2.130  -0.063   1.439  0.00  0.00    +0.024 A 
ATOM      5  C   UNL     1       1.147  -0.693   0.679  0.00  0.00    +0.038 A 
ATOM      6  C   UNL     1       0.109   0.060   0.124  0.00  0.00    +0.013 A 
ENDROOT
BRANCH   5   7
ATOM      7  C   UNL     1       1.201  -2.154   0.461  0.00  0.00    +0.247 C 
ATOM      8  O   UNL     1       2.275  -2.716   0.371  0.00  0.00    -0.270 OA
ATOM      9  N   UNL     1       0.059  -2.863   0.361  0.00  0.00    -0.294 N 
ATOM     10  C   UNL     1      -1.247  -2.192   0.416  0.00  0.00    +0.108 C 
ATOM     11  C   UNL     1      -2.099  -2.859   1.501  0.00  0.00    +0.019 C 
ATOM     12  C   UNL     1      -2.176  -4.363   1.230  0.00  0.00    +0.003 C 
ATOM     13  C   UNL     1      -0.770  -4.965   1.281  0.00  0.00    +0.022 C 
ATOM     14  C   UNL     1       0.097  -4.322   0.188  0.00  0.00    +0.078 C 
BRANCH  14  15
ATOM     15  C   UNL     1       1.539  -4.816   0.317  0.00  0.00    +0.050 C 
BRANCH  15  16
ATOM     16  C   UNL     1       1.570  -6.340   0.173  0.00  0.00    +0.157 C 
BRANCH  16  17
ATOM     17  O   UNL     1       2.926  -6.790   0.175  0.00  0.00    -0.395 OA
ATOM     18  H   UNL     1       3.022  -7.748   0.087  0.00  0.00    +0.209 HD
ENDBRANCH  16  17
ENDBRANCH  15  16
ENDBRANCH  14  15
ENDBRANCH   5   7
BRANCH   3  19
ATOM     19  C   UNL     1       3.114   1.990   2.445  0.00  0.00    +0.162 C 
ATOM     20  N   UNL     1       4.084   1.299   2.967  0.00  0.00    -0.072 NA
ATOM     21  N   UNL     1       3.055   3.360   2.643  0.00  0.00    -0.340 N 
ATOM     22  H   UNL     1       2.331   3.875   2.254  0.00  0.00    +0.144 HD
ATOM     23  H   UNL     1       3.737   3.803   3.171  0.00  0.00    +0.144 HD
BRANCH  20  24
ATOM     24  O   UNL     1       5.080   1.946   3.738  0.00  0.00    -0.408 OA
ATOM     25  H   UNL     1       5.759   1.351   4.083  0.00  0.00    +0.328 HD
ENDBRANCH  20  24
ENDBRANCH   3  19
TORSDOF 6
