REMARK  Name = ZINC00911952
REMARK  6 active torsions:
REMARK  status: ('A' for Active; 'I' for Inactive)
REMARK    1  A    between atoms: C_3  and  N_33
REMARK    2  A    between atoms: C_6  and  C_7
REMARK    3  A    between atoms: C_11  and  C_16
REMARK    4  A    between atoms: C_16  and  C_17
REMARK    5  A    between atoms: C_24  and  C_26
REMARK    6  A    between atoms: C_29  and  N_32
REMARK                            x       y       z     vdW  Elec       q    Type
REMARK                         _______ _______ _______ _____ _____    ______ ____
ROOT
ATOM      1  C   UNL     1       1.130   3.602   0.011  0.00  0.00    +0.070 C 
ENDROOT
BRANCH   1   6
ATOM      2  C   UNL     1       2.899  -2.068  -0.037  0.00  0.00    +0.228 A 
ATOM      3  N   UNL     1       3.421  -0.867  -0.035  0.00  0.00    -0.209 NA
ATOM      4  C   UNL     1       2.416   0.046  -0.021  0.00  0.00    +0.110 A 
ATOM      5  C   UNL     1       2.381   1.443  -0.013  0.00  0.00    +0.035 A 
ATOM      6  C   UNL     1       1.169   2.095   0.002  0.00  0.00    -0.041 A 
ATOM      7  C   UNL     1      -0.017   1.375   0.010  0.00  0.00    +0.008 A 
ATOM      8  C   UNL     1       0.002  -0.004   0.002  0.00  0.00    +0.049 A 
ATOM      9  C   UNL     1       1.213  -0.679  -0.013  0.00  0.00    +0.156 A 
ATOM     10  O   UNL     1       1.555  -1.986  -0.023  0.00  0.00    -0.435 OA
BRANCH   2  16
ATOM     11  C   UNL     1       5.067  -3.291  -0.069  0.00  0.00    +0.015 A 
ATOM     12  C   UNL     1       5.784  -4.467  -0.076  0.00  0.00    +0.023 A 
ATOM     13  C   UNL     1       5.119  -5.689  -0.076  0.00  0.00    +0.025 A 
ATOM     14  C   UNL     1       3.729  -5.728  -0.063  0.00  0.00    +0.023 A 
ATOM     15  C   UNL     1       3.006  -4.555  -0.051  0.00  0.00    +0.015 A 
ATOM     16  C   UNL     1       3.671  -3.326  -0.050  0.00  0.00    +0.037 A 
BRANCH  13  17
ATOM     17  N   UNL     1       5.848  -6.877  -0.090  0.00  0.00    -0.358 N 
ATOM     18  H   UNL     1       5.385  -7.729  -0.091  0.00  0.00    +0.142 HD
ATOM     19  H   UNL     1       6.817  -6.851  -0.099  0.00  0.00    +0.142 HD
ENDBRANCH  13  17
ENDBRANCH   2  16
ENDBRANCH   1   6
BRANCH   1  20
ATOM     20  C   UNL     1       1.131   4.096   1.434  0.00  0.00    -0.041 A 
ATOM     21  C   UNL     1       2.334   4.354   2.074  0.00  0.00    +0.008 A 
ATOM     22  C   UNL     1       2.352   4.806   3.377  0.00  0.00    +0.049 A 
ATOM     23  C   UNL     1       1.159   5.007   4.055  0.00  0.00    +0.156 A 
ATOM     24  C   UNL     1      -0.061   4.749   3.411  0.00  0.00    +0.110 A 
ATOM     25  C   UNL     1      -0.064   4.295   2.090  0.00  0.00    +0.035 A 
ATOM     26  N   UNL     1      -1.042   5.031   4.307  0.00  0.00    -0.209 NA
ATOM     27  C   UNL     1      -0.489   5.435   5.423  0.00  0.00    +0.228 A 
ATOM     28  O   UNL     1       0.852   5.431   5.301  0.00  0.00    -0.435 OA
BRANCH  27  29
ATOM     29  C   UNL     1      -1.227   5.834   6.638  0.00  0.00    +0.037 A 
ATOM     30  C   UNL     1      -2.624   5.803   6.650  0.00  0.00    +0.015 A 
ATOM     31  C   UNL     1      -3.310   6.171   7.786  0.00  0.00    +0.023 A 
ATOM     32  C   UNL     1      -2.613   6.584   8.918  0.00  0.00    +0.025 A 
ATOM     33  C   UNL     1      -1.222   6.621   8.907  0.00  0.00    +0.023 A 
ATOM     34  C   UNL     1      -0.531   6.249   7.776  0.00  0.00    +0.015 A 
BRANCH  32  35
ATOM     35  N   UNL     1      -3.310   6.962  10.064  0.00  0.00    -0.358 N 
ATOM     36  H   UNL     1      -2.825   7.250  10.853  0.00  0.00    +0.142 HD
ATOM     37  H   UNL     1      -4.279   6.936  10.072  0.00  0.00    +0.142 HD
ENDBRANCH  32  35
ENDBRANCH  27  29
ENDBRANCH   1  20
TORSDOF 6
