REMARK  Name = ZINC08879988
REMARK  10 active torsions:
REMARK  status: ('A' for Active; 'I' for Inactive)
REMARK    1  A    between atoms: C_1  and  C_2
REMARK    2  A    between atoms: C_2  and  O_3
REMARK    3  A    between atoms: O_3  and  C_4
REMARK    4  A    between atoms: C_4  and  C_6
REMARK    5  A    between atoms: C_7  and  C_30
REMARK    6  A    between atoms: C_8  and  S_27
REMARK    7  A    between atoms: C_9  and  N_11
REMARK    8  A    between atoms: C_12  and  C_14
REMARK    9  A    between atoms: C_17  and  N_20
REMARK   10  A    between atoms: S_27  and  C_28
REMARK                            x       y       z     vdW  Elec       q    Type
REMARK                         _______ _______ _______ _____ _____    ______ ____
ROOT
ATOM      1  N   UNL     1      -4.024   2.474   2.655  0.00  0.00    -0.275 N 
ATOM      2  C   UNL     1      -4.414   2.947   3.855  0.00  0.00    +0.249 C 
ATOM      3  O   UNL     1      -3.594   3.126   4.734  0.00  0.00    -0.270 OA
ATOM      4  H   UNL     1      -4.678   2.331   1.953  0.00  0.00    +0.156 HD
ENDROOT
BRANCH   1   8
ATOM      5  C   UNL     1      -0.014   1.786   2.428  0.00  0.00    +0.102 A 
ATOM      6  C   UNL     1      -0.730   1.496   1.272  0.00  0.00    -0.013 A 
ATOM      7  C   UNL     1      -2.084   1.707   1.270  0.00  0.00    +0.055 A 
ATOM      8  C   UNL     1      -2.684   2.190   2.423  0.00  0.00    +0.087 A 
ATOM      9  S   UNL     1      -1.295   2.361   3.530  0.00  0.00    -0.066 S 
ATOM     10  C   UNL     1      -0.031   0.967   0.046  0.00  0.00    +0.046 C 
BRANCH   5  11
ATOM     11  C   UNL     1       1.375   1.657   2.668  0.00  0.00    +0.346 C 
ATOM     12  O   UNL     1       2.109   1.243   1.790  0.00  0.00    -0.244 OA
BRANCH  11  13
ATOM     13  O   UNL     1       1.885   1.995   3.872  0.00  0.00    -0.461 OA
BRANCH  13  15
ATOM     14  C   UNL     1       3.685   2.269   5.460  0.00  0.00    +0.048 C 
ATOM     15  C   UNL     1       3.295   1.840   4.045  0.00  0.00    +0.229 C 
ENDBRANCH  13  15
ENDBRANCH  11  13
ENDBRANCH   5  11
BRANCH   7  16
ATOM     16  S   UNL     1      -3.043   1.366  -0.168  0.00  0.00    -0.008 S 
BRANCH  16  17
ATOM     17  C   UNL     1      -3.476  -0.363   0.146  0.00  0.00    +0.138 C 
ATOM     18  N   UNL     1      -3.747  -1.449   0.343  0.00  0.00    -0.183 NA
ENDBRANCH  16  17
ENDBRANCH   7  16
ENDBRANCH   1   8
BRANCH   2  19
ATOM     19  C   UNL     1      -5.838   3.249   4.101  0.00  0.00    +0.037 A 
ATOM     20  C   UNL     1      -6.782   3.049   3.090  0.00  0.00    +0.015 A 
ATOM     21  C   UNL     1      -8.110   3.327   3.325  0.00  0.00    +0.025 A 
ATOM     22  C   UNL     1      -8.511   3.816   4.564  0.00  0.00    +0.044 A 
ATOM     23  C   UNL     1      -7.574   4.021   5.571  0.00  0.00    +0.025 A 
ATOM     24  C   UNL     1      -6.245   3.740   5.345  0.00  0.00    +0.015 A 
BRANCH  22  25
ATOM     25  N   UNL     1      -9.859   4.102   4.797  0.00  0.00    -0.210 N 
ATOM     26  C   UNL     1     -10.611   3.400   5.654  0.00  0.00    +0.227 C 
ATOM     27  O   UNL     1     -10.229   2.458   6.314  0.00  0.00    -0.275 OA
ATOM     28  C   UNL     1     -12.012   3.972   5.671  0.00  0.00    +0.106 C 
ATOM     29  C   UNL     1     -11.941   5.132   4.656  0.00  0.00    +0.106 C 
ATOM     30  C   UNL     1     -10.506   5.097   4.178  0.00  0.00    +0.227 C 
ATOM     31  O   UNL     1     -10.020   5.851   3.362  0.00  0.00    -0.275 OA
ENDBRANCH  22  25
ENDBRANCH   2  19
TORSDOF 8
