REMARK  Name = ZINC04785795
REMARK  6 active torsions:
REMARK  status: ('A' for Active; 'I' for Inactive)
REMARK    1  A    between atoms: C_1  and  C_2
REMARK    2  A    between atoms: C_2  and  C_25
REMARK    3  A    between atoms: C_7  and  N_11
REMARK    4  A    between atoms: C_8  and  C_9
REMARK    5  A    between atoms: C_12  and  C_14
REMARK    6  A    between atoms: C_19  and  N_20
REMARK                            x       y       z     vdW  Elec       q    Type
REMARK                         _______ _______ _______ _____ _____    ______ ____
ROOT
ATOM      1  C   UNL     1       7.270   3.003  -0.098  0.00  0.00    +0.041 C 
ATOM      2  C   UNL     1       5.772   3.215  -0.325  0.00  0.00    +0.068 C 
ATOM      3  C   UNL     1       5.011   1.955   0.101  0.00  0.00    +0.071 C 
ATOM      4  C   UNL     1       3.521   2.280   0.093  0.00  0.00    -0.013 A 
ATOM      5  C   UNL     1       3.114   3.571   0.096  0.00  0.00    +0.022 A 
ATOM      6  S   UNL     1       1.349   3.487   0.083  0.00  0.00    -0.075 S 
ATOM      7  C   UNL     1       1.151   1.765   0.075  0.00  0.00    +0.090 A 
ATOM      8  C   UNL     1       2.458   1.296   0.088  0.00  0.00    +0.084 A 
ATOM      9  C   UNL     1       4.003   4.776   0.109  0.00  0.00    +0.203 C 
ATOM     10  O   UNL     1       5.331   4.340   0.440  0.00  0.00    -0.368 OA
ATOM     11  C   UNL     1       5.518   3.484  -1.810  0.00  0.00    +0.041 C 
ENDROOT
BRANCH   7  12
ATOM     12  N   UNL     1      -0.027   1.034   0.065  0.00  0.00    -0.275 N 
ATOM     13  C   UNL     1      -1.215   1.669   0.054  0.00  0.00    +0.251 C 
ATOM     14  O   UNL     1      -1.254   2.885   0.058  0.00  0.00    -0.270 OA
ATOM     15  H   UNL     1       0.004   0.064   0.062  0.00  0.00    +0.156 HD
BRANCH  13  16
ATOM     16  C   UNL     1      -2.471   0.890   0.036  0.00  0.00    +0.067 A 
ATOM     17  C   UNL     1      -2.714  -0.070   1.021  0.00  0.00    +0.015 A 
ATOM     18  C   UNL     1      -3.890  -0.790   1.002  0.00  0.00    +0.001 A 
ATOM     19  C   UNL     1      -4.823  -0.571   0.004  0.00  0.00    +0.002 A 
ATOM     20  C   UNL     1      -4.586   0.373  -0.978  0.00  0.00    +0.033 A 
ATOM     21  C   UNL     1      -3.416   1.105  -0.968  0.00  0.00    +0.138 A 
BRANCH  21  22
ATOM     22  N   UNL     1      -3.163   2.115  -2.020  0.00  0.00    +0.057 N 
ATOM     23  O   UNL     1      -4.036   2.387  -2.825  0.00  0.00    -0.126 OA
ATOM     24  O   UNL     1      -2.083   2.675  -2.080  0.00  0.00    -0.126 OA
ENDBRANCH  21  22
ENDBRANCH  13  16
ENDBRANCH   7  12
BRANCH   8  25
ATOM     25  C   UNL     1       2.744  -0.107   0.091  0.00  0.00    +0.102 C 
ATOM     26  N   UNL     1       2.970  -1.221   0.094  0.00  0.00    -0.191 NA
ENDBRANCH   8  25
TORSDOF 4
