REMARK  Name = ZINC13690321
REMARK  11 active torsions:
REMARK  status: ('A' for Active; 'I' for Inactive)
REMARK    1  A    between atoms: C_1  and  C_2
REMARK    2  A    between atoms: C_4  and  C_33
REMARK    3  A    between atoms: C_5  and  N_9
REMARK    4  A    between atoms: C_6  and  C_8
REMARK    5  A    between atoms: C_10  and  C_12
REMARK    6  A    between atoms: C_12  and  C_13
REMARK    7  A    between atoms: C_14  and  C_32
REMARK    8  A    between atoms: C_16  and  O_30
REMARK    9  A    between atoms: C_26  and  C_28
REMARK   10  A    between atoms: C_26  and  C_29
REMARK   11  A    between atoms: O_30  and  C_31
REMARK                            x       y       z     vdW  Elec       q    Type
REMARK                         _______ _______ _______ _____ _____    ______ ____
ROOT
ATOM      1  C   UNL     1      -5.617   3.768  -1.069  0.00  0.00    +0.049 A 
ATOM      2  C   UNL     1      -6.566   3.555  -0.121  0.00  0.00    -0.026 A 
ATOM      3  C   UNL     1      -7.836   3.067  -0.524  0.00  0.00    +0.063 A 
ATOM      4  C   UNL     1      -8.850   2.833   0.422  0.00  0.00    +0.134 A 
ATOM      5  C   UNL     1     -10.074   2.357   0.001  0.00  0.00    +0.092 A 
ATOM      6  C   UNL     1     -10.313   2.108  -1.352  0.00  0.00    +0.131 A 
ATOM      7  C   UNL     1      -9.322   2.339  -2.289  0.00  0.00    +0.038 A 
ATOM      8  C   UNL     1      -8.081   2.816  -1.885  0.00  0.00    +0.149 A 
ATOM      9  O   UNL     1      -7.110   3.040  -2.798  0.00  0.00    -0.421 OA
ATOM     10  C   UNL     1      -5.907   3.508  -2.424  0.00  0.00    +0.341 A 
ATOM     11  O   UNL     1      -5.051   3.707  -3.268  0.00  0.00    -0.245 OA
ATOM     12  C   UNL     1      -9.553   2.085  -3.757  0.00  0.00    +0.046 C 
ATOM     13  C   UNL     1     -10.771   1.176  -3.939  0.00  0.00    +0.052 C 
ATOM     14  C   UNL     1     -11.916   1.730  -3.081  0.00  0.00    +0.105 C 
ATOM     15  O   UNL     1     -11.535   1.635  -1.708  0.00  0.00    -0.486 OA
ATOM     16  C   UNL     1     -13.184   0.909  -3.322  0.00  0.00    +0.055 C 
ATOM     17  C   UNL     1     -12.171   3.194  -3.445  0.00  0.00    +0.055 C 
ATOM     18  C   UNL     1      -6.276   3.832   1.331  0.00  0.00    +0.045 C 
ENDROOT
BRANCH   4  19
ATOM     19  O   UNL     1      -8.626   3.074   1.738  0.00  0.00    -0.494 OA
ATOM     20  C   UNL     1      -9.705   2.812   2.639  0.00  0.00    +0.277 C 
ENDBRANCH   4  19
BRANCH   1  21
ATOM     21  C   UNL     1      -4.258   4.287  -0.674  0.00  0.00    +0.138 C 
BRANCH  21  23
ATOM     22  N   UNL     1      -2.069   3.350  -0.003  0.00  0.00    -0.285 N 
ATOM     23  C   UNL     1      -3.344   3.126  -0.379  0.00  0.00    +0.222 C 
ATOM     24  O   UNL     1      -3.755   1.989  -0.480  0.00  0.00    -0.275 OA
ATOM     25  H   UNL     1      -1.757   4.258   0.135  0.00  0.00    +0.155 HD
BRANCH  22  30
ATOM     26  C   UNL     1       1.472  -1.014   0.770  0.00  0.00    +0.044 C 
ATOM     27  C   UNL     1       0.531   0.145   0.565  0.00  0.00    -0.050 A 
ATOM     28  C   UNL     1      -0.157   0.272  -0.628  0.00  0.00    +0.008 A 
ATOM     29  C   UNL     1      -1.016   1.337  -0.822  0.00  0.00    -0.029 A 
ATOM     30  C   UNL     1      -1.196   2.274   0.187  0.00  0.00    +0.039 A 
ATOM     31  C   UNL     1      -0.504   2.143   1.384  0.00  0.00    -0.029 A 
ATOM     32  C   UNL     1       0.357   1.079   1.569  0.00  0.00    +0.008 A 
ATOM     33  C   UNL     1      -0.692   3.160   2.480  0.00  0.00    +0.045 C 
ATOM     34  C   UNL     1      -1.760   1.478  -2.124  0.00  0.00    +0.045 C 
ENDBRANCH  22  30
ENDBRANCH  21  23
ENDBRANCH   1  21
TORSDOF 4
