REMARK  Name = ZINC01682363
REMARK  6 active torsions:
REMARK  status: ('A' for Active; 'I' for Inactive)
REMARK    1  A    between atoms: C_1  and  C_2
REMARK    2  A    between atoms: C_5  and  C_9
REMARK    3  A    between atoms: C_6  and  O_8
REMARK    4  A    between atoms: C_9  and  O_10
REMARK    5  A    between atoms: O_10  and  C_11
REMARK    6  A    between atoms: C_11  and  O_12
REMARK                            x       y       z     vdW  Elec       q    Type
REMARK                         _______ _______ _______ _____ _____    ______ ____
ROOT
ATOM      1  C   UNL     1      -4.262   3.025   6.279  0.00  0.00    +0.044 C 
ATOM      2  C   UNL     1      -3.648   2.456   5.026  0.00  0.00    -0.047 A 
ATOM      3  C   UNL     1      -2.458   2.971   4.545  0.00  0.00    +0.004 A 
ATOM      4  C   UNL     1      -1.891   2.451   3.396  0.00  0.00    +0.010 A 
ATOM      5  C   UNL     1      -2.514   1.417   2.724  0.00  0.00    +0.020 A 
ATOM      6  C   UNL     1      -3.711   0.902   3.202  0.00  0.00    +0.122 A 
ATOM      7  C   UNL     1      -4.274   1.422   4.358  0.00  0.00    +0.049 A 
ENDROOT
BRANCH   6   8
ATOM      8  O   UNL     1      -4.328  -0.111   2.540  0.00  0.00    -0.506 OA
ATOM      9  H   UNL     1      -4.060  -0.993   2.833  0.00  0.00    +0.292 HD
ENDBRANCH   6   8
BRANCH   5  10
ATOM     10  C   UNL     1      -1.897   0.852   1.471  0.00  0.00    +0.201 C 
BRANCH  10  11
ATOM     11  O   UNL     1      -0.682   1.547   1.184  0.00  0.00    -0.350 OA
BRANCH  11  12
ATOM     12  C   UNL     1      -0.013   1.086   0.008  0.00  0.00    +0.319 C 
BRANCH  12  13
ATOM     13  O   UNL     1      -0.704   1.559  -1.150  0.00  0.00    -0.370 OA
ATOM     14  H   UNL     1      -0.304   1.284  -1.986  0.00  0.00    +0.212 HD
ENDBRANCH  12  13
ENDBRANCH  11  12
ENDBRANCH  10  11
ENDBRANCH   5  10
TORSDOF 5
