REMARK  Name = ZINC51094573
REMARK  12 active torsions:
REMARK  status: ('A' for Active; 'I' for Inactive)
REMARK    1  A    between atoms: C_1  and  C_2
REMARK    2  A    between atoms: C_2  and  C_3
REMARK    3  A    between atoms: C_2  and  C_4
REMARK    4  A    between atoms: C_4  and  N_5
REMARK    5  A    between atoms: N_5  and  C_6
REMARK    6  A    between atoms: C_6  and  C_7
REMARK    7  A    between atoms: C_7  and  N_8
REMARK    8  A    between atoms: N_8  and  C_9
REMARK    9  A    between atoms: N_8  and  C_10
REMARK   10  A    between atoms: C_11  and  C_13
REMARK   11  A    between atoms: C_18  and  N_19
REMARK   12  A    between atoms: N_19  and  N_20
REMARK                            x       y       z     vdW  Elec       q    Type
REMARK                         _______ _______ _______ _____ _____    ______ ____
ROOT
ATOM      1  N   UNL     1      -2.171  -0.255  -1.092  0.00  0.00    -0.299 N 
ATOM      2  C   UNL     1      -2.769   0.941  -1.261  0.00  0.00    +0.250 C 
ATOM      3  O   UNL     1      -2.767   1.755  -0.358  0.00  0.00    -0.270 OA
ENDROOT
BRANCH   2   4
ATOM      4  C   UNL     1      -3.423   1.263  -2.542  0.00  0.00    +0.079 A 
ATOM      5  C   UNL     1      -2.715   1.174  -3.747  0.00  0.00    +0.033 A 
ATOM      6  C   UNL     1      -3.376   1.487  -4.922  0.00  0.00    +0.037 A 
ATOM      7  C   UNL     1      -4.704   1.875  -4.875  0.00  0.00    +0.128 A 
ATOM      8  N   UNL     1      -5.353   1.953  -3.730  0.00  0.00    -0.237 NA
ATOM      9  C   UNL     1      -4.771   1.660  -2.577  0.00  0.00    +0.144 A 
ATOM     10 BR   UNL     1      -2.471   1.385  -6.580  0.00  0.00    -0.049 Br
BRANCH   9  11
ATOM     11  N   UNL     1      -5.492   1.750  -1.401  0.00  0.00    -0.267 N 
ATOM     12  H   UNL     1      -5.049   1.611  -0.549  0.00  0.00    +0.167 HD
BRANCH  11  13
ATOM     13  N   UNL     1      -6.827   2.036  -1.438  0.00  0.00    -0.255 NA
ATOM     14  H   UNL     1      -7.323   1.372  -2.014  0.00  0.00    +0.140 HD
ATOM     15  H   UNL     1      -7.216   2.069  -0.507  0.00  0.00    +0.140 HD
ENDBRANCH  11  13
ENDBRANCH   9  11
ENDBRANCH   2   4
BRANCH   1  16
ATOM     16  C   UNL     1      -1.420  -0.531   0.135  0.00  0.00    +0.111 C 
BRANCH  16  18
ATOM     17  C   UNL     1       0.021   1.490  -0.152  0.00  0.00    +0.009 C 
ATOM     18  C   UNL     1       0.018  -0.035  -0.025  0.00  0.00    +0.000 C 
ATOM     19  C   UNL     1       0.839  -0.446   1.200  0.00  0.00    +0.009 C 
ENDBRANCH  16  18
ENDBRANCH   1  16
BRANCH   1  20
ATOM     20  C   UNL     1      -2.274  -1.279  -2.134  0.00  0.00    +0.089 C 
BRANCH  20  21
ATOM     21  C   UNL     1      -3.508  -2.146  -1.878  0.00  0.00    -0.060 C 
BRANCH  21  22
ATOM     22  N   UNL     1      -3.611  -3.173  -2.923  0.00  0.00    +0.377 N 
ATOM     23  C   UNL     1      -2.466  -4.088  -2.825  0.00  0.00    -0.097 C 
ATOM     24  C   UNL     1      -4.858  -3.929  -2.747  0.00  0.00    -0.097 C 
ATOM     25  H   UNL     1      -3.611  -2.731  -3.830  0.00  0.00    -0.083 HD
ENDBRANCH  21  22
ENDBRANCH  20  21
ENDBRANCH   1  20
TORSDOF 8
