REMARK  Name = ZINC40291407
REMARK  6 active torsions:
REMARK  status: ('A' for Active; 'I' for Inactive)
REMARK    1  A    between atoms: C_1  and  C_2
REMARK    2  A    between atoms: C_3  and  C_19
REMARK    3  A    between atoms: C_6  and  O_11
REMARK    4  A    between atoms: C_7  and  C_8
REMARK    5  A    between atoms: C_8  and  N_10
REMARK    6  A    between atoms: O_11  and  C_12
REMARK                            x       y       z     vdW  Elec       q    Type
REMARK                         _______ _______ _______ _____ _____    ______ ____
ROOT
ATOM      1  C   UNL     1      -0.304   1.443  -0.009  0.00  0.00    +0.046 C 
ATOM      2  C   UNL     1      -0.216  -0.061   0.011  0.00  0.00    -0.013 A 
ATOM      3  C   UNL     1      -0.357  -0.800  -1.152  0.00  0.00    +0.064 A 
ATOM      4  N   UNL     1      -0.276  -2.116  -1.114  0.00  0.00    -0.151 NA
ATOM      5  N   UNL     1      -0.067  -2.765  -0.028  0.00  0.00    -0.110 NA
ATOM      6  C   UNL     1       0.084  -2.159   1.140  0.00  0.00    +0.250 A 
ATOM      7  C   UNL     1       0.019  -0.756   1.204  0.00  0.00    +0.071 A 
ATOM      8  C   UNL     1      -0.605  -0.100  -2.463  0.00  0.00    +0.068 C 
ENDROOT
BRANCH   7   9
ATOM      9  C   UNL     1       0.187  -0.041   2.485  0.00  0.00    +0.082 C 
ATOM     10  S   UNL     1       1.729   0.545   2.942  0.00  0.00    -0.035 S 
BRANCH   9  11
ATOM     11  N   UNL     1      -0.874   0.150   3.294  0.00  0.00    -0.352 N 
ATOM     12  H   UNL     1      -1.760  -0.115   3.002  0.00  0.00    +0.143 HD
ATOM     13  H   UNL     1      -0.751   0.553   4.168  0.00  0.00    +0.143 HD
ENDBRANCH   9  11
ENDBRANCH   7   9
BRANCH   6  14
ATOM     14  O   UNL     1       0.303  -2.885   2.263  0.00  0.00    -0.436 OA
BRANCH  14  15
ATOM     15  C   UNL     1       0.441  -4.231   2.136  0.00  0.00    +0.132 A 
ATOM     16  C   UNL     1       1.646  -4.769   1.707  0.00  0.00    +0.046 A 
ATOM     17  C   UNL     1       1.784  -6.137   1.579  0.00  0.00    +0.005 A 
ATOM     18  C   UNL     1       0.722  -6.971   1.876  0.00  0.00    +0.020 A 
ATOM     19  C   UNL     1      -0.481  -6.438   2.303  0.00  0.00    +0.044 A 
ATOM     20  C   UNL     1      -0.622  -5.069   2.439  0.00  0.00    +0.066 A 
ATOM     21 CL   UNL     1      -1.812  -7.488   2.675  0.00  0.00    -0.083 Cl
ENDBRANCH  14  15
ENDBRANCH   6  14
TORSDOF 4
