REMARK  Name = ZINC64982512
REMARK  10 active torsions:
REMARK  status: ('A' for Active; 'I' for Inactive)
REMARK    1  A    between atoms: C_1  and  C_2
REMARK    2  A    between atoms: C_4  and  C_30
REMARK    3  A    between atoms: C_6  and  O_8
REMARK    4  A    between atoms: O_8  and  C_9
REMARK    5  A    between atoms: C_9  and  C_11
REMARK    6  A    between atoms: C_9  and  C_12
REMARK    7  A    between atoms: N_14  and  C_15
REMARK    8  A    between atoms: C_18  and  S_21
REMARK    9  A    between atoms: S_21  and  N_24
REMARK   10  A    between atoms: N_24  and  C_25
REMARK                            x       y       z     vdW  Elec       q    Type
REMARK                         _______ _______ _______ _____ _____    ______ ____
ROOT
ATOM      1  C   UNL     1      -0.591  -2.731   4.679  0.00  0.00    +0.258 C 
ATOM      2  O   UNL     1      -1.116  -3.808   4.489  0.00  0.00    -0.271 OA
ATOM      3  N   UNL     1      -0.540  -2.216   5.924  0.00  0.00    -0.282 N 
ATOM      4  H   UNL     1      -0.189  -1.323   6.065  0.00  0.00    +0.155 HD
ENDROOT
BRANCH   3   5
ATOM      5  C   UNL     1      -0.994  -2.970   7.012  0.00  0.00    +0.034 A 
ATOM      6  C   UNL     1      -1.594  -2.339   8.093  0.00  0.00    +0.025 A 
ATOM      7  C   UNL     1      -2.041  -3.086   9.166  0.00  0.00    +0.031 A 
ATOM      8  C   UNL     1      -1.891  -4.460   9.163  0.00  0.00    +0.111 A 
ATOM      9  C   UNL     1      -1.293  -5.092   8.088  0.00  0.00    +0.031 A 
ATOM     10  C   UNL     1      -0.850  -4.351   7.010  0.00  0.00    +0.025 A 
BRANCH   8  11
ATOM     11  S   UNL     1      -2.463  -5.409  10.533  0.00  0.00    +0.093 S 
ATOM     12  O   UNL     1      -1.714  -6.617  10.531  0.00  0.00    -0.148 OA
ATOM     13  O   UNL     1      -2.491  -4.532  11.651  0.00  0.00    -0.148 OA
BRANCH  11  14
ATOM     14  N   UNL     1      -4.035  -5.826  10.219  0.00  0.00    -0.070 NA
BRANCH  14  15
ATOM     15  C   UNL     1      -4.747  -6.584  11.135  0.00  0.00    +0.201 A 
ATOM     16  N   UNL     1      -4.346  -7.052  12.297  0.00  0.00    -0.231 NA
ATOM     17  C   UNL     1      -5.155  -7.764  13.062  0.00  0.00    +0.120 A 
ATOM     18  C   UNL     1      -6.406  -7.988  12.594  0.00  0.00    +0.068 A 
ATOM     19  S   UNL     1      -6.338  -7.122  11.034  0.00  0.00    -0.058 S 
ENDBRANCH  14  15
ENDBRANCH  11  14
ENDBRANCH   8  11
ENDBRANCH   3   5
BRANCH   1  20
ATOM     20  C   UNL     1       0.005  -1.969   3.524  0.00  0.00    +0.256 C 
ATOM     21  C   UNL     1       1.520  -1.859   3.712  0.00  0.00    +0.062 C 
BRANCH  20  22
ATOM     22  O   UNL     1      -0.274  -2.659   2.304  0.00  0.00    -0.480 OA
BRANCH  22  28
ATOM     23  C   UNL     1      -1.081  -2.372  -2.502  0.00  0.00    +0.044 C 
ATOM     24  C   UNL     1      -0.672  -1.742  -1.195  0.00  0.00    -0.047 A 
ATOM     25  C   UNL     1      -0.309  -0.408  -1.154  0.00  0.00    +0.007 A 
ATOM     26  C   UNL     1       0.065   0.172   0.044  0.00  0.00    -0.047 A 
ATOM     27  C   UNL     1       0.078  -0.579   1.203  0.00  0.00    +0.049 A 
ATOM     28  C   UNL     1      -0.286  -1.917   1.165  0.00  0.00    +0.122 A 
ATOM     29  C   UNL     1      -0.667  -2.496  -0.037  0.00  0.00    +0.049 A 
ATOM     30  C   UNL     1       0.461   1.626   0.085  0.00  0.00    +0.044 C 
ENDBRANCH  22  28
ENDBRANCH  20  22
ENDBRANCH   1  20
TORSDOF 7
