REMARK  Name = ZINC24641772
REMARK  11 active torsions:
REMARK  status: ('A' for Active; 'I' for Inactive)
REMARK    1  A    between atoms: C_1  and  C_2
REMARK    2  A    between atoms: C_2  and  C_3
REMARK    3  A    between atoms: C_3  and  C_29
REMARK    4  A    between atoms: N_6  and  N_10
REMARK    5  A    between atoms: C_11  and  C_13
REMARK    6  A    between atoms: C_13  and  N_14
REMARK    7  A    between atoms: C_15  and  C_17
REMARK    8  A    between atoms: C_21  and  S_23
REMARK    9  A    between atoms: S_23  and  N_26
REMARK   10  A    between atoms: N_26  and  C_27
REMARK   11  A    between atoms: N_26  and  C_28
REMARK                            x       y       z     vdW  Elec       q    Type
REMARK                         _______ _______ _______ _____ _____    ______ ____
ROOT
ATOM      1  N   UNL     1       1.143   1.898   0.001  0.00  0.00    -0.222 N 
ATOM      2  C   UNL     1      -0.014   1.209   0.009  0.00  0.00    +0.247 C 
ATOM      3  O   UNL     1       0.002  -0.004   0.002  0.00  0.00    -0.273 OA
ATOM      4  H   UNL     1       1.129   2.998   0.007  0.00  0.00    +0.174 HD
ENDROOT
BRANCH   1   8
ATOM      5  C   UNL     1       4.356   0.290  -0.650  0.00  0.00    +0.139 C 
ATOM      6  C   UNL     1       3.157   1.103  -1.099  0.00  0.00    +0.268 C 
ATOM      7  O   UNL     1       2.953   1.556  -2.205  0.00  0.00    -0.271 OA
ATOM      8  N   UNL     1       2.366   1.214  -0.014  0.00  0.00    -0.137 N 
ATOM      9  C   UNL     1       2.895   0.597   1.048  0.00  0.00    +0.327 C 
ATOM     10  O   UNL     1       2.368   0.564   2.143  0.00  0.00    -0.251 OA
ATOM     11  N   UNL     1       4.075   0.013   0.769  0.00  0.00    -0.280 N 
ATOM     12  H   UNL     1       4.787  -0.575   1.366  0.00  0.00    +0.152 HD
BRANCH   5  13
ATOM     13  C   UNL     1       5.624   1.092  -0.796  0.00  0.00    -0.015 A 
ATOM     14  C   UNL     1       6.351   1.027  -1.970  0.00  0.00    +0.006 A 
ATOM     15  C   UNL     1       7.512   1.766  -2.105  0.00  0.00    +0.000 A 
ATOM     16  C   UNL     1       7.950   2.562  -1.063  0.00  0.00    +0.000 A 
ATOM     17  C   UNL     1       7.226   2.622   0.113  0.00  0.00    +0.000 A 
ATOM     18  C   UNL     1       6.063   1.887   0.246  0.00  0.00    +0.006 A 
ENDBRANCH   5  13
BRANCH   5  20
ATOM     19  C   UNL     1       3.175  -1.831  -1.238  0.00  0.00    +0.007 C 
ATOM     20  C   UNL     1       4.451  -1.014  -1.445  0.00  0.00    +0.037 C 
ENDBRANCH   5  20
ENDBRANCH   1   8
BRANCH   2  21
ATOM     21  C   UNL     1      -1.330   1.944   0.019  0.00  0.00    +0.202 C 
BRANCH  21  22
ATOM     22  N   UNL     1      -2.430   0.977   0.019  0.00  0.00    -0.303 N 
ATOM     23  C   UNL     1      -3.707   1.409   0.027  0.00  0.00    +0.245 C 
ATOM     24  O   UNL     1      -3.945   2.601   0.035  0.00  0.00    -0.270 OA
ATOM     25  H   UNL     1      -2.214  -0.101   0.012  0.00  0.00    +0.150 HD
BRANCH  23  26
ATOM     26  C   UNL     1      -4.817   0.433   0.027  0.00  0.00    +0.039 A 
ATOM     27  C   UNL     1      -4.547  -0.936   0.018  0.00  0.00    +0.013 A 
ATOM     28  C   UNL     1      -5.588  -1.841   0.019  0.00  0.00    +0.003 A 
ATOM     29  C   UNL     1      -6.897  -1.395   0.029  0.00  0.00    +0.028 A 
ATOM     30  C   UNL     1      -7.172  -0.039   0.038  0.00  0.00    +0.106 A 
ATOM     31  C   UNL     1      -6.140   0.877   0.042  0.00  0.00    +0.041 A 
BRANCH  30  32
ATOM     32  S   UNL     1      -8.843   0.519   0.051  0.00  0.00    +0.060 S 
ATOM     33  O   UNL     1      -8.837   1.832  -0.493  0.00  0.00    -0.153 OA
ATOM     34  O   UNL     1      -9.626  -0.530  -0.502  0.00  0.00    -0.153 OA
BRANCH  32  35
ATOM     35  N   UNL     1      -9.299   0.666   1.636  0.00  0.00    -0.183 NA
ATOM     36  C   UNL     1      -9.098   1.934   2.342  0.00  0.00    +0.131 C 
ATOM     37  C   UNL     1      -9.902  -0.473   2.333  0.00  0.00    +0.131 C 
ENDBRANCH  32  35
ENDBRANCH  30  32
ENDBRANCH  23  26
ENDBRANCH  21  22
ENDBRANCH   2  21
TORSDOF 8
