REMARK  Name = ZINC32927092
REMARK  10 active torsions:
REMARK  status: ('A' for Active; 'I' for Inactive)
REMARK    1  A    between atoms: C_1  and  N_2
REMARK    2  A    between atoms: N_2  and  S_3
REMARK    3  A    between atoms: S_3  and  C_6
REMARK    4  A    between atoms: C_9  and  N_15
REMARK    5  A    between atoms: C_10  and  N_12
REMARK    6  A    between atoms: N_15  and  C_16
REMARK    7  A    between atoms: C_16  and  C_17
REMARK    8  A    between atoms: C_17  and  C_18
REMARK    9  A    between atoms: C_21  and  S_23
REMARK   10  A    between atoms: S_23  and  N_26
REMARK                            x       y       z     vdW  Elec       q    Type
REMARK                         _______ _______ _______ _____ _____    ______ ____
ROOT
ATOM      1  C   UNL     1       7.635  -1.381  -5.123  0.00  0.00    +0.108 A 
ATOM      2  C   UNL     1       6.254  -1.305  -5.111  0.00  0.00    +0.030 A 
ATOM      3  C   UNL     1       5.569  -1.351  -3.913  0.00  0.00    +0.027 A 
ATOM      4  C   UNL     1       6.268  -1.474  -2.719  0.00  0.00    +0.058 A 
ATOM      5  C   UNL     1       7.655  -1.545  -2.734  0.00  0.00    +0.149 A 
ATOM      6  C   UNL     1       8.334  -1.504  -3.937  0.00  0.00    +0.063 A 
ENDROOT
BRANCH   1   7
ATOM      7  S   UNL     1       8.505  -1.322  -6.654  0.00  0.00    +0.058 S 
ATOM      8  O   UNL     1       9.756  -1.960  -6.435  0.00  0.00    -0.153 OA
ATOM      9  O   UNL     1       7.594  -1.755  -7.656  0.00  0.00    -0.153 OA
BRANCH   7  11
ATOM     10  C   UNL     1       9.734   1.020  -6.089  0.00  0.00    +0.127 C 
ATOM     11  N   UNL     1       8.834   0.270  -6.969  0.00  0.00    -0.193 NA
ATOM     12  H   UNL     1       8.251   0.797  -7.738  0.00  0.00    +0.148 HD
ENDBRANCH   7  11
ENDBRANCH   1   7
BRANCH   5  13
ATOM     13  N   UNL     1       8.405  -1.670  -1.464  0.00  0.00    +0.058 N 
ATOM     14  O   UNL     1       8.028  -1.070  -0.473  0.00  0.00    -0.126 OA
ATOM     15  O   UNL     1       9.399  -2.372  -1.410  0.00  0.00    -0.126 OA
ENDBRANCH   5  13
BRANCH   4  16
ATOM     16  N   UNL     1       5.579  -1.522  -1.505  0.00  0.00    -0.342 N 
ATOM     17  H   UNL     1       6.124  -1.716  -0.570  0.00  0.00    +0.146 HD
BRANCH  16  18
ATOM     18  C   UNL     1       4.129  -1.312  -1.478  0.00  0.00    +0.107 C 
BRANCH  18  19
ATOM     19  C   UNL     1       3.626  -1.415  -0.037  0.00  0.00    +0.061 C 
BRANCH  19  20
ATOM     20  C   UNL     1       2.134  -1.200  -0.009  0.00  0.00    -0.007 A 
ATOM     21  C   UNL     1       1.138  -2.112  -0.119  0.00  0.00    +0.013 A 
ATOM     22  C   UNL     1      -0.174  -1.682  -0.065  0.00  0.00    +0.036 A 
ATOM     23  C   UNL     1      -0.426  -0.360   0.097  0.00  0.00    +0.142 A 
ATOM     24  S   UNL     1       1.221   0.323   0.179  0.00  0.00    -0.073 S 
BRANCH  23  25
ATOM     25  S   UNL     1      -1.978   0.470   0.195  0.00  0.00    +0.062 S 
ATOM     26  O   UNL     1      -1.743   1.817  -0.193  0.00  0.00    -0.153 OA
ATOM     27  O   UNL     1      -2.924  -0.359  -0.465  0.00  0.00    -0.153 OA
BRANCH  25  28
ATOM     28  N   UNL     1      -2.413   0.507   1.792  0.00  0.00    -0.203 NA
ATOM     29  H   UNL     1      -3.381   1.020   1.896  0.00  0.00    +0.144 HD
ATOM     30  H   UNL     1      -1.648   1.048   2.369  0.00  0.00    +0.144 HD
ENDBRANCH  25  28
ENDBRANCH  23  25
ENDBRANCH  19  20
ENDBRANCH  18  19
ENDBRANCH  16  18
ENDBRANCH   4  16
TORSDOF 9
