REMARK  Name = ZINC37690485
REMARK  7 active torsions:
REMARK  status: ('A' for Active; 'I' for Inactive)
REMARK    1  A    between atoms: C_1  and  C_2
REMARK    2  A    between atoms: C_2  and  O_3
REMARK    3  A    between atoms: O_3  and  C_4
REMARK    4  A    between atoms: C_6  and  C_20
REMARK    5  A    between atoms: C_9  and  O_10
REMARK    6  A    between atoms: O_10  and  C_11
REMARK    7  A    between atoms: C_16  and  O_18
REMARK                            x       y       z     vdW  Elec       q    Type
REMARK                         _______ _______ _______ _____ _____    ______ ____
ROOT
ATOM      1  C   UNL     1       0.777  -1.811  -1.336  0.00  0.00    +0.164 A 
ATOM      2  C   UNL     1       0.245  -2.664  -0.390  0.00  0.00    +0.064 A 
ATOM      3  C   UNL     1       0.355  -4.049  -0.560  0.00  0.00    +0.068 A 
ATOM      4  C   UNL     1       1.004  -4.562  -1.688  0.00  0.00    +0.034 A 
ATOM      5  C   UNL     1       1.533  -3.704  -2.628  0.00  0.00    +0.064 A 
ATOM      6  C   UNL     1       1.417  -2.329  -2.461  0.00  0.00    +0.176 A 
ATOM      7 BR   UNL     1       2.410  -4.399  -4.152  0.00  0.00    -0.046 Br
ENDROOT
BRANCH   3   8
ATOM      8  C   UNL     1      -0.210  -4.963   0.446  0.00  0.00    +0.387 C 
ATOM      9  O   UNL     1      -0.777  -4.513   1.432  0.00  0.00    -0.241 OA
ATOM     10  O   UNL     1      -0.112  -6.174   0.296  0.00  0.00    -0.241 OA
ENDBRANCH   3   8
BRANCH   1  11
ATOM     11  O   UNL     1       0.671  -0.465  -1.174  0.00  0.00    -0.489 OA
BRANCH  11  13
ATOM     12  C   UNL     1      -0.019   1.526   0.010  0.00  0.00    +0.048 C 
ATOM     13  C   UNL     1       0.002  -0.004   0.002  0.00  0.00    +0.226 C 
ENDBRANCH  11  13
ENDBRANCH   1  11
BRANCH   6  14
ATOM     14  O   UNL     1       1.935  -1.488  -3.393  0.00  0.00    -0.481 OA
BRANCH  14  15
ATOM     15  C   UNL     1       3.291  -1.074  -3.212  0.00  0.00    +0.202 C 
ATOM     16  C   UNL     1       3.339   0.244  -2.413  0.00  0.00    +0.047 C 
ATOM     17  C   UNL     1       4.507   1.035  -3.055  0.00  0.00    +0.006 C 
ATOM     18  C   UNL     1       4.361   0.699  -4.559  0.00  0.00    +0.035 C 
ATOM     19  C   UNL     1       3.941  -0.787  -4.577  0.00  0.00    +0.155 C 
BRANCH  19  20
ATOM     20  O   UNL     1       2.998  -1.017  -5.626  0.00  0.00    -0.388 OA
ATOM     21  H   UNL     1       3.349  -0.853  -6.512  0.00  0.00    +0.210 HD
ENDBRANCH  19  20
ENDBRANCH  14  15
ENDBRANCH   6  14
TORSDOF 6
