REMARK  Name = ZINC21001216
REMARK  8 active torsions:
REMARK  status: ('A' for Active; 'I' for Inactive)
REMARK    1  A    between atoms: C_1  and  C_2
REMARK    2  A    between atoms: C_5  and  O_8
REMARK    3  A    between atoms: O_8  and  C_9
REMARK    4  A    between atoms: C_9  and  C_11
REMARK    5  A    between atoms: C_9  and  C_12
REMARK    6  A    between atoms: N_14  and  C_15
REMARK    7  A    between atoms: C_17  and  C_22
REMARK    8  A    between atoms: C_20  and  O_21
REMARK                            x       y       z     vdW  Elec       q    Type
REMARK                         _______ _______ _______ _____ _____    ______ ____
ROOT
ATOM      1  C   UNL     1      -1.320   1.592   0.085  0.00  0.00    +0.258 C 
ATOM      2  O   UNL     1      -1.492   2.788  -0.018  0.00  0.00    -0.271 OA
ATOM      3  N   UNL     1      -0.069   1.091   0.107  0.00  0.00    -0.280 N 
ATOM      4  H   UNL     1       0.088   0.003   0.112  0.00  0.00    +0.155 HD
ENDROOT
BRANCH   3   5
ATOM      5  C   UNL     1       1.033   1.957   0.125  0.00  0.00    +0.076 A 
ATOM      6  C   UNL     1       0.893   3.251   0.607  0.00  0.00    +0.030 A 
ATOM      7  C   UNL     1       1.982   4.101   0.628  0.00  0.00    -0.048 A 
ATOM      8  C   UNL     1       3.210   3.670   0.159  0.00  0.00    +0.007 A 
ATOM      9  C   UNL     1       3.355   2.385  -0.328  0.00  0.00    +0.047 A 
ATOM     10  C   UNL     1       2.269   1.524  -0.347  0.00  0.00    +0.138 A 
ATOM     11  C   UNL     1       1.830   5.504   1.156  0.00  0.00    +0.044 C 
BRANCH  10  12
ATOM     12  O   UNL     1       2.411   0.259  -0.827  0.00  0.00    -0.505 OA
ATOM     13  H   UNL     1       3.388  -0.082  -1.199  0.00  0.00    +0.292 HD
ENDBRANCH  10  12
ENDBRANCH   3   5
BRANCH   1  14
ATOM     14  C   UNL     1      -2.504   0.666   0.188  0.00  0.00    +0.256 C 
ATOM     15  C   UNL     1      -2.481  -0.323  -0.979  0.00  0.00    +0.062 C 
BRANCH  14  16
ATOM     16  O   UNL     1      -3.711   1.430   0.141  0.00  0.00    -0.480 OA
BRANCH  16  21
ATOM     17  C   UNL     1      -8.079  -0.507   3.123  0.00  0.00    +0.044 C 
ATOM     18  C   UNL     1      -6.911   0.011   2.325  0.00  0.00    -0.050 A 
ATOM     19  C   UNL     1      -5.758  -0.745   2.219  0.00  0.00    +0.007 A 
ATOM     20  C   UNL     1      -4.685  -0.272   1.488  0.00  0.00    +0.046 A 
ATOM     21  C   UNL     1      -4.765   0.963   0.860  0.00  0.00    +0.122 A 
ATOM     22  C   UNL     1      -5.921   1.722   0.973  0.00  0.00    +0.046 A 
ATOM     23  C   UNL     1      -6.993   1.242   1.700  0.00  0.00    +0.007 A 
ENDBRANCH  16  21
ENDBRANCH  14  16
ENDBRANCH   1  14
TORSDOF 5
