REMARK  Name = ZINC02455118
REMARK  7 active torsions:
REMARK  status: ('A' for Active; 'I' for Inactive)
REMARK    1  A    between atoms: C_7  and  S_24
REMARK    2  A    between atoms: N_9  and  C_10
REMARK    3  A    between atoms: C_10  and  C_11
REMARK    4  A    between atoms: C_11  and  N_12
REMARK    5  A    between atoms: C_13  and  C_15
REMARK    6  A    between atoms: C_18  and  N_21
REMARK    7  A    between atoms: S_24  and  C_25
REMARK                            x       y       z     vdW  Elec       q    Type
REMARK                         _______ _______ _______ _____ _____    ______ ____
ROOT
ATOM      1  C   UNL     1       6.414  -0.256  -0.617  0.00  0.00    +0.001 A 
ATOM      2  C   UNL     1       6.835   1.065  -0.538  0.00  0.00    +0.002 A 
ATOM      3  C   UNL     1       5.932   2.076  -0.297  0.00  0.00    +0.026 A 
ATOM      4  C   UNL     1       4.583   1.774  -0.131  0.00  0.00    +0.050 A 
ATOM      5  C   UNL     1       4.164   0.433  -0.207  0.00  0.00    +0.014 A 
ATOM      6  C   UNL     1       5.096  -0.575  -0.458  0.00  0.00    +0.011 A 
ATOM      7  C   UNL     1       2.711   0.448   0.003  0.00  0.00    +0.040 A 
ATOM      8  C   UNL     1       2.355   1.733   0.193  0.00  0.00    +0.102 A 
ATOM      9  N   UNL     1       3.466   2.539   0.116  0.00  0.00    -0.344 N 
ENDROOT
BRANCH   9  10
ATOM     10  C   UNL     1       3.462   3.996   0.274  0.00  0.00    +0.140 C 
BRANCH  10  11
ATOM     11  C   UNL     1       3.376   4.657  -1.103  0.00  0.00    +0.126 C 
BRANCH  11  12
ATOM     12  N   UNL     1       3.372   6.114  -0.946  0.00  0.00    -0.310 N 
ATOM     13  C   UNL     1       3.302   6.909  -2.032  0.00  0.00    +0.244 C 
ATOM     14  O   UNL     1       3.243   6.418  -3.142  0.00  0.00    -0.270 OA
ATOM     15  H   UNL     1       3.425   6.559   0.059  0.00  0.00    +0.149 HD
BRANCH  13  16
ATOM     16  C   UNL     1       3.298   8.379  -1.873  0.00  0.00    +0.037 A 
ATOM     17  C   UNL     1       3.360   8.946  -0.599  0.00  0.00    +0.015 A 
ATOM     18  C   UNL     1       3.361  10.319  -0.458  0.00  0.00    +0.033 A 
ATOM     19  C   UNL     1       3.289  11.132  -1.575  0.00  0.00    +0.126 A 
ATOM     20  C   UNL     1       3.222  10.576  -2.840  0.00  0.00    +0.033 A 
ATOM     21  C   UNL     1       3.226   9.205  -2.995  0.00  0.00    +0.015 A 
BRANCH  19  22
ATOM     22  N   UNL     1       3.284  12.604  -1.416  0.00  0.00    +0.056 N 
ATOM     23  O   UNL     1       3.221  13.322  -2.397  0.00  0.00    -0.126 OA
ATOM     24  O   UNL     1       3.343  13.096  -0.303  0.00  0.00    -0.126 OA
ENDBRANCH  19  22
ENDBRANCH  13  16
ENDBRANCH  11  12
ENDBRANCH  10  11
ENDBRANCH   9  10
BRANCH   7  25
ATOM     25  S   UNL     1       1.638  -0.949   0.011  0.00  0.00    -0.055 S 
BRANCH  25  26
ATOM     26  C   UNL     1       1.528  -1.261  -1.719  0.00  0.00    +0.127 C 
ATOM     27  N   UNL     1       2.231  -0.549  -2.556  0.00  0.00    -0.382 N 
ATOM     28  N   UNL     1       0.699  -2.255  -2.188  0.00  0.00    -0.339 N 
ATOM     29  H   UNL     1       2.162  -0.743  -3.637  0.00  0.00    +0.158 HD
ATOM     30  H   UNL     1       0.630  -2.449  -3.268  0.00  0.00    +0.144 HD
ATOM     31  H   UNL     1       0.106  -2.855  -1.482  0.00  0.00    +0.144 HD
ATOM     32  H   UNL     1       2.893   0.246  -2.182  0.00  0.00    +0.158 HD
ENDBRANCH  25  26
ENDBRANCH   7  25
TORSDOF 7
