REMARK  Name = ZINC64891186
REMARK  11 active torsions:
REMARK  status: ('A' for Active; 'I' for Inactive)
REMARK    1  A    between atoms: C_1  and  C_2
REMARK    2  A    between atoms: C_2  and  C_3
REMARK    3  A    between atoms: C_3  and  N_4
REMARK    4  A    between atoms: C_8  and  C_15
REMARK    5  A    between atoms: C_18  and  C_22
REMARK    6  A    between atoms: C_22  and  C_24
REMARK    7  A    between atoms: C_22  and  N_27
REMARK    8  A    between atoms: C_24  and  C_25
REMARK    9  A    between atoms: C_24  and  C_26
REMARK   10  A    between atoms: N_27  and  S_28
REMARK   11  A    between atoms: S_28  and  C_31
REMARK                            x       y       z     vdW  Elec       q    Type
REMARK                         _______ _______ _______ _____ _____    ______ ____
ROOT
ATOM      1  C   UNL     1      -1.580  -6.719  -4.339  0.00  0.00    +0.180 C 
ATOM      2  N   UNL     1      -0.742  -6.437  -5.528  0.00  0.00    -0.268 NA
ATOM      3  C   UNL     1      -0.239  -7.743  -5.999  0.00  0.00    +0.230 C 
ATOM      4  O   UNL     1      -0.781  -8.749  -5.124  0.00  0.00    -0.278 OA
ATOM      5  N   UNL     1      -1.084  -8.037  -3.861  0.00  0.00    -0.178 NA
ATOM      6  H   UNL     1      -1.277  -5.975  -6.247  0.00  0.00    +0.126 HD
ATOM      7  H   UNL     1      -1.794  -8.521  -3.332  0.00  0.00    +0.156 HD
ENDROOT
BRANCH   1  12
ATOM      8  N   UNL     1      -0.869  -2.973  -0.181  0.00  0.00    -0.292 N 
ATOM      9  C   UNL     1      -1.002  -3.710  -1.355  0.00  0.00    +0.070 A 
ATOM     10  C   UNL     1      -0.905  -3.384  -2.700  0.00  0.00    +0.028 A 
ATOM     11  C   UNL     1      -1.092  -4.360  -3.659  0.00  0.00    +0.009 A 
ATOM     12  C   UNL     1      -1.377  -5.662  -3.284  0.00  0.00    -0.012 A 
ATOM     13  C   UNL     1      -1.476  -5.996  -1.948  0.00  0.00    +0.034 A 
ATOM     14  C   UNL     1      -1.288  -5.023  -0.977  0.00  0.00    +0.067 A 
ATOM     15  N   UNL     1      -1.321  -5.043   0.415  0.00  0.00    -0.306 N 
ATOM     16  H   UNL     1      -1.497  -5.821   0.968  0.00  0.00    +0.170 HD
ATOM     17  C   UNL     1      -1.060  -3.801   0.863  0.00  0.00    +0.328 A 
ATOM     18  O   UNL     1      -1.009  -3.475   2.034  0.00  0.00    -0.247 OA
BRANCH   8  19
ATOM     19  C   UNL     1      -0.567  -1.542  -0.097  0.00  0.00    +0.127 C 
BRANCH  19  21
ATOM     20  C   UNL     1       1.265   0.152   0.043  0.00  0.00    +0.005 C 
ATOM     21  C   UNL     1       0.949  -1.343  -0.046  0.00  0.00    +0.018 C 
ENDBRANCH  19  21
ENDBRANCH   8  19
ENDBRANCH   1  12
BRANCH   3  22
ATOM     22  C   UNL     1      -0.703  -7.992  -7.436  0.00  0.00    +0.125 C 
BRANCH  22  23
ATOM     23  C   UNL     1      -0.161  -9.338  -7.921  0.00  0.00    +0.005 C 
ATOM     24  C   UNL     1      -0.703  -9.631  -9.321  0.00  0.00    +0.009 C 
ATOM     25  C   UNL     1       1.368  -9.285  -7.967  0.00  0.00    +0.009 C 
ENDBRANCH  22  23
BRANCH  22  26
ATOM     26  N   UNL     1      -2.167  -8.012  -7.479  0.00  0.00    -0.183 NA
ATOM     27  H   UNL     1      -2.658  -8.692  -6.991  0.00  0.00    +0.148 HD
BRANCH  26  28
ATOM     28  S   UNL     1      -2.985  -6.874  -8.361  0.00  0.00    +0.059 S 
ATOM     29  O   UNL     1      -4.367  -7.183  -8.242  0.00  0.00    -0.153 OA
ATOM     30  O   UNL     1      -2.452  -5.611  -7.988  0.00  0.00    -0.153 OA
BRANCH  28  31
ATOM     31  C   UNL     1      -2.558  -7.120 -10.053  0.00  0.00    +0.105 A 
ATOM     32  C   UNL     1      -1.534  -6.386 -10.621  0.00  0.00    +0.028 A 
ATOM     33  C   UNL     1      -1.199  -6.579 -11.948  0.00  0.00    +0.002 A 
ATOM     34  C   UNL     1      -1.888  -7.507 -12.707  0.00  0.00    +0.000 A 
ATOM     35  C   UNL     1      -2.911  -8.242 -12.138  0.00  0.00    +0.002 A 
ATOM     36  C   UNL     1      -3.243  -8.052 -10.810  0.00  0.00    +0.028 A 
ENDBRANCH  28  31
ENDBRANCH  26  28
ENDBRANCH  22  26
ENDBRANCH   3  22
TORSDOF 8
