REMARK  Name = ZINC21993500
REMARK  11 active torsions:
REMARK  status: ('A' for Active; 'I' for Inactive)
REMARK    1  A    between atoms: C_1  and  C_2
REMARK    2  A    between atoms: C_3  and  C_28
REMARK    3  A    between atoms: C_4  and  C_27
REMARK    4  A    between atoms: C_7  and  C_8
REMARK    5  A    between atoms: C_8  and  O_10
REMARK    6  A    between atoms: O_10  and  C_11
REMARK    7  A    between atoms: C_11  and  C_12
REMARK    8  A    between atoms: N_14  and  C_15
REMARK    9  A    between atoms: C_16  and  C_24
REMARK   10  A    between atoms: C_28  and  O_30
REMARK   11  A    between atoms: O_30  and  C_31
REMARK                            x       y       z     vdW  Elec       q    Type
REMARK                         _______ _______ _______ _____ _____    ______ ____
ROOT
ATOM      1  C   UNL     1       1.141   2.072   0.002  0.00  0.00    +0.255 C 
ATOM      2  O   UNL     1       2.200   1.480  -0.011  0.00  0.00    -0.272 OA
ATOM      3  N   UNL     1      -0.017   1.382   0.010  0.00  0.00    -0.277 N 
ATOM      4  H   UNL     1      -0.977   1.919   0.022  0.00  0.00    +0.155 HD
ENDROOT
BRANCH   3   5
ATOM      5  C   UNL     1       0.002  -0.004   0.002  0.00  0.00    +0.084 A 
ATOM      6  C   UNL     1      -1.073  -0.881   0.013  0.00  0.00    +0.068 A 
ATOM      7  C   UNL     1      -0.780  -2.304  -0.003  0.00  0.00    -0.023 A 
ATOM      8  C   UNL     1       0.533  -2.620  -0.016  0.00  0.00    -0.004 A 
ATOM      9  S   UNL     1       1.374  -1.062  -0.016  0.00  0.00    -0.077 S 
ATOM     10  C   UNL     1       1.132  -3.993  -0.028  0.00  0.00    +0.043 C 
ATOM     11  C   UNL     1       0.038  -5.000   0.356  0.00  0.00    +0.005 C 
ATOM     12  C   UNL     1      -1.218  -4.703  -0.467  0.00  0.00    +0.005 C 
ATOM     13  C   UNL     1      -1.848  -3.390   0.002  0.00  0.00    +0.037 C 
BRANCH   6  14
ATOM     14  C   UNL     1      -2.455  -0.390   0.036  0.00  0.00    +0.244 C 
ATOM     15  O   UNL     1      -3.044  -0.181  -1.008  0.00  0.00    -0.270 OA
ATOM     16  N   UNL     1      -3.072  -0.170   1.214  0.00  0.00    -0.325 N 
ATOM     17  H   UNL     1      -4.108   0.198   1.231  0.00  0.00    +0.145 HD
ATOM     18  H   UNL     1      -2.540  -0.359   2.158  0.00  0.00    +0.145 HD
ENDBRANCH   6  14
ENDBRANCH   3   5
BRANCH   1  19
ATOM     19  C   UNL     1       1.121   3.579   0.011  0.00  0.00    +0.328 C 
BRANCH  19  20
ATOM     20  O   UNL     1       2.483   4.082   0.000  0.00  0.00    -0.451 OA
BRANCH  20  21
ATOM     21  C   UNL     1       2.642   5.421   0.006  0.00  0.00    +0.356 C 
ATOM     22  O   UNL     1       1.667   6.148   0.019  0.00  0.00    -0.243 OA
BRANCH  21  29
ATOM     23  C   UNL     1       3.300   8.470   0.004  0.00  0.00    +0.047 C 
ATOM     24  C   UNL     1       4.286   7.331  -0.005  0.00  0.00    -0.005 A 
ATOM     25  C   UNL     1       5.695   7.439  -0.013  0.00  0.00    +0.083 A 
ATOM     26  C   UNL     1       6.201   6.152  -0.025  0.00  0.00    +0.028 A 
ATOM     27  N   UNL     1       5.171   5.292  -0.019  0.00  0.00    -0.352 N 
ATOM     28  H   UNL     1       5.360   4.208  -0.027  0.00  0.00    +0.166 HD
ATOM     29  C   UNL     1       3.989   6.000  -0.004  0.00  0.00    +0.128 A 
ATOM     30  C   UNL     1       7.661   5.779  -0.043  0.00  0.00    +0.064 C 
BRANCH  25  31
ATOM     31  C   UNL     1       6.477   8.687  -0.015  0.00  0.00    +0.341 C 
ATOM     32  O   UNL     1       6.790   9.207  -1.068  0.00  0.00    -0.245 OA
BRANCH  31  33
ATOM     33  O   UNL     1       6.846   9.252   1.152  0.00  0.00    -0.464 OA
ATOM     34  C   UNL     1       7.615  10.482   1.074  0.00  0.00    +0.280 C 
ENDBRANCH  31  33
ENDBRANCH  25  31
ENDBRANCH  21  29
ENDBRANCH  20  21
ENDBRANCH  19  20
ENDBRANCH   1  19
TORSDOF 8
