REMARK  Name = ZINC39035034
REMARK  1 active torsions:
REMARK  status: ('A' for Active; 'I' for Inactive)
REMARK    1  A    between atoms: C_11  and  C_23
REMARK                            x       y       z     vdW  Elec       q    Type
REMARK                         _______ _______ _______ _____ _____    ______ ____
ROOT
ATOM      1  C   UNL     1      -0.017   1.393   0.010  0.00  0.00    +0.001 A 
ATOM      2  C   UNL     1       1.140   2.137   0.003  0.00  0.00    +0.001 A 
ATOM      3  C   UNL     1       2.403   1.535  -0.014  0.00  0.00    +0.012 A 
ATOM      4  C   UNL     1       2.437   0.154  -0.022  0.00  0.00    +0.031 A 
ATOM      5  C   UNL     1       1.246  -0.615  -0.013  0.00  0.00    +0.007 A 
ATOM      6  C   UNL     1       0.002  -0.004   0.002  0.00  0.00    +0.010 A 
ATOM      7  C   UNL     1       1.643  -2.027  -0.021  0.00  0.00    +0.048 C 
ATOM      8  C   UNL     1       3.009  -2.110  -0.036  0.00  0.00    +0.030 C 
ATOM      9  C   UNL     1       3.562  -0.805  -0.042  0.00  0.00    +0.192 C 
ATOM     10  O   UNL     1       4.745  -0.525  -0.059  0.00  0.00    -0.287 OA
ATOM     11  C   UNL     1       3.772  -3.415  -0.039  0.00  0.00    +0.074 C 
ATOM     12  C   UNL     1       2.822  -4.532  -0.494  0.00  0.00    +0.152 C 
ATOM     13  C   UNL     1       1.487  -4.343   0.183  0.00  0.00    +0.116 C 
ATOM     14  N   UNL     1       0.963  -5.263   0.940  0.00  0.00    -0.205 NA
ATOM     15  C   UNL     1       1.577  -6.427   1.179  0.00  0.00    +0.206 C 
ATOM     16  N   UNL     1       2.763  -6.713   0.662  0.00  0.00    -0.147 NA
ATOM     17  C   UNL     1       3.403  -5.867  -0.126  0.00  0.00    +0.250 C 
ATOM     18  O   UNL     1       4.491  -6.182  -0.566  0.00  0.00    -0.273 OA
ATOM     19  N   UNL     1       0.963  -7.350   1.981  0.00  0.00    -0.329 N 
ATOM     20  N   UNL     1       0.832  -3.152  -0.015  0.00  0.00    -0.301 N 
ATOM     21  H   UNL     1       0.095  -7.155   2.367  0.00  0.00    +0.145 HD
ATOM     22  H   UNL     1       1.396  -8.198   2.163  0.00  0.00    +0.145 HD
ATOM     23  H   UNL     1      -0.129  -3.101  -0.142  0.00  0.00    +0.153 HD
ENDROOT
BRANCH  11  24
ATOM     24  C   UNL     1       4.279  -3.709   1.349  0.00  0.00    -0.039 A 
ATOM     25  C   UNL     1       3.386  -3.855   2.394  0.00  0.00    +0.006 A 
ATOM     26  C   UNL     1       3.851  -4.125   3.668  0.00  0.00    +0.020 A 
ATOM     27  C   UNL     1       5.210  -4.248   3.896  0.00  0.00    +0.041 A 
ATOM     28  C   UNL     1       6.103  -4.102   2.850  0.00  0.00    +0.020 A 
ATOM     29  C   UNL     1       5.637  -3.838   1.576  0.00  0.00    +0.006 A 
ATOM     30 CL   UNL     1       5.794  -4.586   5.496  0.00  0.00    -0.084 Cl
ENDBRANCH  11  24
TORSDOF 1
