REMARK  Name = ZINC42653346
REMARK  6 active torsions:
REMARK  status: ('A' for Active; 'I' for Inactive)
REMARK    1  A    between atoms: C_3  and  O_17
REMARK    2  A    between atoms: C_4  and  C_10
REMARK    3  A    between atoms: C_6  and  N_7
REMARK    4  A    between atoms: C_11  and  C_12
REMARK    5  A    between atoms: C_11  and  C_14
REMARK    6  A    between atoms: O_17  and  C_18
REMARK                            x       y       z     vdW  Elec       q    Type
REMARK                         _______ _______ _______ _____ _____    ______ ____
ROOT
ATOM      1  C   UNL     1      -0.098   1.191   0.416  0.00  0.00    +0.036 A 
ATOM      2  C   UNL     1       0.976   1.911  -0.070  0.00  0.00    +0.049 A 
ATOM      3  C   UNL     1       2.214   1.304  -0.210  0.00  0.00    +0.134 A 
ATOM      4  C   UNL     1       2.370  -0.048   0.144  0.00  0.00    +0.020 A 
ATOM      5  C   UNL     1       1.271  -0.765   0.636  0.00  0.00    +0.044 A 
ATOM      6  C   UNL     1       0.050  -0.142   0.767  0.00  0.00    +0.127 A 
ENDROOT
BRANCH   6   7
ATOM      7  N   UNL     1      -1.111  -0.900   1.286  0.00  0.00    +0.056 N 
ATOM      8  O   UNL     1      -2.185  -0.356   1.403  0.00  0.00    -0.126 OA
ATOM      9  O   UNL     1      -0.985  -2.062   1.594  0.00  0.00    -0.126 OA
ENDBRANCH   6   7
BRANCH   4  10
ATOM     10  C   UNL     1       3.672  -0.702   0.001  0.00  0.00    +0.035 C 
ATOM     11  C   UNL     1       3.753  -1.962  -0.551  0.00  0.00    +0.114 C 
BRANCH  11  12
ATOM     12  C   UNL     1       2.568  -2.567  -1.180  0.00  0.00    +0.252 C 
ATOM     13  O   UNL     1       1.557  -1.909  -1.331  0.00  0.00    -0.270 OA
ATOM     14  N   UNL     1       2.605  -3.850  -1.591  0.00  0.00    -0.325 N 
ATOM     15  H   UNL     1       3.412  -4.375  -1.471  0.00  0.00    +0.145 HD
ATOM     16  H   UNL     1       1.824  -4.249  -2.006  0.00  0.00    +0.145 HD
ENDBRANCH  11  12
BRANCH  11  17
ATOM     17  C   UNL     1       4.989  -2.683  -0.511  0.00  0.00    +0.104 C 
ATOM     18  N   UNL     1       5.970  -3.255  -0.479  0.00  0.00    -0.191 NA
ENDBRANCH  11  17
ENDBRANCH   4  10
BRANCH   3  19
ATOM     19  O   UNL     1       3.268   2.011  -0.688  0.00  0.00    -0.434 OA
BRANCH  19  20
ATOM     20  C   UNL     1       3.033   3.379  -1.027  0.00  0.00    +0.541 C 
ATOM     21  F   UNL     1       2.052   3.450  -2.022  0.00  0.00    -0.166 F 
ATOM     22  F   UNL     1       2.599   4.073   0.107  0.00  0.00    -0.166 F 
ENDBRANCH  19  20
ENDBRANCH   3  19
TORSDOF 6
