REMARK  Name = ZINC09835737
REMARK  4 active torsions:
REMARK  status: ('A' for Active; 'I' for Inactive)
REMARK    1  A    between atoms: C_1  and  C_2
REMARK    2  A    between atoms: N_16  and  C_17
REMARK    3  A    between atoms: C_20  and  C_23
REMARK    4  A    between atoms: N_28  and  C_31
REMARK                            x       y       z     vdW  Elec       q    Type
REMARK                         _______ _______ _______ _____ _____    ______ ____
ROOT
ATOM      1  C   UNL     1       1.106   6.621  -2.656  0.00  0.00    +0.042 A 
ATOM      2  C   UNL     1      -0.150   7.215  -2.579  0.00  0.00    +0.024 A 
ATOM      3  C   UNL     1      -0.562   8.087  -3.561  0.00  0.00    +0.015 A 
ATOM      4  C   UNL     1       0.278   8.368  -4.642  0.00  0.00    +0.037 A 
ATOM      5  C   UNL     1       1.537   7.766  -4.719  0.00  0.00    +0.015 A 
ATOM      6  C   UNL     1       1.945   6.899  -3.731  0.00  0.00    +0.024 A 
ENDROOT
BRANCH   1  21
ATOM      7  C   UNL     1       2.967   7.505  -0.795  0.00  0.00    +0.079 C 
ATOM      8  C   UNL     1       2.114   6.286  -0.438  0.00  0.00    +0.185 C 
ATOM      9  C   UNL     1       3.001   5.217   0.216  0.00  0.00    +0.096 C 
ATOM     10  C   UNL     1       2.120   3.975   0.427  0.00  0.00    +0.114 C 
ATOM     11  C   UNL     1       0.890   4.392   1.202  0.00  0.00    +0.015 A 
ATOM     12  C   UNL     1       0.202   3.439   1.930  0.00  0.00    +0.009 A 
ATOM     13  C   UNL     1      -0.930   3.791   2.640  0.00  0.00    +0.001 A 
ATOM     14  C   UNL     1      -1.381   5.098   2.615  0.00  0.00    +0.004 A 
ATOM     15  C   UNL     1      -0.694   6.053   1.894  0.00  0.00    +0.046 A 
ATOM     16  C   UNL     1       0.449   5.703   1.182  0.00  0.00    +0.128 A 
ATOM     17  O   UNL     1       1.103   6.671   0.489  0.00  0.00    -0.468 OA
ATOM     18  N   UNL     1       1.671   3.520  -0.899  0.00  0.00    -0.292 N 
ATOM     19  C   UNL     1       1.368   4.423  -1.846  0.00  0.00    +0.310 C 
ATOM     20  O   UNL     1       0.937   4.031  -2.914  0.00  0.00    -0.252 OA
ATOM     21  N   UNL     1       1.523   5.742  -1.657  0.00  0.00    -0.216 N 
ATOM     22  H   UNL     1       1.584   2.444  -1.111  0.00  0.00    +0.151 HD
ENDBRANCH   1  21
BRANCH   4  23
ATOM     23  C   UNL     1      -0.164   9.298  -5.699  0.00  0.00    +0.246 C 
ATOM     24  O   UNL     1       0.191   9.123  -6.849  0.00  0.00    -0.270 OA
ATOM     25  N   UNL     1      -0.959  10.341  -5.391  0.00  0.00    -0.301 N 
ATOM     26  C   UNL     1      -1.458  10.530  -4.020  0.00  0.00    +0.089 C 
ATOM     27  C   UNL     1      -1.147  11.973  -3.589  0.00  0.00    -0.059 C 
ATOM     28  N   UNL     1      -1.696  12.904  -4.584  0.00  0.00    +0.384 N 
ATOM     29  C   UNL     1      -1.055  12.725  -5.893  0.00  0.00    -0.059 C 
ATOM     30  C   UNL     1      -1.357  11.316  -6.417  0.00  0.00    +0.089 C 
ATOM     31  H   UNL     1      -2.766  12.676  -4.701  0.00  0.00    -0.081 HD
BRANCH  28  32
ATOM     32  C   UNL     1      -1.576  14.295  -4.125  0.00  0.00    -0.068 C 
ATOM     33  C   UNL     1      -0.103  14.626  -3.883  0.00  0.00    -0.015 C 
ATOM     34  C   UNL     1       0.022  16.074  -3.405  0.00  0.00    -0.002 C 
ATOM     35  C   UNL     1      -0.761  16.251  -2.103  0.00  0.00    -0.000 C 
ATOM     36  C   UNL     1      -2.235  15.920  -2.345  0.00  0.00    -0.002 C 
ATOM     37  C   UNL     1      -2.360  14.472  -2.823  0.00  0.00    -0.015 C 
ENDBRANCH  28  32
ENDBRANCH   4  23
TORSDOF 3
