REMARK  Name = ZINC02237520
REMARK  4 active torsions:
REMARK  status: ('A' for Active; 'I' for Inactive)
REMARK    1  A    between atoms: C_3  and  C_6
REMARK    2  A    between atoms: N_8  and  C_9
REMARK    3  A    between atoms: C_9  and  C_28
REMARK    4  A    between atoms: N_15  and  C_20
REMARK                            x       y       z     vdW  Elec       q    Type
REMARK                         _______ _______ _______ _____ _____    ______ ____
ROOT
ATOM      1  C   UNL     1       4.512  -1.421  -0.701  0.00  0.00    +0.240 C 
ATOM      2  C   UNL     1       5.648  -2.389  -0.467  0.00  0.00    +0.097 A 
ATOM      3  C   UNL     1       6.056  -3.138   0.644  0.00  0.00    +0.262 A 
ATOM      4  N   UNL     1       7.141  -3.934   0.543  0.00  0.00    -0.274 N 
ATOM      5  C   UNL     1       7.820  -4.006  -0.616  0.00  0.00    +0.335 A 
ATOM      6  O   UNL     1       8.795  -4.729  -0.691  0.00  0.00    -0.246 OA
ATOM      7  N   UNL     1       7.444  -3.296  -1.694  0.00  0.00    -0.249 N 
ATOM      8  C   UNL     1       6.341  -2.467  -1.638  0.00  0.00    +0.125 A 
ATOM      9  N   UNL     1       5.779  -1.659  -2.597  0.00  0.00    -0.269 N 
ATOM     10  C   UNL     1       4.697  -1.000  -2.145  0.00  0.00    +0.256 C 
ATOM     11  O   UNL     1       4.006  -0.224  -2.769  0.00  0.00    -0.272 OA
ATOM     12  O   UNL     1       5.438  -3.070   1.693  0.00  0.00    -0.267 OA
ATOM     13  H   UNL     1       6.125  -1.572  -3.499  0.00  0.00    +0.156 HD
ATOM     14  H   UNL     1       7.431  -4.456   1.307  0.00  0.00    +0.173 HD
ENDROOT
BRANCH   7  15
ATOM     15  C   UNL     1       8.178  -3.397  -2.884  0.00  0.00    +0.053 A 
ATOM     16  C   UNL     1       7.839  -4.355  -3.830  0.00  0.00    +0.029 A 
ATOM     17  C   UNL     1       8.563  -4.453  -5.002  0.00  0.00    +0.040 A 
ATOM     18  C   UNL     1       9.627  -3.598  -5.233  0.00  0.00    +0.124 A 
ATOM     19  C   UNL     1       9.967  -2.642  -4.290  0.00  0.00    +0.040 A 
ATOM     20  C   UNL     1       9.242  -2.537  -3.120  0.00  0.00    +0.029 A 
ATOM     21  F   UNL     1      10.335  -3.696  -6.380  0.00  0.00    -0.205 F 
ENDBRANCH   7  15
BRANCH   1  24
ATOM     22  C   UNL     1       2.076  -1.422  -0.770  0.00  0.00    +0.281 C 
ATOM     23  O   UNL     1       2.116  -0.265  -1.147  0.00  0.00    -0.267 OA
ATOM     24  N   UNL     1       3.220  -2.089  -0.519  0.00  0.00    -0.284 N 
ATOM     25  H   UNL     1       3.189  -3.010  -0.219  0.00  0.00    +0.151 HD
BRANCH  22  28
ATOM     26  C   UNL     1      -1.394  -2.523  -0.510  0.00  0.00    +0.042 A 
ATOM     27  C   UNL     1      -0.444  -1.533  -0.806  0.00  0.00    +0.054 A 
ATOM     28  C   UNL     1       0.783  -2.090  -0.589  0.00  0.00    +0.189 A 
ATOM     29  O   UNL     1       0.599  -3.361  -0.179  0.00  0.00    -0.458 OA
ATOM     30  C   UNL     1      -0.713  -3.627  -0.130  0.00  0.00    +0.196 A 
ENDBRANCH  22  28
ENDBRANCH   1  24
BRANCH   1  31
ATOM     31  C   UNL     1       4.628  -0.214   0.232  0.00  0.00    +0.424 C 
ATOM     32  F   UNL     1       4.535  -0.640   1.561  0.00  0.00    -0.167 F 
ATOM     33  F   UNL     1       5.862   0.415   0.029  0.00  0.00    -0.167 F 
ATOM     34  F   UNL     1       3.595   0.688  -0.042  0.00  0.00    -0.167 F 
ENDBRANCH   1  31
TORSDOF 4
