REMARK  Name = ZINC32594714
REMARK  4 active torsions:
REMARK  status: ('A' for Active; 'I' for Inactive)
REMARK    1  A    between atoms: C_4  and  O_28
REMARK    2  A    between atoms: C_5  and  C_7
REMARK    3  A    between atoms: O_28  and  C_29
REMARK    4  A    between atoms: C_29  and  C_30
REMARK                            x       y       z     vdW  Elec       q    Type
REMARK                         _______ _______ _______ _____ _____    ______ ____
ROOT
ATOM      1  C   UNL     1       1.354   3.453   0.018  0.00  0.00    +0.066 C 
ATOM      2  C   UNL     1       0.344   2.470  -0.447  0.00  0.00    +0.032 A 
ATOM      3  C   UNL     1      -0.916   2.816  -0.826  0.00  0.00    +0.087 A 
ATOM      4  N   UNL     1      -1.730   1.798  -1.219  0.00  0.00    -0.311 N 
ATOM      5  H   UNL     1      -2.762   2.010  -1.534  0.00  0.00    +0.170 HD
ATOM      6  C   UNL     1      -1.265   0.526  -1.221  0.00  0.00    +0.289 A 
ATOM      7  O   UNL     1      -1.845  -0.497  -1.539  0.00  0.00    -0.260 OA
ATOM      8  S   UNL     1       0.367   0.721  -0.655  0.00  0.00    -0.030 S 
ATOM      9  S   UNL     1      -1.297   4.551  -0.755  0.00  0.00    -0.103 S 
ATOM     10  C   UNL     1       0.217   5.307  -1.397  0.00  0.00    +0.060 C 
ATOM     11  C   UNL     1       1.498   4.620  -0.934  0.00  0.00    +0.018 C 
ATOM     12  C   UNL     1       2.185   4.121  -2.245  0.00  0.00    -0.006 C 
ATOM     13  C   UNL     1       2.661   5.461  -2.955  0.00  0.00    +0.004 C 
ATOM     14  C   UNL     1       1.350   6.133  -3.424  0.00  0.00    +0.005 C 
ATOM     15  C   UNL     1       0.221   5.167  -2.952  0.00  0.00    +0.003 C 
ATOM     16  C   UNL     1       0.922   3.771  -3.111  0.00  0.00    +0.008 C 
ENDROOT
BRANCH   1  21
ATOM     17  C   UNL     1      -0.162   5.623   2.710  0.00  0.00    +0.001 A 
ATOM     18  C   UNL     1       0.186   4.931   3.856  0.00  0.00    +0.004 A 
ATOM     19  C   UNL     1       0.911   3.760   3.763  0.00  0.00    +0.046 A 
ATOM     20  C   UNL     1       1.292   3.277   2.518  0.00  0.00    +0.125 A 
ATOM     21  C   UNL     1       0.942   3.973   1.371  0.00  0.00    +0.003 A 
ATOM     22  C   UNL     1       0.220   5.148   1.469  0.00  0.00    +0.008 A 
BRANCH  20  23
ATOM     23  O   UNL     1       2.005   2.125   2.425  0.00  0.00    -0.480 OA
BRANCH  23  24
ATOM     24  C   UNL     1       2.330   1.461   3.648  0.00  0.00    +0.353 C 
BRANCH  24  25
ATOM     25  C   UNL     1       3.117   0.211   3.348  0.00  0.00    +0.393 C 
ATOM     26  O   UNL     1       3.374  -0.081   2.204  0.00  0.00    -0.243 OA
ATOM     27  O   UNL     1       3.533  -0.577   4.351  0.00  0.00    -0.243 OA
ENDBRANCH  24  25
ENDBRANCH  23  24
ENDBRANCH  20  23
ENDBRANCH   1  21
TORSDOF 4
