REMARK  Name = ZINC63151104
REMARK  14 active torsions:
REMARK  status: ('A' for Active; 'I' for Inactive)
REMARK    1  A    between atoms: C_1  and  C_2
REMARK    2  A    between atoms: C_2  and  O_3
REMARK    3  A    between atoms: O_3  and  C_4
REMARK    4  A    between atoms: C_7  and  C_12
REMARK    5  A    between atoms: C_9  and  O_10
REMARK    6  A    between atoms: O_10  and  C_11
REMARK    7  A    between atoms: C_12  and  C_14
REMARK    8  A    between atoms: C_12  and  C_30
REMARK    9  A    between atoms: C_14  and  N_15
REMARK   10  A    between atoms: C_16  and  C_18
REMARK   11  A    between atoms: C_18  and  N_19
REMARK   12  A    between atoms: C_20  and  C_22
REMARK   13  A    between atoms: C_24  and  C_29
REMARK   14  A    between atoms: C_26  and  C_28
REMARK                            x       y       z     vdW  Elec       q    Type
REMARK                         _______ _______ _______ _____ _____    ______ ____
ROOT
ATOM      1  C   UNL     1      -1.996  -6.097  -0.011  0.00  0.00    +0.064 C 
ENDROOT
BRANCH   1   2
ATOM      2  C   UNL     1      -1.354  -6.671  -1.247  0.00  0.00    -0.033 C 
ATOM      3  C   UNL     1      -1.964  -7.378  -2.227  0.00  0.00    -0.000 A 
ATOM      4  C   UNL     1      -3.353  -7.807  -2.425  0.00  0.00    +0.010 A 
ATOM      5  C   UNL     1      -3.667  -8.521  -3.530  0.00  0.00    +0.001 A 
ATOM      6  C   UNL     1      -2.701  -8.861  -4.488  0.00  0.00    +0.002 A 
ATOM      7  C   UNL     1      -1.405  -8.502  -4.375  0.00  0.00    +0.026 A 
ATOM      8  C   UNL     1      -0.963  -7.749  -3.252  0.00  0.00    +0.043 A 
ATOM      9  N   UNL     1       0.219  -7.290  -2.920  0.00  0.00    -0.380 N 
ATOM     10  C   UNL     1       0.101  -6.569  -1.648  0.00  0.00    +0.145 C 
ATOM     11  H   UNL     1       1.035  -7.404  -3.432  0.00  0.00    +0.160 HD
ENDBRANCH   1   2
BRANCH   1  15
ATOM     12  C   UNL     1      -1.498  -1.849   0.006  0.00  0.00    +0.162 A 
ATOM     13  C   UNL     1      -0.389  -2.680  -0.003  0.00  0.00    +0.050 A 
ATOM     14  C   UNL     1      -0.553  -4.052  -0.008  0.00  0.00    +0.008 A 
ATOM     15  C   UNL     1      -1.823  -4.600  -0.005  0.00  0.00    -0.035 A 
ATOM     16  C   UNL     1      -2.934  -3.777   0.004  0.00  0.00    +0.053 A 
ATOM     17  C   UNL     1      -2.776  -2.400   0.016  0.00  0.00    +0.162 A 
BRANCH  17  18
ATOM     18  O   UNL     1      -3.868  -1.589   0.030  0.00  0.00    -0.491 OA
ATOM     19  C   UNL     1      -5.148  -2.225   0.039  0.00  0.00    +0.277 C 
ENDBRANCH  17  18
BRANCH  12  20
ATOM     20  O   UNL     1      -1.339  -0.499   0.012  0.00  0.00    -0.489 OA
BRANCH  20  22
ATOM     21  C   UNL     1      -0.019   1.526   0.010  0.00  0.00    +0.048 C 
ATOM     22  C   UNL     1       0.002  -0.004   0.002  0.00  0.00    +0.226 C 
ENDBRANCH  20  22
ENDBRANCH  12  20
ENDBRANCH   1  15
BRANCH   1  23
ATOM     23  C   UNL     1      -1.333  -6.692   1.232  0.00  0.00    +0.116 C 
BRANCH  23  24
ATOM     24  N   UNL     1      -1.603  -8.131   1.288  0.00  0.00    -0.313 N 
ATOM     25  C   UNL     1      -1.114  -8.869   2.304  0.00  0.00    +0.230 C 
ATOM     26  O   UNL     1      -0.450  -8.343   3.172  0.00  0.00    -0.274 OA
ATOM     27  H   UNL     1      -2.134  -8.552   0.594  0.00  0.00    +0.149 HD
BRANCH  25  28
ATOM     28  C   UNL     1      -1.392 -10.349   2.362  0.00  0.00    +0.200 C 
BRANCH  28  29
ATOM     29  N   UNL     1      -0.757 -10.919   3.552  0.00  0.00    -0.303 N 
ATOM     30  C   UNL     1      -0.872 -12.237   3.812  0.00  0.00    +0.244 C 
ATOM     31  O   UNL     1      -1.503 -12.952   3.059  0.00  0.00    -0.270 OA
ATOM     32  H   UNL     1      -0.253 -10.349   4.154  0.00  0.00    +0.150 HD
BRANCH  30  33
ATOM     33  C   UNL     1      -0.230 -12.812   5.013  0.00  0.00    +0.037 A 
ATOM     34  C   UNL     1       0.490 -11.993   5.884  0.00  0.00    +0.016 A 
ATOM     35  C   UNL     1       1.086 -12.536   7.003  0.00  0.00    -0.049 A 
ATOM     36  C   UNL     1       0.971 -13.890   7.264  0.00  0.00    +0.006 A 
ATOM     37  C   UNL     1       0.258 -14.708   6.405  0.00  0.00    -0.049 A 
ATOM     38  C   UNL     1      -0.348 -14.177   5.285  0.00  0.00    +0.016 A 
ATOM     39  C   UNL     1       0.138 -16.182   6.697  0.00  0.00    +0.044 C 
ATOM     40  C   UNL     1       1.864 -11.653   7.944  0.00  0.00    +0.044 C 
ENDBRANCH  30  33
ENDBRANCH  28  29
ENDBRANCH  25  28
ENDBRANCH  23  24
ENDBRANCH   1  23
TORSDOF 10
