REMARK  Name = ZINC06384938
REMARK  7 active torsions:
REMARK  status: ('A' for Active; 'I' for Inactive)
REMARK    1  A    between atoms: C_1  and  O_2
REMARK    2  A    between atoms: O_2  and  C_3
REMARK    3  A    between atoms: C_3  and  C_5
REMARK    4  A    between atoms: C_5  and  C_16
REMARK    5  A    between atoms: C_6  and  C_14
REMARK    6  A    between atoms: C_16  and  C_17
REMARK    7  A    between atoms: C_17  and  C_19
REMARK                            x       y       z     vdW  Elec       q    Type
REMARK                         _______ _______ _______ _____ _____    ______ ____
ROOT
ATOM      1  C   UNL     1       0.663  -2.093  -1.121  0.00  0.00    +0.162 C 
ATOM      2  C   UNL     1       0.802  -2.511  -2.587  0.00  0.00    +0.212 C 
ATOM      3  C   UNL     1      -0.519  -2.311  -3.287  0.00  0.00    +0.238 C 
ATOM      4  O   UNL     1      -0.543  -1.972  -4.450  0.00  0.00    -0.274 OA
ATOM      5  N   UNL     1      -1.670  -2.510  -2.619  0.00  0.00    -0.267 N 
ATOM      6  C   UNL     1      -1.668  -2.801  -1.307  0.00  0.00    +0.137 C 
ATOM      7  S   UNL     1      -3.113  -3.347  -0.570  0.00  0.00    -0.018 S 
ATOM      8  N   UNL     1      -0.559  -2.673  -0.561  0.00  0.00    -0.309 N 
ATOM      9  H   UNL     1      -2.514  -2.443  -3.092  0.00  0.00    +0.157 HD
ATOM     10  H   UNL     1      -0.568  -2.969   0.363  0.00  0.00    +0.149 HD
ENDROOT
BRANCH   1  11
ATOM     11  C   UNL     1       0.592  -0.591  -1.032  0.00  0.00    +0.333 C 
ATOM     12  O   UNL     1       1.079   0.090  -1.904  0.00  0.00    -0.248 OA
BRANCH  11  14
ATOM     13  C   UNL     1      -0.042   1.421   0.035  0.00  0.00    +0.280 C 
ATOM     14  O   UNL     1      -0.012  -0.008   0.015  0.00  0.00    -0.466 OA
ENDBRANCH  11  14
ENDBRANCH   1  11
BRANCH   2  15
ATOM     15  C   UNL     1       1.188  -3.930  -2.659  0.00  0.00    +0.078 C 
ATOM     16  N   UNL     1       1.486  -5.025  -2.714  0.00  0.00    -0.196 NA
ENDBRANCH   2  15
BRANCH   1  17
ATOM     17  C   UNL     1       1.874  -2.594  -0.331  0.00  0.00    +0.118 C 
BRANCH  17  18
ATOM     18  C   UNL     1       1.680  -2.290   1.132  0.00  0.00    +0.166 C 
ATOM     19  O   UNL     1       0.672  -1.727   1.506  0.00  0.00    -0.292 OA
BRANCH  18  20
ATOM     20  C   UNL     1       2.709  -2.673   2.103  0.00  0.00    +0.025 A 
ATOM     21  C   UNL     1       3.816  -3.422   1.710  0.00  0.00    +0.012 A 
ATOM     22  C   UNL     1       4.787  -3.783   2.631  0.00  0.00    +0.001 A 
ATOM     23  C   UNL     1       4.701  -3.426   3.943  0.00  0.00    +0.008 A 
ATOM     24  C   UNL     1       3.613  -2.670   4.412  0.00  0.00    -0.017 A 
ATOM     25  C   UNL     1       2.599  -2.273   3.506  0.00  0.00    -0.007 A 
ATOM     26  C   UNL     1       1.516  -1.517   3.968  0.00  0.00    +0.009 A 
ATOM     27  C   UNL     1       1.452  -1.165   5.284  0.00  0.00    +0.001 A 
ATOM     28  C   UNL     1       2.450  -1.549   6.176  0.00  0.00    +0.001 A 
ATOM     29  C   UNL     1       3.512  -2.295   5.763  0.00  0.00    +0.008 A 
ENDBRANCH  18  20
ENDBRANCH  17  18
ENDBRANCH   1  17
TORSDOF 6
