REMARK  Name = ZINC67543721
REMARK  7 active torsions:
REMARK  status: ('A' for Active; 'I' for Inactive)
REMARK    1  A    between atoms: C_1  and  O_2
REMARK    2  A    between atoms: O_2  and  C_3
REMARK    3  A    between atoms: C_6  and  N_23
REMARK    4  A    between atoms: C_7  and  C_9
REMARK    5  A    between atoms: N_11  and  C_12
REMARK    6  A    between atoms: C_12  and  C_14
REMARK    7  A    between atoms: C_12  and  C_20
REMARK                            x       y       z     vdW  Elec       q    Type
REMARK                         _______ _______ _______ _____ _____    ______ ____
ROOT
ATOM      1  C   UNL     1       1.480  -4.098   2.206  0.00  0.00    +0.247 C 
ATOM      2  O   UNL     1       1.962  -4.637   3.184  0.00  0.00    -0.270 OA
ATOM      3  N   UNL     1       1.048  -4.845   1.170  0.00  0.00    -0.296 N 
ATOM      4  H   UNL     1       0.663  -4.415   0.390  0.00  0.00    +0.150 HD
ENDROOT
BRANCH   1   9
ATOM      5  C   UNL     1       1.825  -0.538   1.050  0.00  0.00    +0.121 A 
ATOM      6  C   UNL     1       1.155   0.138   2.061  0.00  0.00    +0.048 A 
ATOM      7  C   UNL     1       0.594  -0.562   3.113  0.00  0.00    +0.037 A 
ATOM      8  C   UNL     1       0.697  -1.937   3.165  0.00  0.00    +0.138 A 
ATOM      9  C   UNL     1       1.368  -2.625   2.153  0.00  0.00    +0.070 A 
ATOM     10  C   UNL     1       1.929  -1.918   1.089  0.00  0.00    +0.061 A 
BRANCH   8  11
ATOM     11  N   UNL     1       0.096  -2.682   4.294  0.00  0.00    +0.057 N 
ATOM     12  O   UNL     1      -0.382  -2.081   5.229  0.00  0.00    -0.126 OA
ATOM     13  O   UNL     1       0.082  -3.891   4.282  0.00  0.00    -0.126 OA
ENDBRANCH   8  11
BRANCH   5  15
ATOM     14  C   UNL     1       2.231   1.577   0.041  0.00  0.00    +0.277 C 
ATOM     15  O   UNL     1       2.375   0.155   0.018  0.00  0.00    -0.495 OA
ENDBRANCH   5  15
ENDBRANCH   1   9
BRANCH   3  16
ATOM     16  C   UNL     1       1.159  -6.304   1.223  0.00  0.00    +0.189 C 
BRANCH  16  17
ATOM     17  C   UNL     1       0.119  -6.920   0.322  0.00  0.00    -0.018 A 
ATOM     18  C   UNL     1      -0.153  -6.352  -0.908  0.00  0.00    +0.006 A 
ATOM     19  C   UNL     1      -1.107  -6.916  -1.735  0.00  0.00    +0.000 A 
ATOM     20  C   UNL     1      -1.788  -8.049  -1.331  0.00  0.00    +0.000 A 
ATOM     21  C   UNL     1      -1.516  -8.618  -0.101  0.00  0.00    +0.000 A 
ATOM     22  C   UNL     1      -0.559  -8.056   0.724  0.00  0.00    +0.006 A 
ENDBRANCH  16  17
BRANCH  16  23
ATOM     23  C   UNL     1       2.532  -6.721   0.762  0.00  0.00    +0.235 C 
ATOM     24  O   UNL     1       3.339  -5.881   0.424  0.00  0.00    -0.274 OA
ATOM     25  N   UNL     1       2.864  -8.027   0.727  0.00  0.00    -0.328 N 
ATOM     26  H   UNL     1       2.219  -8.698   0.997  0.00  0.00    +0.145 HD
ATOM     27  H   UNL     1       3.748  -8.295   0.430  0.00  0.00    +0.145 HD
ENDBRANCH  16  23
ENDBRANCH   3  16
TORSDOF 6
