REMARK  Name = ZINC42577214
REMARK  6 active torsions:
REMARK  status: ('A' for Active; 'I' for Inactive)
REMARK    1  A    between atoms: C_1  and  C_2
REMARK    2  A    between atoms: C_2  and  C_3
REMARK    3  A    between atoms: C_9  and  N_11
REMARK    4  A    between atoms: C_12  and  C_14
REMARK    5  A    between atoms: C_16  and  N_20
REMARK    6  A    between atoms: N_18  and  C_19
REMARK                            x       y       z     vdW  Elec       q    Type
REMARK                         _______ _______ _______ _____ _____    ______ ____
ROOT
ATOM      1  N   UNL     1       1.460  -2.712  -0.305  0.00  0.00    -0.307 N 
ATOM      2  C   UNL     1       1.041  -3.905   0.163  0.00  0.00    +0.261 C 
ATOM      3  O   UNL     1       0.136  -4.494  -0.398  0.00  0.00    -0.269 OA
ATOM      4  H   UNL     1       2.124  -2.204   0.187  0.00  0.00    +0.149 HD
ENDROOT
BRANCH   1  10
ATOM      5  C   UNL     1       1.030  -0.657  -1.559  0.00  0.00    +0.009 C 
ATOM      6  C   UNL     1       2.502  -0.259  -1.438  0.00  0.00    +0.005 C 
ATOM      7  C   UNL     1       3.285  -0.832  -2.620  0.00  0.00    +0.000 C 
ATOM      8  C   UNL     1       3.168  -2.358  -2.617  0.00  0.00    +0.002 C 
ATOM      9  C   UNL     1       1.696  -2.757  -2.739  0.00  0.00    +0.022 C 
ATOM     10  C   UNL     1       0.912  -2.183  -1.556  0.00  0.00    +0.076 C 
BRANCH   5  12
ATOM     11  C   UNL     1       0.259   1.445  -0.450  0.00  0.00    +0.004 C 
ATOM     12  C   UNL     1       0.246  -0.083  -0.377  0.00  0.00    +0.002 C 
ENDBRANCH   5  12
ENDBRANCH   1  10
BRANCH   2  13
ATOM     13  C   UNL     1       1.676  -4.492   1.347  0.00  0.00    +0.106 A 
ATOM     14  C   UNL     1       2.643  -3.898   2.131  0.00  0.00    +0.055 A 
ATOM     15  C   UNL     1       2.963  -4.806   3.150  0.00  0.00    +0.043 A 
ATOM     16  C   UNL     1       2.200  -5.915   2.972  0.00  0.00    +0.108 A 
ATOM     17  N   UNL     1       1.409  -5.732   1.881  0.00  0.00    -0.344 N 
ATOM     18  C   UNL     1       0.437  -6.695   1.358  0.00  0.00    +0.149 C 
BRANCH  15  19
ATOM     19  N   UNL     1       3.908  -4.604   4.174  0.00  0.00    -0.357 N 
ATOM     20  H   UNL     1       4.406  -3.773   4.217  0.00  0.00    +0.142 HD
ATOM     21  H   UNL     1       4.059  -5.296   4.837  0.00  0.00    +0.142 HD
ENDBRANCH  15  19
ENDBRANCH   2  13
TORSDOF 4
