REMARK  Name = ZINC06133496
REMARK  10 active torsions:
REMARK  status: ('A' for Active; 'I' for Inactive)
REMARK    1  A    between atoms: C_1  and  C_2
REMARK    2  A    between atoms: C_4  and  C_28
REMARK    3  A    between atoms: C_5  and  S_9
REMARK    4  A    between atoms: C_6  and  C_8
REMARK    5  A    between atoms: S_9  and  N_12
REMARK    6  A    between atoms: N_12  and  C_13
REMARK    7  A    between atoms: C_15  and  S_24
REMARK    8  A    between atoms: C_16  and  O_23
REMARK    9  A    between atoms: S_24  and  C_25
REMARK   10  A    between atoms: C_25  and  C_26
REMARK                            x       y       z     vdW  Elec       q    Type
REMARK                         _______ _______ _______ _____ _____    ______ ____
ROOT
ATOM      1  C   UNL     1      -1.647   5.115   1.168  0.00  0.00    +0.057 A 
ATOM      2  C   UNL     1      -2.626   5.910   0.617  0.00  0.00    +0.043 A 
ATOM      3  C   UNL     1      -3.928   5.897   1.126  0.00  0.00    +0.052 A 
ATOM      4  C   UNL     1      -4.259   5.084   2.194  0.00  0.00    +0.138 A 
ATOM      5  C   UNL     1      -3.278   4.262   2.776  0.00  0.00    +0.026 A 
ATOM      6  C   UNL     1      -1.958   4.276   2.259  0.00  0.00    +0.008 A 
ATOM      7  C   UNL     1      -0.982   3.453   2.842  0.00  0.00    +0.010 A 
ATOM      8  C   UNL     1      -1.313   2.655   3.894  0.00  0.00    +0.001 A 
ATOM      9  C   UNL     1      -2.610   2.641   4.404  0.00  0.00    +0.001 A 
ATOM     10  C   UNL     1      -3.584   3.420   3.860  0.00  0.00    +0.012 A 
ENDROOT
BRANCH   1  11
ATOM     11  N   UNL     1      -0.350   5.138   0.649  0.00  0.00    -0.216 N 
ATOM     12  H   UNL     1       0.010   4.353   0.209  0.00  0.00    +0.174 HD
BRANCH  11  13
ATOM     13  S   UNL     1       0.571   6.507   0.785  0.00  0.00    +0.073 S 
ATOM     14  O   UNL     1       1.837   6.203   0.215  0.00  0.00    -0.150 OA
ATOM     15  O   UNL     1      -0.232   7.585   0.325  0.00  0.00    -0.150 OA
BRANCH  13  20
ATOM     16  C   UNL     1       1.511   7.447   6.670  0.00  0.00    +0.044 C 
ATOM     17  C   UNL     1       1.276   7.213   5.200  0.00  0.00    -0.050 A 
ATOM     18  C   UNL     1       2.063   6.309   4.511  0.00  0.00    +0.008 A 
ATOM     19  C   UNL     1       1.847   6.094   3.162  0.00  0.00    -0.023 A 
ATOM     20  C   UNL     1       0.846   6.782   2.504  0.00  0.00    +0.114 A 
ATOM     21  C   UNL     1       0.063   7.690   3.192  0.00  0.00    -0.023 A 
ATOM     22  C   UNL     1       0.275   7.902   4.542  0.00  0.00    +0.008 A 
ATOM     23  C   UNL     1      -1.025   8.444   2.473  0.00  0.00    +0.046 C 
ATOM     24  C   UNL     1       2.705   5.109   2.410  0.00  0.00    +0.046 C 
ENDBRANCH  13  20
ENDBRANCH  11  13
ENDBRANCH   1  11
BRANCH   4  25
ATOM     25  O   UNL     1      -5.531   5.080   2.681  0.00  0.00    -0.505 OA
ATOM     26  H   UNL     1      -5.686   5.729   3.381  0.00  0.00    +0.292 HD
ENDBRANCH   4  25
BRANCH   3  27
ATOM     27  S   UNL     1      -5.159   6.926   0.399  0.00  0.00    -0.110 S 
BRANCH  27  28
ATOM     28  C   UNL     1      -4.279   7.787  -0.934  0.00  0.00    +0.199 C 
BRANCH  28  29
ATOM     29  C   UNL     1      -5.230   8.713  -1.647  0.00  0.00    +0.366 C 
ATOM     30  O   UNL     1      -6.383   8.785  -1.293  0.00  0.00    -0.245 OA
ATOM     31  O   UNL     1      -4.797   9.458  -2.676  0.00  0.00    -0.245 OA
ENDBRANCH  28  29
ENDBRANCH  27  28
ENDBRANCH   3  27
TORSDOF 7
