REMARK  Name = ZINC06681800
REMARK  5 active torsions:
REMARK  status: ('A' for Active; 'I' for Inactive)
REMARK    1  A    between atoms: C_1  and  C_2
REMARK    2  A    between atoms: C_8  and  C_10
REMARK    3  A    between atoms: C_12  and  S_15
REMARK    4  A    between atoms: S_15  and  N_18
REMARK    5  A    between atoms: N_18  and  C_19
REMARK                            x       y       z     vdW  Elec       q    Type
REMARK                         _______ _______ _______ _____ _____    ______ ____
ROOT
ATOM      1  C   UNL     1       1.738  -4.032  -0.037  0.00  0.00    +0.076 A 
ATOM      2  C   UNL     1       1.104  -5.265  -0.038  0.00  0.00    +0.049 A 
ATOM      3  C   UNL     1       1.905  -6.379  -0.052  0.00  0.00    +0.113 A 
ATOM      4  C   UNL     1       3.255  -6.226  -0.064  0.00  0.00    +0.074 A 
ATOM      5  S   UNL     1       3.458  -4.504  -0.064  0.00  0.00    -0.090 S 
ENDROOT
BRANCH   1  13
ATOM      6  C   UNL     1      -1.237   2.232   0.020  0.00  0.00    +0.089 C 
ATOM      7  C   UNL     1      -0.016   1.348   0.009  0.00  0.00    +0.136 A 
ATOM      8  C   UNL     1       0.002  -0.004   0.002  0.00  0.00    +0.091 A 
ATOM      9  C   UNL     1       1.385  -0.328  -0.013  0.00  0.00    +0.168 A 
ATOM     10  N   UNL     1       2.026   0.811  -0.013  0.00  0.00    -0.063 NA
ATOM     11  O   UNL     1       1.263   1.749  -0.001  0.00  0.00    -0.358 OA
ATOM     12  N   UNL     1       1.946  -1.604  -0.025  0.00  0.00    -0.263 N 
ATOM     13  C   UNL     1       1.148  -2.691  -0.024  0.00  0.00    +0.256 C 
ATOM     14  O   UNL     1      -0.061  -2.557  -0.012  0.00  0.00    -0.269 OA
ATOM     15  H   UNL     1       3.039  -1.724  -0.036  0.00  0.00    +0.157 HD
ENDBRANCH   1  13
BRANCH   3  16
ATOM     16  S   UNL     1       1.191  -7.990  -0.056  0.00  0.00    +0.059 S 
ATOM     17  O   UNL     1       2.170  -8.870   0.481  0.00  0.00    -0.153 OA
ATOM     18  O   UNL     1      -0.107  -7.860   0.508  0.00  0.00    -0.153 OA
BRANCH  16  19
ATOM     19  N   UNL     1       0.978  -8.428  -1.638  0.00  0.00    -0.187 NA
ATOM     20  H   UNL     1      -0.035  -8.414  -2.068  0.00  0.00    +0.148 HD
BRANCH  19  21
ATOM     21  C   UNL     1       2.141  -8.619  -2.508  0.00  0.00    +0.077 C 
ATOM     22  C   UNL     1       2.415  -7.329  -3.283  0.00  0.00    +0.020 C 
ATOM     23  C   UNL     1       3.630  -7.528  -4.192  0.00  0.00    +0.002 C 
ATOM     24  C   UNL     1       3.349  -8.664  -5.177  0.00  0.00    +0.000 C 
ATOM     25  C   UNL     1       3.075  -9.955  -4.402  0.00  0.00    +0.002 C 
ATOM     26  C   UNL     1       1.860  -9.756  -3.493  0.00  0.00    +0.020 C 
ENDBRANCH  19  21
ENDBRANCH  16  19
ENDBRANCH   3  16
TORSDOF 4
