REMARK  Name = ZINC08326322
REMARK  10 active torsions:
REMARK  status: ('A' for Active; 'I' for Inactive)
REMARK    1  A    between atoms: C_1  and  C_2
REMARK    2  A    between atoms: C_2  and  CA_3
REMARK    3  A    between atoms: CA_3  and  C_5
REMARK    4  A    between atoms: CA_3  and  N_43
REMARK    5  A    between atoms: C_5  and  O_6
REMARK    6  A    between atoms: C_7  and  C_8
REMARK    7  A    between atoms: C_7  and  N_43
REMARK    8  A    between atoms: C_13  and  O_14
REMARK    9  A    between atoms: O_14  and  C_15
REMARK   10  A    between atoms: C_15  and  C_16
REMARK                            x       y       z     vdW  Elec       q    Type
REMARK                         _______ _______ _______ _____ _____    ______ ____
ROOT
ATOM      1  C   UNL     1      -1.707   3.381  -0.595  0.00  0.00    -0.022 A 
ATOM      2  C   UNL     1      -0.639   4.197  -0.913  0.00  0.00    +0.020 A 
ATOM      3  C   UNL     1       0.608   3.647  -1.145  0.00  0.00    +0.018 A 
ATOM      4  C   UNL     1       0.790   2.278  -1.058  0.00  0.00    +0.019 A 
ATOM      5  C   UNL     1      -0.275   1.458  -0.741  0.00  0.00    +0.047 A 
ATOM      6  C   UNL     1      -1.529   2.007  -0.514  0.00  0.00    +0.122 A 
ATOM      7 BR   UNL     1       2.068   4.768  -1.580  0.00  0.00    -0.050 Br
ENDROOT
BRANCH   1   8
ATOM      8  C   UNL     1      -3.066   3.981  -0.342  0.00  0.00    -0.043 C 
BRANCH   8   9
ATOM      9  N   UNL     1      -3.290   4.075   1.113  0.00  0.00    +0.385 N 
ATOM     10  H1  UNL     1      -3.337   3.130   1.511  0.00  0.00    -0.085 HD
ATOM     11  H2  UNL     1      -2.512   4.589   1.543  0.00  0.00    -0.085 HD
BRANCH   9  12
ATOM     12  CA  UNL     1      -4.553   4.784   1.392  0.00  0.00    -0.046 C 
BRANCH  12  14
ATOM     13  C   UNL     1      -5.470   2.852   2.684  0.00  0.00    +0.002 C 
ATOM     14  C   UNL     1      -5.093   4.333   2.751  0.00  0.00    -0.017 C 
ENDBRANCH  12  14
BRANCH  12  15
ATOM     15  C   UNL     1      -4.298   6.292   1.420  0.00  0.00    +0.140 C 
BRANCH  15  16
ATOM     16  O   UNL     1      -3.430   6.608   2.510  0.00  0.00    -0.397 OA
ATOM     17  H   UNL     1      -3.224   7.550   2.589  0.00  0.00    +0.209 HD
ENDBRANCH  15  16
ENDBRANCH  12  15
ENDBRANCH   9  12
ENDBRANCH   8   9
ENDBRANCH   1   8
BRANCH   6  18
ATOM     18  O   UNL     1      -2.580   1.202  -0.207  0.00  0.00    -0.487 OA
BRANCH  18  19
ATOM     19  C   UNL     1      -2.321  -0.202  -0.134  0.00  0.00    +0.267 C 
BRANCH  19  20
ATOM     20  C   UNL     1      -3.594  -0.930   0.215  0.00  0.00    +0.025 A 
ATOM     21  C   UNL     1      -4.763  -0.220   0.414  0.00  0.00    +0.010 A 
ATOM     22  C   UNL     1      -5.932  -0.888   0.728  0.00  0.00    +0.001 A 
ATOM     23  C   UNL     1      -5.930  -2.265   0.855  0.00  0.00    +0.003 A 
ATOM     24  C   UNL     1      -4.761  -2.975   0.662  0.00  0.00    +0.039 A 
ATOM     25  C   UNL     1      -3.591  -2.308   0.342  0.00  0.00    +0.130 A 
ATOM     26  F   UNL     1      -2.447  -3.002   0.153  0.00  0.00    -0.205 F 
ENDBRANCH  19  20
ENDBRANCH  18  19
ENDBRANCH   6  18
TORSDOF 9
