REMARK  Name = ZINC05311688
REMARK  8 active torsions:
REMARK  status: ('A' for Active; 'I' for Inactive)
REMARK    1  A    between atoms: C_1  and  C_2
REMARK    2  A    between atoms: C_2  and  N_55
REMARK    3  A    between atoms: C_3  and  C_4
REMARK    4  A    between atoms: C_3  and  N_55
REMARK    5  A    between atoms: C_5  and  N_55
REMARK    6  A    between atoms: N_7  and  C_24
REMARK    7  A    between atoms: C_9  and  C_18
REMARK    8  A    between atoms: N_11  and  C_12
REMARK                            x       y       z     vdW  Elec       q    Type
REMARK                         _______ _______ _______ _____ _____    ______ ____
ROOT
ATOM      1  C   UNL     1      -1.053  -1.077   0.077  0.00  0.00    +0.153 C 
ATOM      2  N   UNL     1      -1.125  -2.302  -0.741  0.00  0.00    -0.217 N 
ATOM      3  N   UNL     1      -0.148  -3.289  -0.520  0.00  0.00    -0.162 NA
ATOM      4  C   UNL     1       1.030  -2.955  -0.003  0.00  0.00    +0.160 C 
ATOM      5  N   UNL     1       1.318  -1.700   0.319  0.00  0.00    -0.246 N 
ATOM      6  N   UNL     1       0.368  -0.683   0.120  0.00  0.00    -0.246 N 
ATOM      7  H   UNL     1       2.214  -1.477   0.705  0.00  0.00    +0.172 HD
ENDROOT
BRANCH   6   8
ATOM      8  C   UNL     1       0.754   0.648  -0.038  0.00  0.00    +0.048 A 
ATOM      9  C   UNL     1      -0.204   1.632  -0.246  0.00  0.00    +0.025 A 
ATOM     10  C   UNL     1       0.182   2.950  -0.396  0.00  0.00    +0.002 A 
ATOM     11  C   UNL     1       1.522   3.288  -0.351  0.00  0.00    +0.000 A 
ATOM     12  C   UNL     1       2.479   2.311  -0.151  0.00  0.00    +0.002 A 
ATOM     13  C   UNL     1       2.100   0.993   0.006  0.00  0.00    +0.025 A 
ENDBRANCH   6   8
BRANCH   4  14
ATOM     14  C   UNL     1       2.047  -4.008   0.213  0.00  0.00    +0.018 A 
ATOM     15  C   UNL     1       1.765  -5.333  -0.118  0.00  0.00    +0.011 A 
ATOM     16  C   UNL     1       2.719  -6.309   0.081  0.00  0.00    +0.001 A 
ATOM     17  C   UNL     1       3.950  -5.978   0.619  0.00  0.00    +0.000 A 
ATOM     18  C   UNL     1       4.234  -4.666   0.954  0.00  0.00    +0.001 A 
ATOM     19  C   UNL     1       3.290  -3.680   0.755  0.00  0.00    +0.011 A 
ENDBRANCH   4  14
BRANCH   2  20
ATOM     20  C   UNL     1      -2.125  -2.475  -1.699  0.00  0.00    +0.051 A 
ATOM     21  C   UNL     1      -2.988  -1.429  -2.001  0.00  0.00    +0.025 A 
ATOM     22  C   UNL     1      -3.973  -1.601  -2.954  0.00  0.00    +0.002 A 
ATOM     23  C   UNL     1      -4.108  -2.817  -3.599  0.00  0.00    +0.000 A 
ATOM     24  C   UNL     1      -3.254  -3.863  -3.296  0.00  0.00    +0.002 A 
ATOM     25  C   UNL     1      -2.263  -3.695  -2.349  0.00  0.00    +0.025 A 
ENDBRANCH   2  20
BRANCH   1  26
ATOM     26  N   UNL     1      -1.538  -1.324   1.452  0.00  0.00    +0.405 N 
ATOM     27  H   UNL     1      -1.428  -0.465   2.003  0.00  0.00    -0.076 HD
BRANCH  26  29
ATOM     28  C   UNL     1      -3.801  -0.427   1.235  0.00  0.00    -0.017 C 
ATOM     29  C   UNL     1      -2.968  -1.696   1.424  0.00  0.00    -0.077 C 
ENDBRANCH  26  29
BRANCH  26  30
ATOM     30  C   UNL     1      -0.747  -2.403   2.080  0.00  0.00    -0.077 C 
ATOM     31  C   UNL     1      -1.139  -2.508   3.555  0.00  0.00    -0.017 C 
ENDBRANCH  26  30
ENDBRANCH   1  26
TORSDOF 6
