REMARK  Name = ZINC05151288
REMARK  4 active torsions:
REMARK  status: ('A' for Active; 'I' for Inactive)
REMARK    1  A    between atoms: C_1  and  N_42
REMARK    2  A    between atoms: C_9  and  O_22
REMARK    3  A    between atoms: C_11  and  C_14
REMARK    4  A    between atoms: C_15  and  C_16
REMARK                            x       y       z     vdW  Elec       q    Type
REMARK                         _______ _______ _______ _____ _____    ______ ____
ROOT
ATOM      1  C   UNL     1       1.853   8.830  -2.716  0.00  0.00    -0.096 C 
ATOM      2  C   UNL     1       2.742   6.603  -2.377  0.00  0.00    -0.074 C 
ATOM      3  C   UNL     1       2.636   5.371  -1.473  0.00  0.00    +0.018 C 
ATOM      4  C   UNL     1       1.248   4.767  -1.652  0.00  0.00    -0.027 A 
ATOM      5  C   UNL     1       0.256   5.505  -2.207  0.00  0.00    -0.021 A 
ATOM      6  S   UNL     1      -1.154   4.431  -2.225  0.00  0.00    -0.080 S 
ATOM      7  C   UNL     1      -0.444   3.047  -1.512  0.00  0.00    +0.080 A 
ATOM      8  C   UNL     1       0.885   3.417  -1.265  0.00  0.00    +0.067 A 
ATOM      9  C   UNL     1       1.769   2.397  -0.643  0.00  0.00    +0.220 C 
ATOM     10  N   UNL     1       1.206   1.327  -0.150  0.00  0.00    -0.223 NA
ATOM     11  C   UNL     1      -0.231   1.090  -0.106  0.00  0.00    +0.217 C 
ATOM     12  N   UNL     1      -0.933   1.805  -1.189  0.00  0.00    -0.313 N 
ATOM     13  C   UNL     1       0.361   6.917  -2.689  0.00  0.00    -0.036 C 
ATOM     14  H   UNL     1      -1.696   1.420  -1.647  0.00  0.00    +0.149 HD
ATOM     15  N   UNL     1       1.599   7.501  -2.118  0.00  0.00    +0.381 N 
ATOM     16  H   UNL     1       1.481   7.609  -1.104  0.00  0.00    -0.082 HD
ENDROOT
BRANCH  11  17
ATOM     17  C   UNL     1      -0.768   1.561   1.221  0.00  0.00    +0.019 C 
ATOM     18  C   UNL     1      -1.250   0.684   2.090  0.00  0.00    +0.007 C 
BRANCH  18  19
ATOM     19  C   UNL     1      -1.099  -0.764   1.839  0.00  0.00    -0.025 A 
ATOM     20  C   UNL     1      -2.137  -1.642   2.154  0.00  0.00    +0.008 A 
ATOM     21  C   UNL     1      -1.992  -2.993   1.911  0.00  0.00    +0.001 A 
ATOM     22  C   UNL     1      -0.816  -3.479   1.368  0.00  0.00    +0.000 A 
ATOM     23  C   UNL     1       0.219  -2.615   1.060  0.00  0.00    +0.001 A 
ATOM     24  C   UNL     1       0.085  -1.261   1.292  0.00  0.00    +0.008 A 
ENDBRANCH  18  19
ENDBRANCH  11  17
BRANCH   9  25
ATOM     25  O   UNL     1       3.110   2.571  -0.590  0.00  0.00    -0.492 OA
ATOM     26  H   UNL     1       3.584   1.844  -0.163  0.00  0.00    +0.294 HD
ENDBRANCH   9  25
TORSDOF 3
