REMARK  Name = ZINC64788525
REMARK  4 active torsions:
REMARK  status: ('A' for Active; 'I' for Inactive)
REMARK    1  A    between atoms: C_4  and  C_7
REMARK    2  A    between atoms: C_7  and  N_8
REMARK    3  A    between atoms: C_21  and  C_24
REMARK    4  A    between atoms: C_27  and  O_30
REMARK                            x       y       z     vdW  Elec       q    Type
REMARK                         _______ _______ _______ _____ _____    ______ ____
ROOT
ATOM      1  N   UNL     1       4.152  -0.952   1.338  0.00  0.00    -0.217 N 
ATOM      2  C   UNL     1       4.920  -0.033   1.958  0.00  0.00    +0.261 C 
ATOM      3  O   UNL     1       5.249   0.992   1.390  0.00  0.00    -0.269 OA
ATOM      4  C   UNL     1       5.350  -0.303   3.341  0.00  0.00    +0.117 C 
ATOM      5  C   UNL     1       4.904  -1.570   3.947  0.00  0.00    +0.258 C 
ATOM      6  N   UNL     1       4.136  -2.396   3.207  0.00  0.00    -0.235 N 
ATOM      7  H   UNL     1       3.834  -3.233   3.591  0.00  0.00    +0.159 HD
ATOM      8  C   UNL     1       3.778  -2.083   1.954  0.00  0.00    +0.316 C 
ATOM      9  O   UNL     1       3.081  -2.868   1.341  0.00  0.00    -0.252 OA
ATOM     10  O   UNL     1       5.219  -1.863   5.085  0.00  0.00    -0.270 OA
ATOM     11  C   UNL     1       6.139   0.593   4.039  0.00  0.00    +0.038 C 
ATOM     12  N   UNL     1       6.593   1.774   3.580  0.00  0.00    -0.283 N 
ATOM     13  N   UNL     1       7.321   2.460   4.506  0.00  0.00    -0.235 NA
ATOM     14  C   UNL     1       7.749   1.500   5.549  0.00  0.00    +0.108 C 
ATOM     15  C   UNL     1       6.640   0.421   5.462  0.00  0.00    +0.077 C 
ATOM     16  H   UNL     1       8.117   2.910   4.080  0.00  0.00    +0.145 HD
ATOM     17  H   UNL     1       6.421   2.102   2.683  0.00  0.00    +0.166 HD
ENDROOT
BRANCH  14  18
ATOM     18  C   UNL     1       7.759   2.150   6.909  0.00  0.00    -0.028 A 
ATOM     19  C   UNL     1       6.761   3.043   7.254  0.00  0.00    +0.009 A 
ATOM     20  C   UNL     1       6.768   3.640   8.499  0.00  0.00    +0.046 A 
ATOM     21  C   UNL     1       7.776   3.343   9.405  0.00  0.00    +0.117 A 
ATOM     22  C   UNL     1       8.775   2.446   9.056  0.00  0.00    +0.046 A 
ATOM     23  C   UNL     1       8.761   1.847   7.812  0.00  0.00    +0.009 A 
BRANCH  21  24
ATOM     24  O   UNL     1       7.785   3.930  10.630  0.00  0.00    -0.507 OA
ATOM     25  H   UNL     1       7.302   3.435  11.307  0.00  0.00    +0.292 HD
ENDBRANCH  21  24
ENDBRANCH  14  18
BRANCH   1  26
ATOM     26  C   UNL     1       3.711  -0.707  -0.038  0.00  0.00    +0.153 C 
BRANCH  26  30
ATOM     27  C   UNL     1      -0.017   1.378   0.010  0.00  0.00    +0.000 A 
ATOM     28  C   UNL     1       1.171   2.086   0.002  0.00  0.00    +0.000 A 
ATOM     29  C   UNL     1       2.377   1.411  -0.013  0.00  0.00    +0.005 A 
ATOM     30  C   UNL     1       2.396   0.029  -0.020  0.00  0.00    -0.030 A 
ATOM     31  C   UNL     1       1.208  -0.679  -0.012  0.00  0.00    +0.005 A 
ATOM     32  C   UNL     1       0.002  -0.004   0.002  0.00  0.00    +0.000 A 
ENDBRANCH  26  30
ENDBRANCH   1  26
TORSDOF 4
