REMARK  Name = ZINC53574758
REMARK  10 active torsions:
REMARK  status: ('A' for Active; 'I' for Inactive)
REMARK    1  A    between atoms: C_1  and  N_2
REMARK    2  A    between atoms: C_3  and  C_5
REMARK    3  A    between atoms: C_8  and  N_14
REMARK    4  A    between atoms: C_9  and  N_11
REMARK    5  A    between atoms: N_14  and  C_15
REMARK    6  A    between atoms: C_15  and  C_16
REMARK    7  A    between atoms: C_16  and  C_18
REMARK    8  A    between atoms: C_16  and  N_25
REMARK    9  A    between atoms: N_25  and  C_26
REMARK   10  A    between atoms: N_25  and  C_27
REMARK                            x       y       z     vdW  Elec       q    Type
REMARK                         _______ _______ _______ _____ _____    ______ ____
ROOT
ATOM      1  N   UNL     1       0.072  -5.659  -1.945  0.00  0.00    -0.343 N 
ATOM      2  H   UNL     1       0.273  -6.163  -2.749  0.00  0.00    +0.146 HD
ENDROOT
BRANCH   1   6
ATOM      3  C   UNL     1       0.773  -1.558  -1.835  0.00  0.00    +0.039 A 
ATOM      4  C   UNL     1       0.144  -2.190  -0.758  0.00  0.00    +0.015 A 
ATOM      5  C   UNL     1      -0.086  -3.546  -0.798  0.00  0.00    +0.026 A 
ATOM      6  C   UNL     1       0.306  -4.288  -1.909  0.00  0.00    +0.058 A 
ATOM      7  C   UNL     1       0.933  -3.662  -2.982  0.00  0.00    +0.148 A 
ATOM      8  C   UNL     1       1.161  -2.305  -2.951  0.00  0.00    +0.047 A 
BRANCH   3  11
ATOM      9  C   UNL     1       0.894   2.058  -0.681  0.00  0.00    +0.128 C 
ATOM     10  N   UNL     1       0.647   0.615  -0.719  0.00  0.00    -0.314 N 
ATOM     11  C   UNL     1       1.022  -0.104  -1.796  0.00  0.00    +0.244 C 
ATOM     12  O   UNL     1       1.565   0.445  -2.735  0.00  0.00    -0.270 OA
ATOM     13  H   UNL     1       0.214   0.176   0.030  0.00  0.00    +0.149 HD
ENDBRANCH   3  11
BRANCH   7  14
ATOM     14  N   UNL     1       1.350  -4.455  -4.160  0.00  0.00    +0.058 N 
ATOM     15  O   UNL     1       1.812  -5.562  -4.011  0.00  0.00    -0.126 OA
ATOM     16  O   UNL     1       1.229  -3.995  -5.272  0.00  0.00    -0.126 OA
ENDBRANCH   7  14
ENDBRANCH   1   6
BRANCH   1  17
ATOM     17  C   UNL     1      -0.477  -6.340  -0.770  0.00  0.00    +0.091 C 
BRANCH  17  18
ATOM     18  C   UNL     1      -0.514  -7.848  -1.026  0.00  0.00    -0.021 C 
BRANCH  18  19
ATOM     19  C   UNL     1       0.895  -8.375  -1.119  0.00  0.00    -0.059 A 
ATOM     20  C   UNL     1       1.616  -8.628   0.033  0.00  0.00    +0.005 A 
ATOM     21  C   UNL     1       2.908  -9.112  -0.052  0.00  0.00    +0.038 A 
ATOM     22  C   UNL     1       3.479  -9.344  -1.292  0.00  0.00    +0.123 A 
ATOM     23  C   UNL     1       2.756  -9.091  -2.445  0.00  0.00    +0.038 A 
ATOM     24  C   UNL     1       1.463  -8.612  -2.357  0.00  0.00    +0.005 A 
ATOM     25  F   UNL     1       4.742  -9.817  -1.376  0.00  0.00    -0.205 F 
ENDBRANCH  18  19
BRANCH  18  26
ATOM     26  N   UNL     1      -1.214  -8.515   0.080  0.00  0.00    +0.382 N 
ATOM     27  C   UNL     1      -2.603  -8.041   0.137  0.00  0.00    -0.096 C 
ATOM     28  C   UNL     1      -1.200  -9.967  -0.137  0.00  0.00    -0.096 C 
ATOM     29  H   UNL     1      -0.749  -8.301   0.950  0.00  0.00    -0.082 HD
ENDBRANCH  18  26
ENDBRANCH  17  18
ENDBRANCH   1  17
TORSDOF 7
