REMARK  Name = ZINC49351886
REMARK  8 active torsions:
REMARK  status: ('A' for Active; 'I' for Inactive)
REMARK    1  A    between atoms: C_1  and  C_2
REMARK    2  A    between atoms: C_2  and  C_4
REMARK    3  A    between atoms: C_2  and  N_8
REMARK    4  A    between atoms: C_4  and  O_6
REMARK    5  A    between atoms: O_6  and  C_7
REMARK    6  A    between atoms: N_8  and  S_9
REMARK    7  A    between atoms: S_9  and  C_12
REMARK    8  A    between atoms: C_15  and  N_19
REMARK                            x       y       z     vdW  Elec       q    Type
REMARK                         _______ _______ _______ _____ _____    ______ ____
ROOT
ATOM      1  S   UNL     1      -0.139  -0.902   2.549  0.00  0.00    +0.062 S 
ATOM      2  O   UNL     1       0.814  -1.354   3.502  0.00  0.00    -0.153 OA
ATOM      3  O   UNL     1      -1.030   0.173   2.814  0.00  0.00    -0.153 OA
ENDROOT
BRANCH   1   4
ATOM      4  C   UNL     1      -1.137  -2.294   2.137  0.00  0.00    +0.142 A 
ATOM      5  C   UNL     1      -2.415  -2.105   1.639  0.00  0.00    +0.070 A 
ATOM      6  C   UNL     1      -3.200  -3.195   1.315  0.00  0.00    +0.044 A 
ATOM      7  C   UNL     1      -2.707  -4.481   1.490  0.00  0.00    +0.027 A 
ATOM      8  C   UNL     1      -1.424  -4.669   1.989  0.00  0.00    +0.044 A 
ATOM      9  C   UNL     1      -0.641  -3.575   2.307  0.00  0.00    +0.070 A 
ATOM     10 CL   UNL     1       0.964  -3.808   2.925  0.00  0.00    -0.081 Cl
ATOM     11 CL   UNL     1      -3.031  -0.496   1.421  0.00  0.00    -0.081 Cl
BRANCH   7  12
ATOM     12  N   UNL     1      -3.498  -5.585   1.164  0.00  0.00    -0.358 N 
ATOM     13  H   UNL     1      -4.394  -5.453   0.815  0.00  0.00    +0.142 HD
ATOM     14  H   UNL     1      -3.153  -6.483   1.286  0.00  0.00    +0.142 HD
ENDBRANCH   7  12
ENDBRANCH   1   4
BRANCH   1  15
ATOM     15  N   UNL     1       0.711  -0.489   1.189  0.00  0.00    -0.176 NA
ATOM     16  H   UNL     1       1.677  -0.569   1.178  0.00  0.00    +0.149 HD
BRANCH  15  18
ATOM     17  C   UNL     1      -0.019   1.526   0.010  0.00  0.00    +0.037 C 
ATOM     18  C   UNL     1       0.002  -0.004   0.002  0.00  0.00    +0.182 C 
BRANCH  18  19
ATOM     19  C   UNL     1       0.707  -0.490  -1.238  0.00  0.00    +0.325 C 
ATOM     20  O   UNL     1       1.700  -1.172  -1.140  0.00  0.00    -0.249 OA
BRANCH  19  21
ATOM     21  O   UNL     1       0.233  -0.166  -2.451  0.00  0.00    -0.467 OA
ATOM     22  C   UNL     1       0.952  -0.660  -3.582  0.00  0.00    +0.280 C 
ENDBRANCH  19  21
ENDBRANCH  18  19
ENDBRANCH  15  18
ENDBRANCH   1  15
TORSDOF 6
