REMARK  Name = ZINC12182912
REMARK  6 active torsions:
REMARK  status: ('A' for Active; 'I' for Inactive)
REMARK    1  A    between atoms: C_1  and  C_2
REMARK    2  A    between atoms: C_5  and  C_7
REMARK    3  A    between atoms: C_9  and  N_28
REMARK    4  A    between atoms: N_12  and  C_14
REMARK    5  A    between atoms: C_14  and  C_15
REMARK    6  A    between atoms: N_17  and  C_18
REMARK                            x       y       z     vdW  Elec       q    Type
REMARK                         _______ _______ _______ _____ _____    ______ ____
ROOT
ATOM      1  C   UNL     1      -2.479   1.084   4.379  0.00  0.00    +0.128 A 
ATOM      2  C   UNL     1      -2.603  -0.303   4.612  0.00  0.00    +0.061 A 
ATOM      3  C   UNL     1      -3.228  -0.744   5.742  0.00  0.00    +0.094 A 
ATOM      4  C   UNL     1      -3.753   0.204   6.657  0.00  0.00    +0.288 A 
ATOM      5  O   UNL     1      -4.320  -0.170   7.671  0.00  0.00    -0.264 OA
ATOM      6  N   UNL     1      -3.622   1.521   6.399  0.00  0.00    -0.218 N 
ATOM      7  N   UNL     1      -2.972   1.952   5.238  0.00  0.00    -0.165 NA
ENDROOT
BRANCH   1  12
ATOM      8  C   UNL     1      -0.013   1.086   0.008  0.00  0.00    +0.086 C 
ATOM      9  C   UNL     1      -0.718   1.572   1.248  0.00  0.00    +0.103 A 
ATOM     10  C   UNL     1      -0.916   2.861   1.585  0.00  0.00    +0.045 A 
ATOM     11  C   UNL     1      -1.612   2.866   2.809  0.00  0.00    +0.052 A 
ATOM     12  C   UNL     1      -1.797   1.565   3.160  0.00  0.00    +0.155 A 
ATOM     13  O   UNL     1      -1.249   0.792   2.203  0.00  0.00    -0.458 OA
ENDBRANCH   1  12
BRANCH   3  14
ATOM     14  N   UNL     1      -3.354  -2.110   5.991  0.00  0.00    -0.354 N 
ATOM     15  H   UNL     1      -3.803  -2.418   6.794  0.00  0.00    +0.142 HD
ATOM     16  H   UNL     1      -2.992  -2.753   5.361  0.00  0.00    +0.142 HD
ENDBRANCH   3  14
BRANCH   6  17
ATOM     17  C   UNL     1      -4.163   2.505   7.340  0.00  0.00    +0.243 C 
BRANCH  17  18
ATOM     18  C   UNL     1      -3.110   2.855   8.361  0.00  0.00    +0.235 C 
ATOM     19  O   UNL     1      -2.017   2.334   8.307  0.00  0.00    -0.274 OA
ATOM     20  N   UNL     1      -3.385   3.747   9.333  0.00  0.00    -0.308 N 
ATOM     21  H   UNL     1      -4.259   4.164   9.376  0.00  0.00    +0.149 HD
BRANCH  20  22
ATOM     22  C   UNL     1      -2.361   4.088  10.325  0.00  0.00    +0.035 C 
ATOM     23  C   UNL     1      -1.950   2.826  11.086  0.00  0.00    +0.029 C 
ATOM     24  C   UNL     1      -0.882   3.182  12.122  0.00  0.00    -0.008 C 
ATOM     25  C   UNL     1      -1.446   4.210  13.105  0.00  0.00    +0.007 C 
ATOM     26  C   UNL     1      -1.857   5.471  12.343  0.00  0.00    -0.008 C 
ATOM     27  C   UNL     1      -2.926   5.116  11.307  0.00  0.00    +0.029 C 
ATOM     28  C   UNL     1      -0.636   6.060  11.634  0.00  0.00    +0.007 C 
ATOM     29  C   UNL     1      -0.072   5.032  10.652  0.00  0.00    -0.008 C 
ATOM     30  C   UNL     1       0.340   3.771  11.414  0.00  0.00    +0.007 C 
ATOM     31  C   UNL     1      -1.140   4.677   9.616  0.00  0.00    +0.029 C 
ENDBRANCH  20  22
ENDBRANCH  17  18
ENDBRANCH   6  17
TORSDOF 5
