REMARK  Name = ZINC50306092
REMARK  7 active torsions:
REMARK  status: ('A' for Active; 'I' for Inactive)
REMARK    1  A    between atoms: C_1  and  C_2
REMARK    2  A    between atoms: C_3  and  N_20
REMARK    3  A    between atoms: C_4  and  C_8
REMARK    4  A    between atoms: N_10  and  C_11
REMARK    5  A    between atoms: N_10  and  C_14
REMARK    6  A    between atoms: C_11  and  C_12
REMARK    7  A    between atoms: C_12  and  O_13
REMARK                            x       y       z     vdW  Elec       q    Type
REMARK                         _______ _______ _______ _____ _____    ______ ____
ROOT
ATOM      1  C   UNL     1      -0.184  -3.418  -1.393  0.00  0.00    +0.269 C 
ATOM      2  O   UNL     1      -0.268  -3.377  -2.606  0.00  0.00    -0.268 OA
ATOM      3  N   UNL     1       0.164  -4.567  -0.781  0.00  0.00    -0.291 N 
ENDROOT
BRANCH   1   7
ATOM      4  C   UNL     1      -1.241   1.340   0.014  0.00  0.00    +0.067 C 
ATOM      5  C   UNL     1      -0.925  -0.134   0.004  0.00  0.00    +0.054 A 
ATOM      6  C   UNL     1      -0.730  -0.911  -1.094  0.00  0.00    +0.078 A 
ATOM      7  C   UNL     1      -0.463  -2.211  -0.593  0.00  0.00    +0.168 A 
ATOM      8  N   UNL     1      -0.513  -2.137   0.723  0.00  0.00    -0.167 NA
ATOM      9  N   UNL     1      -0.775  -0.935   1.091  0.00  0.00    -0.279 N 
ATOM     10  H   UNL     1      -0.857  -0.641   2.012  0.00  0.00    +0.189 HD
BRANCH   6  11
ATOM     11  N   UNL     1      -0.782  -0.512  -2.438  0.00  0.00    -0.355 N 
ATOM     12  H   UNL     1      -0.974   0.412  -2.662  0.00  0.00    +0.142 HD
ATOM     13  H   UNL     1      -0.625  -1.159  -3.142  0.00  0.00    +0.142 HD
ENDBRANCH   6  11
ENDBRANCH   1   7
BRANCH   3  14
ATOM     14  C   UNL     1       0.533  -5.740  -1.578  0.00  0.00    +0.076 C 
ATOM     15  C   UNL     1       1.745  -5.403  -2.449  0.00  0.00    +0.022 C 
ATOM     16  C   UNL     1       2.130  -6.628  -3.281  0.00  0.00    +0.002 C 
ATOM     17  C   UNL     1       0.955  -7.027  -4.175  0.00  0.00    +0.000 C 
ATOM     18  C   UNL     1      -0.258  -7.363  -3.304  0.00  0.00    +0.002 C 
ATOM     19  C   UNL     1      -0.643  -6.139  -2.472  0.00  0.00    +0.022 C 
ENDBRANCH   3  14
BRANCH   3  20
ATOM     20  C   UNL     1       0.173  -4.643   0.682  0.00  0.00    +0.136 C 
BRANCH  20  21
ATOM     21  C   UNL     1      -1.241  -4.940   1.186  0.00  0.00    +0.174 C 
BRANCH  21  22
ATOM     22  O   UNL     1      -1.643  -6.237   0.743  0.00  0.00    -0.393 OA
ATOM     23  H   UNL     1      -2.531  -6.492   1.026  0.00  0.00    +0.209 HD
ENDBRANCH  21  22
ENDBRANCH  20  21
ENDBRANCH   3  20
TORSDOF 6
