REMARK  Name = ZINC58197764
REMARK  5 active torsions:
REMARK  status: ('A' for Active; 'I' for Inactive)
REMARK    1  A    between atoms: C_4  and  N_7
REMARK    2  A    between atoms: C_10  and  C_12
REMARK    3  A    between atoms: C_12  and  C_13
REMARK    4  A    between atoms: C_13  and  N_14
REMARK    5  A    between atoms: C_15  and  C_17
REMARK                            x       y       z     vdW  Elec       q    Type
REMARK                         _______ _______ _______ _____ _____    ______ ____
ROOT
ATOM      1  N   UNL     1       9.131   0.243  -1.255  0.00  0.00    -0.312 N 
ATOM      2  C   UNL     1       9.709   1.000  -2.209  0.00  0.00    +0.257 C 
ATOM      3  O   UNL     1       9.026   1.530  -3.059  0.00  0.00    -0.272 OA
ATOM      4  H   UNL     1       9.677  -0.181  -0.575  0.00  0.00    +0.149 HD
ENDROOT
BRANCH   2   5
ATOM      5  C   UNL     1      11.204   1.187  -2.219  0.00  0.00    +0.296 C 
ATOM      6  C   UNL     1      11.892  -0.155  -2.502  0.00  0.00    +0.283 C 
ATOM      7  O   UNL     1      13.307   0.061  -2.519  0.00  0.00    -0.484 OA
ATOM      8  C   UNL     1      13.754   1.133  -3.228  0.00  0.00    +0.162 A 
ATOM      9  C   UNL     1      15.091   1.201  -3.589  0.00  0.00    +0.049 A 
ATOM     10  C   UNL     1      15.560   2.285  -4.306  0.00  0.00    +0.004 A 
ATOM     11  C   UNL     1      14.698   3.305  -4.666  0.00  0.00    +0.004 A 
ATOM     12  C   UNL     1      13.364   3.243  -4.310  0.00  0.00    +0.049 A 
ATOM     13  C   UNL     1      12.887   2.157  -3.591  0.00  0.00    +0.163 A 
ATOM     14  O   UNL     1      11.569   2.106  -3.254  0.00  0.00    -0.473 OA
ENDBRANCH   2   5
BRANCH   1  15
ATOM     15  C   UNL     1       7.677   0.061  -1.245  0.00  0.00    +0.110 C 
BRANCH  15  16
ATOM     16  C   UNL     1       7.283  -0.835  -0.069  0.00  0.00    +0.076 C 
BRANCH  16  20
ATOM     17  N   UNL     1       3.624  -0.652  -0.037  0.00  0.00    -0.240 N 
ATOM     18  C   UNL     1       3.786  -1.994  -0.052  0.00  0.00    +0.115 A 
ATOM     19  C   UNL     1       5.115  -2.248  -0.065  0.00  0.00    +0.045 A 
ATOM     20  C   UNL     1       5.788  -1.022  -0.059  0.00  0.00    +0.065 A 
ATOM     21  N   UNL     1       4.895  -0.065  -0.048  0.00  0.00    -0.171 NA
BRANCH  17  25
ATOM     22  C   UNL     1      -0.017   1.379   0.010  0.00  0.00    +0.000 A 
ATOM     23  C   UNL     1       1.170   2.089   0.002  0.00  0.00    +0.002 A 
ATOM     24  C   UNL     1       2.377   1.419  -0.013  0.00  0.00    +0.028 A 
ATOM     25  C   UNL     1       2.399   0.031  -0.021  0.00  0.00    +0.065 A 
ATOM     26  C   UNL     1       1.207  -0.680  -0.013  0.00  0.00    +0.028 A 
ATOM     27  C   UNL     1       0.002  -0.004   0.002  0.00  0.00    +0.002 A 
ENDBRANCH  17  25
ENDBRANCH  16  20
ENDBRANCH  15  16
ENDBRANCH   1  15
TORSDOF 5
