REMARK  Name = ZINC37996600
REMARK  6 active torsions:
REMARK  status: ('A' for Active; 'I' for Inactive)
REMARK    1  A    between atoms: C_1  and  S_2
REMARK    2  A    between atoms: S_2  and  N_5
REMARK    3  A    between atoms: N_5  and  C_6
REMARK    4  A    between atoms: C_6  and  C_7
REMARK    5  A    between atoms: C_14  and  C_16
REMARK    6  A    between atoms: C_16  and  N_21
REMARK                            x       y       z     vdW  Elec       q    Type
REMARK                         _______ _______ _______ _____ _____    ______ ____
ROOT
ATOM      1  C   UNL     1       2.103  -1.358  -3.611  0.00  0.00    +0.091 C 
ATOM      2  C   UNL     1       3.377  -1.242  -4.454  0.00  0.00    +0.024 C 
ATOM      3  C   UNL     1       3.423  -2.392  -5.462  0.00  0.00    +0.003 C 
ATOM      4  C   UNL     1       3.458  -3.727  -4.715  0.00  0.00    +0.019 C 
ATOM      5  C   UNL     1       2.185  -3.871  -3.875  0.00  0.00    +0.108 C 
ATOM      6  N   UNL     1       2.054  -2.695  -3.004  0.00  0.00    -0.298 N 
ATOM      7  C   UNL     1       1.896  -2.839  -1.673  0.00  0.00    +0.204 C 
ATOM      8  O   UNL     1       1.670  -1.870  -0.981  0.00  0.00    -0.277 OA
ENDROOT
BRANCH   7   9
ATOM      9  C   UNL     1       2.000  -4.206  -1.046  0.00  0.00    +0.007 C 
ATOM     10  C   UNL     1       0.855  -5.120  -1.545  0.00  0.00    -0.004 C 
ATOM     11  C   UNL     1      -0.340  -4.686  -0.660  0.00  0.00    -0.001 C 
ATOM     12  C   UNL     1       0.290  -4.424   0.723  0.00  0.00    -0.001 C 
ATOM     13  C   UNL     1       1.778  -4.118   0.478  0.00  0.00    -0.004 C 
BRANCH   9  14
ATOM     14  N   UNL     1       3.308  -4.807  -1.341  0.00  0.00    +0.388 N 
ATOM     15  H   UNL     1       4.029  -4.306  -0.844  0.00  0.00    -0.089 HD
ATOM     16  H   UNL     1       3.307  -5.773  -1.049  0.00  0.00    -0.089 HD
ATOM     17  H   UNL     1       3.486  -4.755  -2.333  0.00  0.00    -0.089 HD
ENDBRANCH   9  14
ENDBRANCH   7   9
BRANCH   1  18
ATOM     18  C   UNL     1       2.117  -0.295  -2.511  0.00  0.00    +0.128 C 
BRANCH  18  19
ATOM     19  N   UNL     1       0.770  -0.149  -1.955  0.00  0.00    -0.193 NA
ATOM     20  H   UNL     1       0.007  -0.517  -2.429  0.00  0.00    +0.148 HD
BRANCH  19  22
ATOM     21  C   UNL     1       1.041   2.357  -0.850  0.00  0.00    +0.214 C 
ATOM     22  S   UNL     1       0.548   0.643  -0.518  0.00  0.00    +0.027 S 
ATOM     23  O   UNL     1       1.468   0.035   0.378  0.00  0.00    -0.158 OA
ATOM     24  O   UNL     1      -0.851   0.574  -0.278  0.00  0.00    -0.158 OA
ENDBRANCH  19  22
ENDBRANCH  18  19
ENDBRANCH   1  18
TORSDOF 5
