REMARK  Name = ZINC02117737
REMARK  10 active torsions:
REMARK  status: ('A' for Active; 'I' for Inactive)
REMARK    1  A    between atoms: C_1  and  C_2
REMARK    2  A    between atoms: C_6  and  C_30
REMARK    3  A    between atoms: C_10  and  C_29
REMARK    4  A    between atoms: C_15  and  C_16
REMARK    5  A    between atoms: C_16  and  C_17
REMARK    6  A    between atoms: C_17  and  C_18
REMARK    7  A    between atoms: C_23  and  C_26
REMARK    8  A    between atoms: C_30  and  C_31
REMARK    9  A    between atoms: C_30  and  C_32
REMARK   10  A    between atoms: C_30  and  C_33
REMARK                            x       y       z     vdW  Elec       q    Type
REMARK                         _______ _______ _______ _____ _____    ______ ____
ROOT
ATOM      1  C   UNL     1       1.159   3.605   0.011  0.00  0.00    +0.045 C 
ATOM      2  C   UNL     1       1.151   2.098   0.002  0.00  0.00    -0.030 A 
ATOM      3  C   UNL     1       2.405   1.339  -0.014  0.00  0.00    +0.022 A 
ATOM      4  C   UNL     1       3.636   1.994  -0.024  0.00  0.00    +0.023 A 
ATOM      5  C   UNL     1       4.805   1.246  -0.040  0.00  0.00    +0.025 A 
ATOM      6  C   UNL     1       6.235   1.583  -0.053  0.00  0.00    +0.003 A 
ATOM      7  C   UNL     1       6.893   0.418  -0.067  0.00  0.00    +0.200 A 
ATOM      8  O   UNL     1       6.024  -0.609  -0.063  0.00  0.00    -0.462 OA
ATOM      9  C   UNL     1       4.751  -0.163  -0.047  0.00  0.00    +0.141 A 
ATOM     10  C   UNL     1       3.523  -0.808  -0.038  0.00  0.00    +0.035 A 
ATOM     11  C   UNL     1       2.352  -0.071  -0.021  0.00  0.00    +0.146 A 
ATOM     12  O   UNL     1       1.152  -0.695  -0.013  0.00  0.00    -0.422 OA
ATOM     13  C   UNL     1       0.002  -0.004   0.002  0.00  0.00    +0.341 A 
ATOM     14  O   UNL     1      -1.054  -0.611   0.009  0.00  0.00    -0.245 OA
ATOM     15  C   UNL     1      -0.017   1.407   0.010  0.00  0.00    +0.041 A 
ATOM     16  C   UNL     1       3.464  -2.314  -0.045  0.00  0.00    +0.051 C 
ENDROOT
BRANCH   6  17
ATOM     17  C   UNL     1       6.839   2.964  -0.052  0.00  0.00    -0.009 C 
ATOM     18  C   UNL     1       8.365   2.853  -0.069  0.00  0.00    +0.015 C 
ATOM     19  C   UNL     1       6.370   3.727  -1.292  0.00  0.00    +0.015 C 
ATOM     20  C   UNL     1       6.396   3.714   1.206  0.00  0.00    +0.015 C 
ENDBRANCH   6  17
BRANCH  15  21
ATOM     21  C   UNL     1      -1.331   2.144   0.020  0.00  0.00    +0.052 C 
BRANCH  21  22
ATOM     22  C   UNL     1      -1.769   2.386   1.466  0.00  0.00    +0.101 C 
BRANCH  22  23
ATOM     23  C   UNL     1      -3.083   3.124   1.476  0.00  0.00    +0.216 C 
ATOM     24  O   UNL     1      -3.617   3.427   0.430  0.00  0.00    -0.276 OA
ATOM     25  N   UNL     1      -3.665   3.448   2.648  0.00  0.00    -0.301 N 
ATOM     26  C   UNL     1      -3.034   3.083   3.923  0.00  0.00    +0.108 C 
ATOM     27  C   UNL     1      -4.042   2.313   4.775  0.00  0.00    +0.032 C 
ATOM     28  C   UNL     1      -5.321   3.141   4.921  0.00  0.00    +0.078 C 
ATOM     29  C   UNL     1      -5.935   3.380   3.540  0.00  0.00    +0.032 C 
ATOM     30  C   UNL     1      -4.946   4.167   2.674  0.00  0.00    +0.108 C 
BRANCH  28  31
ATOM     31  C   UNL     1      -6.304   2.397   5.787  0.00  0.00    +0.214 C 
ATOM     32  O   UNL     1      -7.390   2.089   5.343  0.00  0.00    -0.276 OA
ATOM     33  N   UNL     1      -5.978   2.075   7.054  0.00  0.00    -0.329 N 
ATOM     34  H   UNL     1      -5.109   2.322   7.409  0.00  0.00    +0.145 HD
ATOM     35  H   UNL     1      -6.611   1.596   7.611  0.00  0.00    +0.145 HD
ENDBRANCH  28  31
ENDBRANCH  22  23
ENDBRANCH  21  22
ENDBRANCH  15  21
TORSDOF 5
