REMARK  Name = ZINC48668294
REMARK  6 active torsions:
REMARK  status: ('A' for Active; 'I' for Inactive)
REMARK    1  A    between atoms: C_1  and  C_2
REMARK    2  A    between atoms: C_2  and  C_4
REMARK    3  A    between atoms: C_2  and  O_23
REMARK    4  A    between atoms: C_4  and  N_5
REMARK    5  A    between atoms: C_6  and  C_8
REMARK    6  A    between atoms: N_10  and  C_11
REMARK                            x       y       z     vdW  Elec       q    Type
REMARK                         _______ _______ _______ _____ _____    ______ ____
ROOT
ATOM      1  C   UNL     1       1.115  -4.107  -2.425  0.00  0.00    +0.303 C 
ATOM      2  O   UNL     1       0.531  -4.723  -1.557  0.00  0.00    -0.265 OA
ATOM      3  N   UNL     1       1.677  -4.767  -3.457  0.00  0.00    -0.276 N 
ATOM      4  H   UNL     1       2.074  -4.272  -4.191  0.00  0.00    +0.155 HD
ENDROOT
BRANCH   3   5
ATOM      5  C   UNL     1       1.688  -6.165  -3.470  0.00  0.00    +0.056 A 
ATOM      6  C   UNL     1       1.618  -6.871  -2.275  0.00  0.00    +0.072 A 
ATOM      7  C   UNL     1       1.629  -8.254  -2.291  0.00  0.00    +0.144 A 
ATOM      8  C   UNL     1       1.712  -8.936  -3.505  0.00  0.00    +0.077 A 
ATOM      9  C   UNL     1       1.782  -8.230  -4.695  0.00  0.00    +0.048 A 
ATOM     10  C   UNL     1       1.764  -6.848  -4.679  0.00  0.00    +0.064 A 
ATOM     11 CL   UNL     1       1.845  -5.963  -6.170  0.00  0.00    -0.082 Cl
ATOM     12  N   UNL     1       1.724 -10.339  -3.503  0.00  0.00    -0.280 N 
ATOM     13  C   UNL     1       1.343 -10.995  -2.386  0.00  0.00    +0.255 C 
ATOM     14  O   UNL     1       1.374 -12.208  -2.351  0.00  0.00    -0.272 OA
ATOM     15  C   UNL     1       0.878 -10.216  -1.182  0.00  0.00    +0.325 C 
ATOM     16  O   UNL     1       1.560  -8.960  -1.131  0.00  0.00    -0.481 OA
ATOM     17  H   UNL     1       2.002 -10.830  -4.292  0.00  0.00    +0.155 HD
ENDBRANCH   3   5
BRANCH   1  19
ATOM     18  N   UNL     1       0.649  -1.959  -1.317  0.00  0.00    -0.305 N 
ATOM     19  C   UNL     1       1.211  -2.619  -2.349  0.00  0.00    +0.299 C 
ATOM     20  O   UNL     1       1.795  -2.004  -3.217  0.00  0.00    -0.265 OA
ATOM     21  H   UNL     1       0.183  -2.451  -0.623  0.00  0.00    +0.149 HD
BRANCH  18  22
ATOM     22  C   UNL     1       0.744  -0.499  -1.242  0.00  0.00    +0.135 C 
BRANCH  22  24
ATOM     23  C   UNL     1       0.018   1.524   0.031  0.00  0.00    +0.039 C 
ATOM     24  C   UNL     1       0.029  -0.006   0.017  0.00  0.00    +0.128 C 
BRANCH  24  25
ATOM     25  O   UNL     1       0.714  -0.488   1.174  0.00  0.00    -0.391 OA
ATOM     26  H   UNL     1       0.315  -0.213   2.011  0.00  0.00    +0.210 HD
ENDBRANCH  24  25
ENDBRANCH  22  24
ENDBRANCH  18  22
ENDBRANCH   1  19
TORSDOF 5
