REMARK  Name = ZINC24172097
REMARK  12 active torsions:
REMARK  status: ('A' for Active; 'I' for Inactive)
REMARK    1  A    between atoms: C_1  and  C_2
REMARK    2  A    between atoms: C_2  and  C_3
REMARK    3  A    between atoms: C_3  and  C_30
REMARK    4  A    between atoms: N_6  and  N_10
REMARK    5  A    between atoms: C_11  and  C_13
REMARK    6  A    between atoms: C_13  and  S_14
REMARK    7  A    between atoms: S_14  and  C_15
REMARK    8  A    between atoms: C_18  and  C_21
REMARK    9  A    between atoms: N_19  and  N_20
REMARK   10  A    between atoms: C_24  and  O_27
REMARK   11  A    between atoms: O_27  and  C_28
REMARK   12  A    between atoms: C_28  and  C_29
REMARK                            x       y       z     vdW  Elec       q    Type
REMARK                         _______ _______ _______ _____ _____    ______ ____
ROOT
ATOM      1  N   UNL     1      -3.325   2.604  -3.459  0.00  0.00    -0.223 N 
ATOM      2  C   UNL     1      -3.408   1.376  -4.008  0.00  0.00    +0.240 C 
ATOM      3  O   UNL     1      -2.702   0.479  -3.597  0.00  0.00    -0.273 OA
ATOM      4  H   UNL     1      -3.964   3.417  -3.831  0.00  0.00    +0.174 HD
ENDROOT
BRANCH   1   8
ATOM      5  C   UNL     1      -0.629   3.529  -1.176  0.00  0.00    +0.139 C 
ATOM      6  C   UNL     1      -1.264   3.518  -2.552  0.00  0.00    +0.268 C 
ATOM      7  O   UNL     1      -0.822   4.011  -3.567  0.00  0.00    -0.271 OA
ATOM      8  N   UNL     1      -2.423   2.844  -2.413  0.00  0.00    -0.137 N 
ATOM      9  C   UNL     1      -2.607   2.433  -1.153  0.00  0.00    +0.327 C 
ATOM     10  O   UNL     1      -3.579   1.805  -0.782  0.00  0.00    -0.251 OA
ATOM     11  N   UNL     1      -1.595   2.791  -0.343  0.00  0.00    -0.280 N 
ATOM     12  H   UNL     1      -1.393   2.638   0.727  0.00  0.00    +0.152 HD
BRANCH   5  13
ATOM     13  C   UNL     1       0.701   2.821  -1.200  0.00  0.00    -0.015 A 
ATOM     14  C   UNL     1       1.857   3.530  -1.463  0.00  0.00    +0.006 A 
ATOM     15  C   UNL     1       3.076   2.879  -1.492  0.00  0.00    +0.000 A 
ATOM     16  C   UNL     1       3.139   1.518  -1.256  0.00  0.00    +0.000 A 
ATOM     17  C   UNL     1       1.982   0.809  -0.993  0.00  0.00    +0.000 A 
ATOM     18  C   UNL     1       0.763   1.460  -0.965  0.00  0.00    +0.006 A 
ENDBRANCH   5  13
BRANCH   5  20
ATOM     19  C   UNL     1      -1.840   5.620  -0.538  0.00  0.00    +0.007 C 
ATOM     20  C   UNL     1      -0.464   4.964  -0.671  0.00  0.00    +0.037 C 
ENDBRANCH   5  20
ENDBRANCH   1   8
BRANCH   2  21
ATOM     21  C   UNL     1      -4.377   1.117  -5.133  0.00  0.00    +0.174 C 
BRANCH  21  22
ATOM     22  S   UNL     1      -4.253  -0.613  -5.650  0.00  0.00    -0.075 S 
BRANCH  22  23
ATOM     23  C   UNL     1      -5.457  -0.635  -6.936  0.00  0.00    +0.209 A 
ATOM     24  N   UNL     1      -6.196   0.379  -7.329  0.00  0.00    -0.121 NA
ATOM     25  N   UNL     1      -6.966   0.016  -8.291  0.00  0.00    -0.127 NA
ATOM     26  C   UNL     1      -6.775  -1.254  -8.565  0.00  0.00    +0.182 A 
ATOM     27  N   UNL     1      -5.802  -1.710  -7.705  0.00  0.00    -0.224 N 
BRANCH  26  28
ATOM     28  C   UNL     1      -7.472  -2.044  -9.601  0.00  0.00    +0.021 A 
ATOM     29  C   UNL     1      -8.169  -1.398 -10.624  0.00  0.00    +0.015 A 
ATOM     30  C   UNL     1      -8.813  -2.139 -11.592  0.00  0.00    +0.046 A 
ATOM     31  C   UNL     1      -8.778  -3.526 -11.544  0.00  0.00    +0.121 A 
ATOM     32  C   UNL     1      -8.091  -4.173 -10.526  0.00  0.00    +0.046 A 
ATOM     33  C   UNL     1      -7.440  -3.439  -9.557  0.00  0.00    +0.015 A 
BRANCH  31  34
ATOM     34  O   UNL     1      -9.420  -4.253 -12.497  0.00  0.00    -0.492 OA
BRANCH  34  35
ATOM     35  C   UNL     1     -10.107  -3.524 -13.515  0.00  0.00    +0.225 C 
ATOM     36  C   UNL     1     -10.763  -4.504 -14.490  0.00  0.00    +0.048 C 
ENDBRANCH  34  35
ENDBRANCH  31  34
ENDBRANCH  26  28
BRANCH  27  37
ATOM     37  N   UNL     1      -5.289  -2.974  -7.635  0.00  0.00    -0.295 N 
ATOM     38  H   UNL     1      -5.656  -3.755  -8.317  0.00  0.00    +0.163 HD
ATOM     39  H   UNL     1      -4.509  -3.210  -6.896  0.00  0.00    +0.163 HD
ENDBRANCH  27  37
ENDBRANCH  22  23
ENDBRANCH  21  22
ENDBRANCH   2  21
TORSDOF 10
