REMARK  Name = ZINC66214462
REMARK  9 active torsions:
REMARK  status: ('A' for Active; 'I' for Inactive)
REMARK    1  A    between atoms: C_3  and  C_20
REMARK    2  A    between atoms: C_5  and  N_7
REMARK    3  A    between atoms: C_8  and  C_10
REMARK    4  A    between atoms: C_10  and  N_11
REMARK    5  A    between atoms: N_11  and  C_12
REMARK    6  A    between atoms: C_12  and  C_13
REMARK    7  A    between atoms: C_13  and  C_14
REMARK    8  A    between atoms: N_22  and  C_23
REMARK    9  A    between atoms: C_23  and  C_24
REMARK                            x       y       z     vdW  Elec       q    Type
REMARK                         _______ _______ _______ _____ _____    ______ ____
ROOT
ATOM      1  C   UNL     1       2.133   1.405  -0.749  0.00  0.00    +0.003 A 
ATOM      2  C   UNL     1       1.202   2.089   0.007  0.00  0.00    +0.013 A 
ATOM      3  C   UNL     1       0.266   1.385   0.765  0.00  0.00    +0.038 A 
ATOM      4  C   UNL     1       0.274  -0.010   0.755  0.00  0.00    +0.036 A 
ATOM      5  C   UNL     1       1.213  -0.687  -0.007  0.00  0.00    +0.034 A 
ATOM      6  C   UNL     1       2.142   0.024  -0.759  0.00  0.00    +0.023 A 
ENDROOT
BRANCH   5   7
ATOM      7  N   UNL     1       1.226  -2.087  -0.021  0.00  0.00    -0.287 N 
ATOM      8  C   UNL     1       0.071  -2.772   0.088  0.00  0.00    +0.200 C 
ATOM      9  O   UNL     1      -0.987  -2.180   0.102  0.00  0.00    -0.278 OA
ATOM     10  H   UNL     1       2.066  -2.563  -0.108  0.00  0.00    +0.155 HD
BRANCH   8  11
ATOM     11  C   UNL     1       0.094  -4.276   0.194  0.00  0.00    +0.015 C 
BRANCH  11  12
ATOM     12  N   UNL     1      -1.282  -4.780   0.301  0.00  0.00    +0.385 N 
ATOM     13  H   UNL     1      -1.719  -4.392   1.124  0.00  0.00    -0.085 HD
ATOM     14  H   UNL     1      -1.805  -4.508  -0.517  0.00  0.00    -0.085 HD
BRANCH  12  15
ATOM     15  C   UNL     1      -1.259  -6.245   0.404  0.00  0.00    -0.078 C 
BRANCH  15  16
ATOM     16  C   UNL     1      -2.692  -6.771   0.516  0.00  0.00    +0.011 C 
BRANCH  16  17
ATOM     17  C   UNL     1      -2.669  -8.274   0.622  0.00  0.00    -0.075 C 
ATOM     18  C   UNL     1      -2.705  -8.800   1.804  0.00  0.00    -0.028 C 
ATOM     19  C   UNL     1      -2.678 -10.277   2.068  0.00  0.00    +0.027 C 
ATOM     20  C   UNL     1      -3.029 -11.047   0.793  0.00  0.00    +0.004 C 
ATOM     21  C   UNL     1      -2.167 -10.503  -0.355  0.00  0.00    +0.005 C 
ATOM     22  C   UNL     1      -2.612  -9.068  -0.651  0.00  0.00    +0.030 C 
ENDBRANCH  16  17
ENDBRANCH  15  16
ENDBRANCH  12  15
ENDBRANCH  11  12
ENDBRANCH   8  11
ENDBRANCH   5   7
BRANCH   3  23
ATOM     23  C   UNL     1      -0.732   2.114   1.576  0.00  0.00    +0.244 C 
ATOM     24  O   UNL     1      -1.547   1.499   2.236  0.00  0.00    -0.270 OA
ATOM     25  N   UNL     1      -0.738   3.462   1.585  0.00  0.00    -0.309 N 
ATOM     26  H   UNL     1      -0.088   3.953   1.058  0.00  0.00    +0.149 HD
BRANCH  25  27
ATOM     27  C   UNL     1      -1.727   4.185   2.388  0.00  0.00    +0.136 C 
BRANCH  27  28
ATOM     28  C   UNL     1      -1.517   5.691   2.222  0.00  0.00    +0.135 C 
ATOM     29  C   UNL     1      -2.531   6.476   3.092  0.00  0.00    +0.035 C 
ATOM     30  C   UNL     1      -1.773   7.816   3.292  0.00  0.00    +0.031 C 
ATOM     31  C   UNL     1      -0.301   7.355   3.351  0.00  0.00    +0.160 C 
ATOM     32  O   UNL     1      -0.223   6.072   2.716  0.00  0.00    -0.375 OA
ENDBRANCH  27  28
ENDBRANCH  25  27
ENDBRANCH   3  23
TORSDOF 9
