REMARK  Name = ZINC19009199
REMARK  13 active torsions:
REMARK  status: ('A' for Active; 'I' for Inactive)
REMARK    1  A    between atoms: C_1  and  C_2
REMARK    2  A    between atoms: C_2  and  C_3
REMARK    3  A    between atoms: C_3  and  C_4
REMARK    4  A    between atoms: C_4  and  N_5
REMARK    5  A    between atoms: C_6  and  N_31
REMARK    6  A    between atoms: C_7  and  N_14
REMARK    7  A    between atoms: N_14  and  C_15
REMARK    8  A    between atoms: C_15  and  C_16
REMARK    9  A    between atoms: C_17  and  C_19
REMARK   10  A    between atoms: C_19  and  S_20
REMARK   11  A    between atoms: S_20  and  C_21
REMARK   12  A    between atoms: C_24  and  N_27
REMARK   13  A    between atoms: C_28  and  C_30
REMARK                            x       y       z     vdW  Elec       q    Type
REMARK                         _______ _______ _______ _____ _____    ______ ____
ROOT
ATOM      1  N   UNL     1       2.084  10.505   0.489  0.00  0.00    -0.264 N 
ATOM      2  C   UNL     1       0.843  10.003   0.655  0.00  0.00    +0.230 C 
ATOM      3  O   UNL     1      -0.087  10.748   0.883  0.00  0.00    -0.274 OA
ENDROOT
BRANCH   1   6
ATOM      4  N   UNL     1       2.028  14.151   0.036  0.00  0.00    -0.280 N 
ATOM      5  C   UNL     1       1.780  12.815  -0.179  0.00  0.00    +0.127 A 
ATOM      6  C   UNL     1       2.320  11.883   0.683  0.00  0.00    +0.140 A 
ATOM      7  C   UNL     1       3.105  12.329   1.762  0.00  0.00    +0.277 A 
ATOM      8  O   UNL     1       3.590  11.527   2.542  0.00  0.00    -0.266 OA
ATOM      9  N   UNL     1       3.322  13.649   1.925  0.00  0.00    -0.273 N 
ATOM     10  H   UNL     1       3.887  13.967   2.686  0.00  0.00    +0.173 HD
ATOM     11  C   UNL     1       2.788  14.544   1.075  0.00  0.00    +0.331 A 
ATOM     12  O   UNL     1       2.996  15.729   1.247  0.00  0.00    -0.246 OA
BRANCH   5  13
ATOM     13  N   UNL     1       1.005  12.414  -1.240  0.00  0.00    -0.343 N 
ATOM     14  H   UNL     1       0.787  11.476  -1.355  0.00  0.00    +0.144 HD
ATOM     15  H   UNL     1       0.675  13.069  -1.875  0.00  0.00    +0.144 HD
ENDBRANCH   5  13
BRANCH   4  16
ATOM     16  C   UNL     1       1.461  15.152  -0.871  0.00  0.00    +0.128 C 
BRANCH  16  17
ATOM     17  C   UNL     1       0.087  15.585  -0.357  0.00  0.00    +0.021 C 
BRANCH  17  19
ATOM     18  C   UNL     1      -1.880  17.064  -0.790  0.00  0.00    +0.004 C 
ATOM     19  C   UNL     1      -0.506  16.631  -1.304  0.00  0.00    -0.002 C 
ENDBRANCH  17  19
ENDBRANCH  16  17
ENDBRANCH   4  16
ENDBRANCH   1   6
BRANCH   1  20
ATOM     20  C   UNL     1       3.187   9.620   0.106  0.00  0.00    +0.110 C 
ATOM     21  C   UNL     1       3.356   9.643  -1.414  0.00  0.00    +0.025 C 
ENDBRANCH   1  20
BRANCH   2  22
ATOM     22  C   UNL     1       0.612   8.517   0.559  0.00  0.00    +0.170 C 
BRANCH  22  23
ATOM     23  S   UNL     1      -1.146   8.160   0.827  0.00  0.00    -0.116 S 
BRANCH  23  24
ATOM     24  C   UNL     1      -1.252   6.407   0.685  0.00  0.00    +0.008 A 
ATOM     25  C   UNL     1      -2.477   5.770   0.837  0.00  0.00    +0.016 A 
ATOM     26  C   UNL     1      -2.559   4.396   0.725  0.00  0.00    +0.024 A 
ATOM     27  C   UNL     1      -1.417   3.652   0.461  0.00  0.00    +0.033 A 
ATOM     28  C   UNL     1      -0.192   4.287   0.314  0.00  0.00    +0.024 A 
ATOM     29  C   UNL     1      -0.109   5.661   0.421  0.00  0.00    +0.016 A 
BRANCH  27  30
ATOM     30  N   UNL     1      -1.501   2.257   0.347  0.00  0.00    -0.286 N 
ATOM     31  C   UNL     1      -0.676   1.598  -0.490  0.00  0.00    +0.214 C 
ATOM     32  O   UNL     1       0.073   2.218  -1.216  0.00  0.00    -0.276 OA
ATOM     33  C   UNL     1      -0.687   0.092  -0.529  0.00  0.00    +0.109 C 
ATOM     34  H   UNL     1      -2.154   1.766   0.871  0.00  0.00    +0.155 HD
ENDBRANCH  27  30
ENDBRANCH  23  24
ENDBRANCH  22  23
ENDBRANCH   2  22
TORSDOF 10
