REMARK  Name = ZINC51717776
REMARK  6 active torsions:
REMARK  status: ('A' for Active; 'I' for Inactive)
REMARK    1  A    between atoms: C_1  and  C_2
REMARK    2  A    between atoms: C_2  and  C_3
REMARK    3  A    between atoms: C_6  and  C_8
REMARK    4  A    between atoms: C_8  and  N_9
REMARK    5  A    between atoms: N_9  and  C_10
REMARK    6  A    between atoms: C_12  and  N_17
REMARK                            x       y       z     vdW  Elec       q    Type
REMARK                         _______ _______ _______ _____ _____    ______ ____
ROOT
ATOM      1  C   UNL     1       4.696  -3.947   4.632  0.00  0.00    +0.048 A 
ATOM      2  C   UNL     1       5.530  -3.229   5.477  0.00  0.00    +0.052 A 
ATOM      3  C   UNL     1       6.512  -3.887   6.202  0.00  0.00    +0.071 A 
ATOM      4  C   UNL     1       6.659  -5.263   6.080  0.00  0.00    +0.029 A 
ATOM      5  C   UNL     1       5.829  -5.976   5.237  0.00  0.00    +0.024 A 
ATOM      6  C   UNL     1       4.844  -5.324   4.518  0.00  0.00    +0.062 A 
ATOM      7 CL   UNL     1       3.797  -6.226   3.467  0.00  0.00    -0.082 Cl
ENDROOT
BRANCH   3   8
ATOM      8  N   UNL     1       7.357  -3.164   7.057  0.00  0.00    -0.200 N 
ATOM      9  C   UNL     1       8.359  -3.649   7.822  0.00  0.00    +0.250 A 
ATOM     10  N   UNL     1       8.886  -2.636   8.459  0.00  0.00    -0.116 NA
ATOM     11  N   UNL     1       8.286  -1.544   8.148  0.00  0.00    -0.023 NA
ATOM     12  N   UNL     1       7.346  -1.779   7.297  0.00  0.00    -0.039 NA
ENDBRANCH   3   8
BRANCH   1  13
ATOM     13  N   UNL     1       3.705  -3.287   3.900  0.00  0.00    -0.338 N 
ATOM     14  H   UNL     1       3.120  -3.790   3.313  0.00  0.00    +0.146 HD
BRANCH  13  15
ATOM     15  C   UNL     1       3.550  -1.835   4.021  0.00  0.00    +0.144 C 
BRANCH  15  19
ATOM     16  C   UNL     1       0.731  -0.503   1.223  0.00  0.00    -0.010 A 
ATOM     17  C   UNL     1       0.236  -0.806   2.448  0.00  0.00    +0.011 A 
ATOM     18  C   UNL     1       1.102  -1.254   3.429  0.00  0.00    +0.013 A 
ATOM     19  C   UNL     1       2.420  -1.375   3.136  0.00  0.00    +0.007 A 
ATOM     20  S   UNL     1       2.469  -0.856   1.429  0.00  0.00    -0.097 S 
BRANCH  16  22
ATOM     21  C   UNL     1      -0.019   1.526   0.010  0.00  0.00    +0.009 C 
ATOM     22  C   UNL     1       0.002  -0.004   0.002  0.00  0.00    +0.039 C 
ENDBRANCH  16  22
ENDBRANCH  15  19
ENDBRANCH  13  15
ENDBRANCH   1  13
TORSDOF 5
