REMARK  Name = ZINC05514304
REMARK  8 active torsions:
REMARK  status: ('A' for Active; 'I' for Inactive)
REMARK    1  A    between atoms: C_6  and  O_7
REMARK    2  A    between atoms: O_7  and  C_8
REMARK    3  A    between atoms: C_10  and  O_23
REMARK    4  A    between atoms: C_12  and  O_22
REMARK    5  A    between atoms: C_14  and  O_21
REMARK    6  A    between atoms: C_16  and  C_19
REMARK    7  A    between atoms: C_19  and  O_20
REMARK    8  A    between atoms: C_26  and  C_29
REMARK                            x       y       z     vdW  Elec       q    Type
REMARK                         _______ _______ _______ _____ _____    ______ ____
ROOT
ATOM      1  C   UNL     1       2.606   4.142  -0.002  0.00  0.00    +0.047 A 
ATOM      2  C   UNL     1       1.379   3.543   0.007  0.00  0.00    +0.019 A 
ATOM      3  C   UNL     1       1.289   2.150   0.001  0.00  0.00    +0.065 A 
ATOM      4  C   UNL     1       2.453   1.362  -0.014  0.00  0.00    +0.142 A 
ATOM      5  C   UNL     1       3.693   1.988  -0.023  0.00  0.00    +0.092 A 
ATOM      6  C   UNL     1       3.766   3.371  -0.017  0.00  0.00    +0.128 A 
ATOM      7  O   UNL     1       2.364   0.018  -0.020  0.00  0.00    -0.462 OA
ATOM      8  C   UNL     1       1.201  -0.640  -0.013  0.00  0.00    +0.209 A 
ATOM      9  C   UNL     1       0.002  -0.004   0.002  0.00  0.00    +0.083 A 
ATOM     10  C   UNL     1      -0.018   1.468   0.010  0.00  0.00    +0.202 A 
ATOM     11  O   UNL     1      -1.065   2.093   0.019  0.00  0.00    -0.286 OA
ENDROOT
BRANCH   9  12
ATOM     12  C   UNL     1      -1.264  -0.778   0.009  0.00  0.00    +0.085 A 
ATOM     13  C   UNL     1      -1.256  -2.146   0.002  0.00  0.00    +0.075 A 
ATOM     14  S   UNL     1      -3.010  -2.487   0.017  0.00  0.00    -0.083 S 
ATOM     15  C   UNL     1      -3.562  -0.841   0.031  0.00  0.00    +0.156 A 
ATOM     16  N   UNL     1      -2.438  -0.166   0.029  0.00  0.00    -0.247 NA
ENDBRANCH   9  12
BRANCH   6  17
ATOM     17  O   UNL     1       4.979   3.980  -0.026  0.00  0.00    -0.461 OA
BRANCH  17  18
ATOM     18  C   UNL     1       4.987   5.409  -0.018  0.00  0.00    +0.339 C 
ATOM     19  C   UNL     1       6.429   5.910   0.096  0.00  0.00    +0.214 C 
ATOM     20  C   UNL     1       7.221   5.447  -1.131  0.00  0.00    +0.180 C 
ATOM     21  C   UNL     1       6.526   5.959  -2.397  0.00  0.00    +0.177 C 
ATOM     22  C   UNL     1       5.081   5.455  -2.414  0.00  0.00    +0.179 C 
ATOM     23  O   UNL     1       4.410   5.895  -1.232  0.00  0.00    -0.331 OA
BRANCH  21  24
ATOM     24  O   UNL     1       6.536   7.388  -2.402  0.00  0.00    -0.386 OA
ATOM     25  H   UNL     1       7.422   7.775  -2.387  0.00  0.00    +0.210 HD
ENDBRANCH  21  24
BRANCH  20  26
ATOM     26  O   UNL     1       8.549   5.973  -1.069  0.00  0.00    -0.386 OA
ATOM     27  H   UNL     1       9.046   5.694  -0.287  0.00  0.00    +0.210 HD
ENDBRANCH  20  26
BRANCH  19  28
ATOM     28  O   UNL     1       6.435   7.338   0.157  0.00  0.00    -0.383 OA
ATOM     29  H   UNL     1       5.947   7.701   0.908  0.00  0.00    +0.210 HD
ENDBRANCH  19  28
BRANCH  22  30
ATOM     30  C   UNL     1       4.362   6.012  -3.645  0.00  0.00    +0.190 C 
BRANCH  30  31
ATOM     31  O   UNL     1       3.050   5.450  -3.725  0.00  0.00    -0.392 OA
ATOM     32  H   UNL     1       2.536   5.759  -4.484  0.00  0.00    +0.210 HD
ENDBRANCH  30  31
ENDBRANCH  22  30
ENDBRANCH  17  18
ENDBRANCH   6  17
TORSDOF 8
