REMARK  Name = ZINC39710237
REMARK  10 active torsions:
REMARK  status: ('A' for Active; 'I' for Inactive)
REMARK    1  A    between atoms: C_1  and  C_2
REMARK    2  A    between atoms: C_9  and  C_14
REMARK    3  A    between atoms: C_14  and  C_16
REMARK    4  A    between atoms: C_14  and  N_25
REMARK    5  A    between atoms: N_20  and  C_21
REMARK    6  A    between atoms: C_21  and  C_22
REMARK    7  A    between atoms: C_22  and  O_23
REMARK    8  A    between atoms: O_23  and  C_24
REMARK    9  A    between atoms: N_28  and  C_31
REMARK   10  A    between atoms: C_31  and  C_32
REMARK                            x       y       z     vdW  Elec       q    Type
REMARK                         _______ _______ _______ _____ _____    ______ ____
ROOT
ATOM      1  C   UNL     1       1.319  -4.874   2.934  0.00  0.00    +0.142 C 
ENDROOT
BRANCH   1  10
ATOM      2  C   UNL     1       1.206   1.508  -0.268  0.00  0.00    +0.044 C 
ATOM      3  C   UNL     1       1.026   0.013  -0.241  0.00  0.00    -0.050 A 
ATOM      4  C   UNL     1       1.087  -0.704  -1.437  0.00  0.00    +0.005 A 
ATOM      5  C   UNL     1       0.934  -2.053  -1.492  0.00  0.00    +0.024 A 
ATOM      6  C   UNL     1       0.705  -2.794  -0.319  0.00  0.00    +0.040 A 
ATOM      7  N   UNL     1       0.558  -4.117  -0.384  0.00  0.00    -0.284 N 
ATOM      8  C   UNL     1       0.340  -4.873   0.678  0.00  0.00    +0.226 C 
ATOM      9  O   UNL     1       0.214  -6.077   0.556  0.00  0.00    -0.275 OA
ATOM     10  C   UNL     1       0.249  -4.236   2.047  0.00  0.00    +0.123 C 
ATOM     11  C   UNL     1       0.416  -2.731   2.127  0.00  0.00    -0.003 C 
ATOM     12  C   UNL     1       0.637  -2.063   0.959  0.00  0.00    -0.007 A 
ATOM     13  C   UNL     1       0.814  -0.611   0.946  0.00  0.00    +0.012 A 
ATOM     14  H   UNL     1       0.613  -4.545  -1.253  0.00  0.00    +0.155 HD
ENDBRANCH   1  10
BRANCH   1  15
ATOM     15  N   UNL     1       1.057  -6.314   3.058  0.00  0.00    -0.295 NA
ATOM     16  C   UNL     1       2.170  -6.996   3.735  0.00  0.00    +0.066 C 
ATOM     17  C   UNL     1       1.886  -8.499   3.790  0.00  0.00    -0.063 C 
ATOM     18  N   UNL     1       0.630  -8.733   4.516  0.00  0.00    +0.384 N 
ATOM     19  C   UNL     1      -0.475  -8.067   3.815  0.00  0.00    -0.063 C 
ATOM     20  C   UNL     1      -0.210  -6.561   3.760  0.00  0.00    +0.066 C 
ATOM     21  H   UNL     1       0.708  -8.361   5.451  0.00  0.00    -0.081 HD
BRANCH  18  22
ATOM     22  C   UNL     1       0.367 -10.177   4.585  0.00  0.00    -0.043 C 
BRANCH  22  23
ATOM     23  C   UNL     1      -0.853 -10.425   5.433  0.00  0.00    -0.060 A 
ATOM     24  C   UNL     1      -0.719 -10.613   6.796  0.00  0.00    +0.005 A 
ATOM     25  C   UNL     1      -1.835 -10.841   7.579  0.00  0.00    +0.050 A 
ATOM     26  C   UNL     1      -3.092 -10.882   6.998  0.00  0.00    +0.166 A 
ATOM     27  C   UNL     1      -3.228 -10.692   5.625  0.00  0.00    +0.166 A 
ATOM     28  C   UNL     1      -2.105 -10.459   4.848  0.00  0.00    +0.051 A 
ATOM     29  O   UNL     1      -4.551 -10.778   5.302  0.00  0.00    -0.453 OA
ATOM     30  C   UNL     1      -5.180 -11.426   6.423  0.00  0.00    +0.466 C 
ATOM     31  O   UNL     1      -4.331 -11.086   7.535  0.00  0.00    -0.453 OA
ENDBRANCH  22  23
ENDBRANCH  18  22
ENDBRANCH   1  15
BRANCH   1  32
ATOM     32  C   UNL     1       2.677  -4.662   2.316  0.00  0.00    +0.170 A 
ATOM     33  N   UNL     1       3.165  -5.280   1.268  0.00  0.00    -0.112 NA
ATOM     34  N   UNL     1       4.350  -4.822   1.052  0.00  0.00    -0.023 NA
ATOM     35  N   UNL     1       4.630  -3.928   1.935  0.00  0.00    -0.044 NA
ATOM     36  N   UNL     1       3.622  -3.796   2.728  0.00  0.00    -0.225 N 
BRANCH  36  37
ATOM     37  C   UNL     1       3.524  -2.880   3.868  0.00  0.00    +0.175 C 
BRANCH  37  38
ATOM     38  C   UNL     1       4.043  -3.576   5.128  0.00  0.00    +0.183 C 
BRANCH  38  39
ATOM     39  O   UNL     1       3.948  -2.683   6.239  0.00  0.00    -0.381 OA
ATOM     40  C   UNL     1       4.410  -3.238   7.472  0.00  0.00    +0.194 C 
ENDBRANCH  38  39
ENDBRANCH  37  38
ENDBRANCH  36  37
ENDBRANCH   1  32
TORSDOF 8
