REMARK  Name = ZINC51571785
REMARK  4 active torsions:
REMARK  status: ('A' for Active; 'I' for Inactive)
REMARK    1  A    between atoms: C_9  and  O_12
REMARK    2  A    between atoms: O_12  and  C_13
REMARK    3  A    between atoms: C_16  and  C_19
REMARK    4  A    between atoms: C_19  and  N_20
REMARK                            x       y       z     vdW  Elec       q    Type
REMARK                         _______ _______ _______ _____ _____    ______ ____
ROOT
ATOM      1  O   UNL     1       4.875  -2.648  -0.059  0.00  0.00    -0.436 OA
ENDROOT
BRANCH   1  10
ATOM      2  C   UNL     1      -0.121   1.226  -0.064  0.00  0.00    +0.001 A 
ATOM      3  C   UNL     1       1.041   1.987  -0.182  0.00  0.00    +0.001 A 
ATOM      4  C   UNL     1       2.266   1.395  -0.207  0.00  0.00    +0.010 A 
ATOM      5  C   UNL     1       2.365  -0.004  -0.112  0.00  0.00    -0.000 A 
ATOM      6  C   UNL     1       1.184  -0.778   0.009  0.00  0.00    -0.017 A 
ATOM      7  C   UNL     1      -0.064  -0.130   0.030  0.00  0.00    +0.008 A 
ATOM      8  C   UNL     1       1.278  -2.176   0.104  0.00  0.00    +0.012 A 
ATOM      9  C   UNL     1       2.499  -2.776   0.080  0.00  0.00    +0.048 A 
ATOM     10  C   UNL     1       3.669  -2.021  -0.038  0.00  0.00    +0.145 A 
ATOM     11  C   UNL     1       3.613  -0.648  -0.134  0.00  0.00    +0.068 A 
ATOM     12 BR   UNL     1       5.204   0.361  -0.294  0.00  0.00    -0.046 Br
ENDBRANCH   1  10
BRANCH   1  13
ATOM     13  C   UNL     1       5.544  -2.780   1.113  0.00  0.00    +0.240 A 
ATOM     14  C   UNL     1       6.816  -3.348   1.133  0.00  0.00    +0.071 A 
ATOM     15  C   UNL     1       7.458  -3.460   2.356  0.00  0.00    +0.028 A 
ATOM     16  C   UNL     1       6.796  -3.000   3.485  0.00  0.00    +0.046 A 
ATOM     17  N   UNL     1       5.591  -2.475   3.374  0.00  0.00    -0.153 NA
ATOM     18  N   UNL     1       4.994  -2.365   2.243  0.00  0.00    -0.111 NA
BRANCH  16  19
ATOM     19  C   UNL     1       7.452  -3.100   4.838  0.00  0.00    -0.028 C 
BRANCH  19  20
ATOM     20  N   UNL     1       8.129  -1.834   5.149  0.00  0.00    +0.382 N 
ATOM     21  H   UNL     1       8.830  -1.646   4.448  0.00  0.00    -0.090 HD
ATOM     22  H   UNL     1       7.453  -1.085   5.158  0.00  0.00    -0.090 HD
ATOM     23  H   UNL     1       8.569  -1.901   6.054  0.00  0.00    -0.090 HD
ENDBRANCH  19  20
ENDBRANCH  16  19
ENDBRANCH   1  13
TORSDOF 4
