REMARK  Name = ZINC15958621
REMARK  7 active torsions:
REMARK  status: ('A' for Active; 'I' for Inactive)
REMARK    1  A    between atoms: C_1  and  C_2
REMARK    2  A    between atoms: C_7  and  C_8
REMARK    3  A    between atoms: C_17  and  C_20
REMARK    4  A    between atoms: C_20  and  C_21
REMARK    5  A    between atoms: C_21  and  S_22
REMARK    6  A    between atoms: S_22  and  C_23
REMARK    7  A    between atoms: N_26  and  C_29
REMARK                            x       y       z     vdW  Elec       q    Type
REMARK                         _______ _______ _______ _____ _____    ______ ____
ROOT
ATOM      1  C   UNL     1      -0.018   1.503   0.010  0.00  0.00    +0.044 C 
ATOM      2  C   UNL     1       0.002  -0.004   0.002  0.00  0.00    -0.046 A 
ATOM      3  C   UNL     1       0.006  -0.685  -1.201  0.00  0.00    +0.004 A 
ATOM      4  C   UNL     1       0.025  -2.069  -1.209  0.00  0.00    +0.008 A 
ATOM      5  C   UNL     1       0.042  -2.764  -0.021  0.00  0.00    +0.004 A 
ATOM      6  C   UNL     1       0.038  -2.090   1.196  0.00  0.00    +0.042 A 
ATOM      7  C   UNL     1       0.023  -0.697   1.195  0.00  0.00    -0.026 A 
ATOM      8  C   UNL     1       0.025   0.056   2.500  0.00  0.00    +0.046 C 
ATOM      9  N   UNL     1       0.055  -3.001   2.254  0.00  0.00    -0.283 N 
ATOM     10  C   UNL     1       0.071  -4.278   1.824  0.00  0.00    +0.243 C 
ATOM     11  O   UNL     1       0.088  -5.275   2.515  0.00  0.00    -0.273 OA
ATOM     12  C   UNL     1       0.066  -4.227   0.321  0.00  0.00    +0.136 C 
ATOM     13  C   UNL     1      -1.149  -4.961  -0.262  0.00  0.00    +0.122 C 
ATOM     14  C   UNL     1      -0.621  -5.609  -1.572  0.00  0.00    +0.107 C 
ATOM     15  C   UNL     1       0.859  -5.179  -1.660  0.00  0.00    +0.068 C 
ATOM     16  N   UNL     1       1.252  -4.895  -0.247  0.00  0.00    -0.295 NA
ATOM     17  C   UNL     1      -0.709  -7.091  -1.290  0.00  0.00    +0.227 C 
ATOM     18  O   UNL     1      -0.384  -7.971  -2.057  0.00  0.00    -0.275 OA
ATOM     19  N   UNL     1      -1.202  -7.280  -0.060  0.00  0.00    -0.238 N 
ATOM     20  C   UNL     1      -1.495  -6.144   0.614  0.00  0.00    +0.228 C 
ATOM     21  O   UNL     1      -1.956  -6.076   1.733  0.00  0.00    -0.275 OA
ATOM     22  H   UNL     1       0.057  -2.745   3.190  0.00  0.00    +0.155 HD
ATOM     23  H   UNL     1       2.058  -4.289  -0.215  0.00  0.00    +0.123 HD
ENDROOT
BRANCH  19  24
ATOM     24  C   UNL     1      -1.414  -8.612   0.512  0.00  0.00    +0.084 C 
ATOM     25  C   UNL     1      -0.052  -9.326   0.633  0.00  0.00    +0.023 C 
ATOM     26  C   UNL     1      -0.179 -10.428   1.650  0.00  0.00    +0.002 C 
ATOM     27  C   UNL     1      -0.512 -11.788   1.008  0.00  0.00    +0.000 C 
ATOM     28  C   UNL     1      -1.562 -11.677  -0.114  0.00  0.00    +0.000 C 
ATOM     29  C   UNL     1      -2.683 -10.738   0.237  0.00  0.00    +0.002 C 
ATOM     30  C   UNL     1      -2.350  -9.343  -0.329  0.00  0.00    +0.023 C 
ENDBRANCH  19  24
BRANCH  15  31
ATOM     31  C   UNL     1       1.712  -6.320  -2.216  0.00  0.00    +0.030 C 
BRANCH  31  32
ATOM     32  C   UNL     1       3.150  -5.834  -2.411  0.00  0.00    +0.070 C 
BRANCH  32  33
ATOM     33  S   UNL     1       4.162  -7.187  -3.071  0.00  0.00    -0.164 S 
ATOM     34  C   UNL     1       5.813  -6.457  -3.243  0.00  0.00    +0.084 C 
ENDBRANCH  32  33
ENDBRANCH  31  32
ENDBRANCH  15  31
TORSDOF 4
