REMARK  Name = ZINC47969164
REMARK  10 active torsions:
REMARK  status: ('A' for Active; 'I' for Inactive)
REMARK    1  A    between atoms: C_1  and  C_2
REMARK    2  A    between atoms: C_2  and  C_3
REMARK    3  A    between atoms: N_5  and  C_6
REMARK    4  A    between atoms: C_9  and  N_13
REMARK    5  A    between atoms: C_11  and  C_12
REMARK    6  A    between atoms: N_16  and  C_17
REMARK    7  A    between atoms: C_17  and  C_18
REMARK    8  A    between atoms: C_18  and  C_19
REMARK    9  A    between atoms: C_18  and  C_20
REMARK   10  A    between atoms: C_18  and  N_21
REMARK                            x       y       z     vdW  Elec       q    Type
REMARK                         _______ _______ _______ _____ _____    ______ ____
ROOT
ATOM      1  N   UNL     1      -6.899  -3.747  -0.121  0.00  0.00    -0.269 N 
ATOM      2  C   UNL     1      -7.901  -2.898  -0.421  0.00  0.00    +0.304 C 
ATOM      3  O   UNL     1      -7.684  -1.704  -0.499  0.00  0.00    -0.253 OA
ATOM      4  N   UNL     1      -9.144  -3.373  -0.636  0.00  0.00    -0.300 N 
ATOM      5  H   UNL     1      -7.084  -4.691   0.007  0.00  0.00    +0.156 HD
ATOM      6  H   UNL     1      -9.317  -4.325  -0.575  0.00  0.00    +0.150 HD
ENDROOT
BRANCH   1  10
ATOM      7  C   UNL     1      -3.000  -2.317   0.261  0.00  0.00    +0.036 A 
ATOM      8  C   UNL     1      -3.228  -3.577  -0.276  0.00  0.00    +0.025 A 
ATOM      9  C   UNL     1      -4.518  -4.051  -0.402  0.00  0.00    +0.025 A 
ATOM     10  C   UNL     1      -5.589  -3.267   0.008  0.00  0.00    +0.035 A 
ATOM     11  C   UNL     1      -5.361  -2.007   0.545  0.00  0.00    +0.028 A 
ATOM     12  C   UNL     1      -4.070  -1.536   0.677  0.00  0.00    -0.027 A 
ATOM     13  C   UNL     1      -3.822  -0.171   1.267  0.00  0.00    +0.046 C 
BRANCH   7  16
ATOM     14  C   UNL     1      -0.660  -2.702   0.475  0.00  0.00    +0.217 C 
ATOM     15  O   UNL     1      -0.873  -3.894   0.537  0.00  0.00    -0.275 OA
ATOM     16  N   UNL     1      -1.690  -1.837   0.389  0.00  0.00    -0.285 N 
ATOM     17  H   UNL     1      -1.524  -0.881   0.417  0.00  0.00    +0.155 HD
BRANCH  14  19
ATOM     18  C   UNL     1       1.726  -3.367   0.594  0.00  0.00    +0.013 C 
ATOM     19  C   UNL     1       0.756  -2.188   0.492  0.00  0.00    +0.093 C 
ENDBRANCH  14  19
ENDBRANCH   7  16
ENDBRANCH   1  10
BRANCH   4  20
ATOM     20  C   UNL     1     -10.234  -2.450  -0.963  0.00  0.00    +0.093 C 
BRANCH  20  21
ATOM     21  C   UNL     1     -11.552  -3.223  -1.036  0.00  0.00    -0.055 C 
ATOM     22  C   UNL     1     -11.898  -3.773   0.349  0.00  0.00    -0.008 C 
ATOM     23  C   UNL     1     -12.668  -2.286  -1.505  0.00  0.00    -0.008 C 
BRANCH  21  24
ATOM     24  N   UNL     1     -11.416  -4.335  -1.985  0.00  0.00    +0.384 N 
ATOM     25  C   UNL     1     -10.967  -3.817  -3.283  0.00  0.00    -0.078 C 
ATOM     26  C   UNL     1     -10.745  -4.980  -4.252  0.00  0.00    -0.019 C 
ATOM     27  C   UNL     1     -12.059  -5.745  -4.433  0.00  0.00    -0.004 C 
ATOM     28  C   UNL     1     -12.556  -6.217  -3.064  0.00  0.00    -0.019 C 
ATOM     29  C   UNL     1     -12.711  -5.008  -2.139  0.00  0.00    -0.078 C 
ATOM     30  H   UNL     1     -10.736  -4.994  -1.635  0.00  0.00    -0.081 HD
ENDBRANCH  21  24
ENDBRANCH  20  21
ENDBRANCH   4  20
TORSDOF 6
