REMARK  Name = ZINC14775285
REMARK  15 active torsions:
REMARK  status: ('A' for Active; 'I' for Inactive)
REMARK    1  A    between atoms: C_1  and  C_2
REMARK    2  A    between atoms: C_2  and  C_3
REMARK    3  A    between atoms: C_3  and  O_4
REMARK    4  A    between atoms: O_4  and  C_5
REMARK    5  A    between atoms: C_8  and  C_12
REMARK    6  A    between atoms: N_14  and  C_15
REMARK    7  A    between atoms: C_15  and  N_17
REMARK    8  A    between atoms: C_23  and  C_25
REMARK    9  A    between atoms: C_25  and  C_26
REMARK   10  A    between atoms: C_26  and  O_28
REMARK   11  A    between atoms: O_28  and  C_29
REMARK   12  A    between atoms: C_29  and  C_30
REMARK   13  A    between atoms: C_30  and  C_31
REMARK   14  A    between atoms: C_31  and  C_32
REMARK   15  A    between atoms: C_31  and  C_33
REMARK                            x       y       z     vdW  Elec       q    Type
REMARK                         _______ _______ _______ _____ _____    ______ ____
ROOT
ATOM      1  C   UNL     1      -1.938   2.415  -9.662  0.00  0.00    +0.140 C 
ATOM      2  S   UNL     1      -1.051   1.954  -8.273  0.00  0.00    -0.018 S 
ENDROOT
BRANCH   1   3
ATOM      3  N   UNL     1      -1.547   1.994 -10.881  0.00  0.00    -0.299 N 
ATOM      4  C   UNL     1      -0.435   1.043 -11.043  0.00  0.00    +0.126 C 
ATOM      5  C   UNL     1      -0.980  -0.222 -11.710  0.00  0.00    +0.123 C 
ATOM      6  N   UNL     1      -1.817   0.117 -12.853  0.00  0.00    -0.312 N 
ATOM      7  C   UNL     1      -2.414   1.296 -13.031  0.00  0.00    +0.234 C 
ATOM      8  O   UNL     1      -3.152   1.433 -13.984  0.00  0.00    -0.274 OA
ATOM      9  C   UNL     1      -2.219   2.460 -12.104  0.00  0.00    +0.171 C 
ATOM     10  H   UNL     1      -1.950  -0.563 -13.532  0.00  0.00    +0.149 HD
BRANCH   9  11
ATOM     11  C   UNL     1      -1.354   3.518 -12.792  0.00  0.00    +0.152 C 
BRANCH  11  12
ATOM     12  C   UNL     1      -1.273   4.745 -11.920  0.00  0.00    +0.309 C 
ATOM     13  O   UNL     1      -1.947   4.821 -10.920  0.00  0.00    -0.251 OA
BRANCH  12  14
ATOM     14  O   UNL     1      -0.453   5.753 -12.255  0.00  0.00    -0.465 OA
BRANCH  14  15
ATOM     15  C   UNL     1      -0.426   6.903 -11.370  0.00  0.00    +0.232 C 
BRANCH  15  16
ATOM     16  C   UNL     1       0.559   7.941 -11.911  0.00  0.00    +0.044 C 
BRANCH  16  17
ATOM     17  C   UNL     1       0.588   9.153 -10.978  0.00  0.00    -0.014 C 
ATOM     18  C   UNL     1       1.147   8.736  -9.616  0.00  0.00    +0.007 C 
ATOM     19  C   UNL     1       1.477  10.242 -11.582  0.00  0.00    +0.007 C 
ENDBRANCH  16  17
ENDBRANCH  15  16
ENDBRANCH  14  15
ENDBRANCH  12  14
ENDBRANCH  11  12
ENDBRANCH   9  11
ENDBRANCH   1   3
BRANCH   1  22
ATOM     20  C   UNL     1      -3.479   3.534  -8.312  0.00  0.00    +0.250 C 
ATOM     21  O   UNL     1      -2.904   3.130  -7.321  0.00  0.00    -0.270 OA
ATOM     22  N   UNL     1      -3.027   3.199  -9.537  0.00  0.00    -0.264 N 
ATOM     23  H   UNL     1      -3.486   3.522 -10.328  0.00  0.00    +0.157 HD
BRANCH  20  27
ATOM     24  C   UNL     1      -6.911   6.004  -7.917  0.00  0.00    +0.134 A 
ATOM     25  C   UNL     1      -6.254   5.542  -6.782  0.00  0.00    +0.047 A 
ATOM     26  C   UNL     1      -5.141   4.742  -6.906  0.00  0.00    +0.017 A 
ATOM     27  C   UNL     1      -4.671   4.393  -8.175  0.00  0.00    +0.038 A 
ATOM     28  C   UNL     1      -5.333   4.858  -9.314  0.00  0.00    +0.032 A 
ATOM     29  C   UNL     1      -6.450   5.655  -9.182  0.00  0.00    +0.060 A 
ATOM     30 BR   UNL     1      -7.353   6.280 -10.721  0.00  0.00    -0.046 Br
BRANCH  24  31
ATOM     31  O   UNL     1      -8.007   6.794  -7.790  0.00  0.00    -0.491 OA
BRANCH  31  32
ATOM     32  C   UNL     1      -8.430   7.109  -6.462  0.00  0.00    +0.229 C 
BRANCH  32  34
ATOM     33  C   UNL     1     -10.124   8.339  -5.098  0.00  0.00    +0.007 C 
ATOM     34  C   UNL     1      -9.671   8.001  -6.520  0.00  0.00    +0.038 C 
ENDBRANCH  32  34
ENDBRANCH  31  32
ENDBRANCH  24  31
ENDBRANCH  20  27
ENDBRANCH   1  22
TORSDOF 12
