REMARK  Name = ZINC59385708
REMARK  8 active torsions:
REMARK  status: ('A' for Active; 'I' for Inactive)
REMARK    1  A    between atoms: C_1  and  C_2
REMARK    2  A    between atoms: C_2  and  O_3
REMARK    3  A    between atoms: O_3  and  C_4
REMARK    4  A    between atoms: C_7  and  C_10
REMARK    5  A    between atoms: N_11  and  N_12
REMARK    6  A    between atoms: C_13  and  C_15
REMARK    7  A    between atoms: C_16  and  C_30
REMARK    8  A    between atoms: C_21  and  C_23
REMARK                            x       y       z     vdW  Elec       q    Type
REMARK                         _______ _______ _______ _____ _____    ______ ____
ROOT
ATOM      1  C   UNL     1      -4.704 -10.161   0.131  0.00  0.00    +0.057 C 
ATOM      2  C   UNL     1      -5.807 -10.938   0.112  0.00  0.00    +0.019 C 
ATOM      3  N   UNL     1      -5.713 -12.293  -0.046  0.00  0.00    -0.273 N 
ATOM      4  C   UNL     1      -4.553 -12.945  -0.190  0.00  0.00    +0.304 C 
ATOM      5  O   UNL     1      -4.569 -14.153  -0.324  0.00  0.00    -0.252 OA
ATOM      6  N   UNL     1      -3.367 -12.305  -0.192  0.00  0.00    -0.288 N 
ATOM      7  C   UNL     1      -3.360 -10.841  -0.034  0.00  0.00    +0.143 C 
ATOM      8  C   UNL     1      -7.165 -10.302   0.267  0.00  0.00    +0.061 C 
ATOM      9  H   UNL     1      -6.534 -12.811  -0.053  0.00  0.00    +0.156 HD
ATOM     10  H   UNL     1      -2.537 -12.796  -0.298  0.00  0.00    +0.151 HD
ENDROOT
BRANCH   7  11
ATOM     11  C   UNL     1      -2.522 -10.512   1.175  0.00  0.00    -0.004 A 
ATOM     12  C   UNL     1      -2.524 -11.357   2.268  0.00  0.00    +0.007 A 
ATOM     13  C   UNL     1      -1.755 -11.056   3.377  0.00  0.00    +0.000 A 
ATOM     14  C   UNL     1      -0.984  -9.909   3.393  0.00  0.00    +0.001 A 
ATOM     15  C   UNL     1      -0.981  -9.063   2.300  0.00  0.00    +0.020 A 
ATOM     16  C   UNL     1      -1.746  -9.367   1.188  0.00  0.00    +0.046 A 
ATOM     17 CL   UNL     1      -1.738  -8.307  -0.188  0.00  0.00    -0.083 Cl
ENDBRANCH   7  11
BRANCH   1  19
ATOM     18  N   UNL     1      -4.975  -8.232   1.523  0.00  0.00    -0.203 N 
ATOM     19  C   UNL     1      -4.800  -8.757   0.294  0.00  0.00    +0.263 C 
ATOM     20  O   UNL     1      -4.725  -8.025  -0.676  0.00  0.00    -0.269 OA
ATOM     21  H   UNL     1      -4.968  -8.809   2.303  0.00  0.00    +0.178 HD
BRANCH  18  23
ATOM     22  C   UNL     1      -5.238  -6.334   2.862  0.00  0.00    +0.138 C 
ATOM     23  N   UNL     1      -5.167  -6.853   1.675  0.00  0.00    -0.187 NA
BRANCH  22  27
ATOM     24  C   UNL     1      -5.498  -2.122   3.326  0.00  0.00    +0.121 A 
ATOM     25  C   UNL     1      -5.490  -2.943   4.447  0.00  0.00    +0.046 A 
ATOM     26  C   UNL     1      -5.405  -4.310   4.301  0.00  0.00    +0.013 A 
ATOM     27  C   UNL     1      -5.329  -4.871   3.023  0.00  0.00    -0.005 A 
ATOM     28  C   UNL     1      -5.338  -4.042   1.899  0.00  0.00    +0.013 A 
ATOM     29  C   UNL     1      -5.428  -2.675   2.054  0.00  0.00    +0.046 A 
BRANCH  24  30
ATOM     30  O   UNL     1      -5.581  -0.774   3.475  0.00  0.00    -0.492 OA
BRANCH  30  32
ATOM     31  C   UNL     1      -5.738   1.256   4.777  0.00  0.00    +0.048 C 
ATOM     32  C   UNL     1      -5.650  -0.272   4.811  0.00  0.00    +0.225 C 
ENDBRANCH  30  32
ENDBRANCH  24  30
ENDBRANCH  22  27
ENDBRANCH  18  23
ENDBRANCH   1  19
TORSDOF 6
