REMARK  Name = ZINC63458798
REMARK  4 active torsions:
REMARK  status: ('A' for Active; 'I' for Inactive)
REMARK    1  A    between atoms: C_10  and  C_12
REMARK    2  A    between atoms: C_12  and  O_13
REMARK    3  A    between atoms: O_13  and  N_14
REMARK    4  A    between atoms: C_15  and  C_16
REMARK                            x       y       z     vdW  Elec       q    Type
REMARK                         _______ _______ _______ _____ _____    ______ ____
ROOT
ATOM      1  C   UNL     1      -2.917  -2.431  -1.725  0.00  0.00    +0.358 C 
ENDROOT
BRANCH   1  11
ATOM      2  C   UNL     1      -0.244   1.178   0.473  0.00  0.00    +0.013 A 
ATOM      3  C   UNL     1       0.928   1.846   0.563  0.00  0.00    +0.046 A 
ATOM      4  S   UNL     1       2.113   0.509   0.594  0.00  0.00    -0.101 S 
ATOM      5  C   UNL     1       0.961  -0.834   0.481  0.00  0.00    -0.004 A 
ATOM      6  C   UNL     1      -0.251  -0.215   0.430  0.00  0.00    -0.020 A 
ATOM      7  C   UNL     1      -1.531  -1.044   0.338  0.00  0.00    +0.143 C 
ATOM      8  N   UNL     1      -1.150  -2.424   0.006  0.00  0.00    -0.294 N 
ATOM      9  C   UNL     1      -0.054  -3.061   0.751  0.00  0.00    +0.113 C 
ATOM     10  C   UNL     1       1.245  -2.300   0.446  0.00  0.00    +0.061 C 
ATOM     11  C   UNL     1      -1.795  -3.095  -0.968  0.00  0.00    +0.256 C 
ATOM     12  O   UNL     1      -1.474  -4.234  -1.235  0.00  0.00    -0.272 OA
ENDBRANCH   1  11
BRANCH   1  13
ATOM     13  O   UNL     1      -3.437  -3.339  -2.698  0.00  0.00    -0.383 OA
BRANCH  13  14
ATOM     14  N   UNL     1      -4.502  -2.810  -3.468  0.00  0.00    -0.074 NA
ATOM     15  C   UNL     1      -5.059  -3.533  -4.382  0.00  0.00    +0.135 C 
ATOM     16  N   UNL     1      -6.163  -3.060  -5.056  0.00  0.00    -0.344 N 
ATOM     17  H   UNL     1      -6.522  -2.184  -4.845  0.00  0.00    +0.144 HD
ATOM     18  H   UNL     1      -6.582  -3.603  -5.742  0.00  0.00    +0.144 HD
BRANCH  15  19
ATOM     19  C   UNL     1      -4.501  -4.894  -4.711  0.00  0.00    +0.055 C 
ATOM     20  C   UNL     1      -4.643  -5.154  -6.212  0.00  0.00    +0.011 C 
ATOM     21  C   UNL     1      -4.076  -6.536  -6.546  0.00  0.00    +0.001 C 
ATOM     22  C   UNL     1      -4.847  -7.604  -5.768  0.00  0.00    +0.000 C 
ATOM     23  C   UNL     1      -4.706  -7.345  -4.267  0.00  0.00    +0.001 C 
ATOM     24  C   UNL     1      -5.272  -5.963  -3.933  0.00  0.00    +0.011 C 
ENDBRANCH  15  19
ENDBRANCH  13  14
ENDBRANCH   1  13
TORSDOF 4
