REMARK  Name = ZINC59437464
REMARK  4 active torsions:
REMARK  status: ('A' for Active; 'I' for Inactive)
REMARK    1  A    between atoms: C_2  and  C_13
REMARK    2  A    between atoms: C_4  and  N_7
REMARK    3  A    between atoms: C_14  and  C_15
REMARK    4  A    between atoms: C_14  and  C_17
REMARK                            x       y       z     vdW  Elec       q    Type
REMARK                         _______ _______ _______ _____ _____    ______ ____
ROOT
ATOM      1  C   UNL     1      -0.016   1.388   0.036  0.00  0.00    +0.066 A 
ATOM      2  C   UNL     1       1.308   1.807  -0.028  0.00  0.00    +0.133 A 
ATOM      3  O   UNL     1       2.095   0.706  -0.056  0.00  0.00    -0.441 OA
ATOM      4  C   UNL     1       1.326  -0.392  -0.013  0.00  0.00    +0.203 A 
ATOM      5  C   UNL     1       0.003  -0.004   0.045  0.00  0.00    +0.079 A 
ATOM      6 BR   UNL     1      -1.500  -1.148   0.123  0.00  0.00    -0.045 Br
ENDROOT
BRANCH   4   7
ATOM      7  N   UNL     1       1.782  -1.691  -0.024  0.00  0.00    -0.301 N 
ATOM      8  C   UNL     1       1.919  -2.425  -1.290  0.00  0.00    +0.108 C 
ATOM      9  C   UNL     1       3.346  -2.975  -1.389  0.00  0.00    +0.019 C 
ATOM     10  C   UNL     1       3.654  -3.808  -0.142  0.00  0.00    +0.003 C 
ATOM     11  C   UNL     1       3.563  -2.921   1.101  0.00  0.00    +0.019 C 
ATOM     12  C   UNL     1       2.145  -2.368   1.228  0.00  0.00    +0.108 C 
ENDBRANCH   4   7
BRANCH   2  13
ATOM     13  C   UNL     1       1.750   3.132  -0.059  0.00  0.00    +0.070 C 
ATOM     14  C   UNL     1       3.113   3.412  -0.123  0.00  0.00    +0.117 C 
BRANCH  14  15
ATOM     15  C   UNL     1       3.575   4.802  -0.155  0.00  0.00    +0.252 C 
ATOM     16  O   UNL     1       2.768   5.712  -0.125  0.00  0.00    -0.270 OA
ATOM     17  N   UNL     1       4.894   5.072  -0.218  0.00  0.00    -0.325 N 
ATOM     18  H   UNL     1       5.537   4.346  -0.242  0.00  0.00    +0.145 HD
ATOM     19  H   UNL     1       5.200   5.992  -0.239  0.00  0.00    +0.145 HD
ENDBRANCH  14  15
BRANCH  14  20
ATOM     20  C   UNL     1       4.062   2.340  -0.159  0.00  0.00    +0.104 C 
ATOM     21  N   UNL     1       4.815   1.490  -0.186  0.00  0.00    -0.191 NA
ENDBRANCH  14  20
ENDBRANCH   2  13
TORSDOF 4
