REMARK  Name = ZINC39663913
REMARK  12 active torsions:
REMARK  status: ('A' for Active; 'I' for Inactive)
REMARK    1  A    between atoms: C_1  and  C_2
REMARK    2  A    between atoms: C_5  and  C_9
REMARK    3  A    between atoms: C_6  and  C_8
REMARK    4  A    between atoms: C_13  and  C_22
REMARK    5  A    between atoms: N_24  and  C_25
REMARK    6  A    between atoms: C_25  and  C_26
REMARK    7  A    between atoms: C_26  and  C_28
REMARK    8  A    between atoms: C_26  and  N_36
REMARK    9  A    between atoms: C_31  and  O_34
REMARK   10  A    between atoms: O_34  and  C_35
REMARK   11  A    between atoms: N_36  and  C_37
REMARK   12  A    between atoms: N_36  and  C_38
REMARK                            x       y       z     vdW  Elec       q    Type
REMARK                         _______ _______ _______ _____ _____    ______ ____
ROOT
ATOM      1  C   UNL     1       0.274  -4.829   0.086  0.00  0.00    +0.247 C 
ATOM      2  O   UNL     1       0.333  -5.536   1.073  0.00  0.00    -0.270 OA
ATOM      3  N   UNL     1       0.143  -5.386  -1.134  0.00  0.00    -0.296 N 
ATOM      4  C   UNL     1       0.165  -4.705  -2.450  0.00  0.00    +0.121 C 
ATOM      5  C   UNL     1       0.955  -5.662  -3.372  0.00  0.00    +0.100 C 
ATOM      6  C   UNL     1       0.805  -7.046  -2.720  0.00  0.00    -0.004 C 
ATOM      7  C   UNL     1      -0.048  -6.819  -1.464  0.00  0.00    +0.115 C 
ATOM      8  C   UNL     1       2.173  -7.597  -2.328  0.00  0.00    -0.010 C 
ATOM      9  C   UNL     1       2.003  -8.998  -1.735  0.00  0.00    -0.082 C 
ATOM     10  N   UNL     1       1.365  -9.876  -2.723  0.00  0.00    +0.379 N 
ATOM     11  C   UNL     1       0.013  -9.391  -3.025  0.00  0.00    -0.082 C 
ATOM     12  C   UNL     1       0.098  -8.006  -3.673  0.00  0.00    -0.010 C 
ATOM     13  H   UNL     1       1.914  -9.884  -3.569  0.00  0.00    -0.086 HD
ATOM     14  H   UNL     1       1.309 -10.813  -2.353  0.00  0.00    -0.086 HD
ENDROOT
BRANCH   1  19
ATOM     15  C   UNL     1       0.548   0.894   0.624  0.00  0.00    +0.044 C 
ATOM     16  C   UNL     1       0.476  -0.605   0.483  0.00  0.00    -0.050 A 
ATOM     17  C   UNL     1       1.319  -1.255  -0.402  0.00  0.00    +0.004 A 
ATOM     18  C   UNL     1       1.258  -2.627  -0.535  0.00  0.00    +0.013 A 
ATOM     19  C   UNL     1       0.344  -3.359   0.225  0.00  0.00    +0.040 A 
ATOM     20  C   UNL     1      -0.503  -2.697   1.114  0.00  0.00    -0.038 A 
ATOM     21  C   UNL     1      -0.429  -1.325   1.242  0.00  0.00    +0.007 A 
ATOM     22  C   UNL     1      -1.493  -3.480   1.938  0.00  0.00    +0.044 C 
ENDBRANCH   1  19
BRANCH   5  23
ATOM     23  C   UNL     1       0.361  -5.664  -4.757  0.00  0.00    +0.218 C 
ATOM     24  O   UNL     1      -0.833  -5.516  -4.905  0.00  0.00    -0.275 OA
ATOM     25  N   UNL     1       1.158  -5.831  -5.831  0.00  0.00    -0.316 N 
ATOM     26  H   UNL     1       2.114  -5.949  -5.712  0.00  0.00    +0.149 HD
BRANCH  25  27
ATOM     27  C   UNL     1       0.581  -5.833  -7.178  0.00  0.00    +0.093 C 
BRANCH  27  28
ATOM     28  C   UNL     1       1.674  -6.152  -8.200  0.00  0.00    -0.021 C 
BRANCH  28  29
ATOM     29  C   UNL     1       2.685  -5.035  -8.220  0.00  0.00    -0.059 A 
ATOM     30  C   UNL     1       2.414  -3.871  -8.915  0.00  0.00    +0.005 A 
ATOM     31  C   UNL     1       3.339  -2.845  -8.935  0.00  0.00    +0.046 A 
ATOM     32  C   UNL     1       4.541  -2.984  -8.256  0.00  0.00    +0.120 A 
ATOM     33  C   UNL     1       4.811  -4.152  -7.559  0.00  0.00    +0.046 A 
ATOM     34  C   UNL     1       3.880  -5.173  -7.537  0.00  0.00    +0.005 A 
BRANCH  32  35
ATOM     35  O   UNL     1       5.453  -1.976  -8.275  0.00  0.00    -0.495 OA
ATOM     36  C   UNL     1       6.669  -2.188  -7.553  0.00  0.00    +0.277 C 
ENDBRANCH  32  35
ENDBRANCH  28  29
BRANCH  28  37
ATOM     37  N   UNL     1       1.072  -6.292  -9.533  0.00  0.00    +0.382 N 
ATOM     38  C   UNL     1       2.112  -6.659 -10.504  0.00  0.00    -0.096 C 
ATOM     39  C   UNL     1       0.043  -7.339  -9.498  0.00  0.00    -0.096 C 
ATOM     40  H   UNL     1       0.652  -5.416  -9.805  0.00  0.00    -0.082 HD
ENDBRANCH  28  37
ENDBRANCH  27  28
ENDBRANCH  25  27
ENDBRANCH   5  23
TORSDOF 7
