REMARK  Name = ZINC67080823
REMARK  7 active torsions:
REMARK  status: ('A' for Active; 'I' for Inactive)
REMARK    1  A    between atoms: C_1  and  C_2
REMARK    2  A    between atoms: C_2  and  C_3
REMARK    3  A    between atoms: C_2  and  C_4
REMARK    4  A    between atoms: C_4  and  C_5
REMARK    5  A    between atoms: C_5  and  C_6
REMARK    6  A    between atoms: N_8  and  N_9
REMARK    7  A    between atoms: N_12  and  C_13
REMARK                            x       y       z     vdW  Elec       q    Type
REMARK                         _______ _______ _______ _____ _____    ______ ____
ROOT
ATOM      1  N   UNL     1       4.859  -0.752  -3.775  0.00  0.00    -0.218 N 
ATOM      2  C   UNL     1       6.170  -0.492  -3.950  0.00  0.00    +0.316 C 
ATOM      3  O   UNL     1       6.740  -0.884  -4.950  0.00  0.00    -0.251 OA
ATOM      4  N   UNL     1       6.851   0.201  -3.015  0.00  0.00    -0.291 N 
ATOM      5  H   UNL     1       4.370  -1.251  -4.447  0.00  0.00    +0.174 HD
ATOM      6  H   UNL     1       6.397   0.514  -2.217  0.00  0.00    +0.151 HD
ENDROOT
BRANCH   4   7
ATOM      7  C   UNL     1       8.276   0.483  -3.205  0.00  0.00    +0.108 C 
ATOM      8  C   UNL     1       8.663   1.728  -2.407  0.00  0.00    +0.030 C 
ATOM      9  C   UNL     1       9.907   2.380  -2.991  0.00  0.00    +0.043 C 
ATOM     10  C   UNL     1      11.160   1.545  -2.825  0.00  0.00    +0.229 C 
ATOM     11  O   UNL     1      11.064   0.329  -3.576  0.00  0.00    -0.492 OA
ATOM     12  C   UNL     1      10.458  -0.708  -2.939  0.00  0.00    +0.125 A 
ATOM     13  C   UNL     1       9.097  -0.692  -2.710  0.00  0.00    +0.014 A 
ATOM     14  C   UNL     1       8.485  -1.730  -2.038  0.00  0.00    +0.009 A 
ATOM     15  C   UNL     1       9.242  -2.808  -1.609  0.00  0.00    +0.001 A 
ATOM     16  C   UNL     1      10.601  -2.840  -1.856  0.00  0.00    +0.004 A 
ATOM     17  C   UNL     1      11.215  -1.793  -2.514  0.00  0.00    +0.046 A 
ENDBRANCH   4   7
BRANCH   1  20
ATOM     18  C   UNL     1       2.893  -0.559  -2.447  0.00  0.00    +0.229 C 
ATOM     19  O   UNL     1       2.281  -1.183  -3.288  0.00  0.00    -0.274 OA
ATOM     20  N   UNL     1       4.204  -0.300  -2.622  0.00  0.00    -0.233 N 
ATOM     21  H   UNL     1       4.693   0.200  -1.950  0.00  0.00    +0.173 HD
BRANCH  18  22
ATOM     22  C   UNL     1       2.187  -0.073  -1.207  0.00  0.00    +0.097 C 
BRANCH  22  23
ATOM     23  C   UNL     1       0.718  -0.497  -1.257  0.00  0.00    +0.012 C 
BRANCH  23  25
ATOM     24  C   UNL     1      -0.019   1.526   0.010  0.00  0.00    +0.007 C 
ATOM     25  C   UNL     1       0.002  -0.004   0.002  0.00  0.00    -0.017 C 
ATOM     26  C   UNL     1      -1.433  -0.534   0.013  0.00  0.00    +0.007 C 
ENDBRANCH  23  25
ENDBRANCH  22  23
ENDBRANCH  18  22
ENDBRANCH   1  20
TORSDOF 5
