REMARK  Name = ZINC12211267
REMARK  6 active torsions:
REMARK  status: ('A' for Active; 'I' for Inactive)
REMARK    1  A    between atoms: C_1  and  C_2
REMARK    2  A    between atoms: C_2  and  CA_3
REMARK    3  A    between atoms: CA_3  and  C_5
REMARK    4  A    between atoms: CA_3  and  N_7
REMARK    5  A    between atoms: C_15  and  S_17
REMARK    6  A    between atoms: S_17  and  C_18
REMARK                            x       y       z     vdW  Elec       q    Type
REMARK                         _______ _______ _______ _____ _____    ______ ____
ROOT
ATOM      1  N   UNL     1       4.337  -0.572  -0.044  0.00  0.00    -0.316 N 
ATOM      2  C   UNL     1       3.690   0.650  -0.030  0.00  0.00    +0.132 A 
ATOM      3  C   UNL     1       2.289   0.761   0.209  0.00  0.00    +0.051 A 
ATOM      4  C   UNL     1       1.355  -0.324   0.465  0.00  0.00    -0.025 A 
ATOM      5  C   UNL     1       0.064   0.021   0.665  0.00  0.00    -0.004 A 
ATOM      6  S   UNL     1       0.025   1.791   0.524  0.00  0.00    -0.073 S 
ATOM      7  C   UNL     1       1.737   2.066   0.198  0.00  0.00    +0.115 A 
ATOM      8  N   UNL     1       2.449   3.155  -0.019  0.00  0.00    -0.215 NA
ATOM      9  C   UNL     1       3.755   2.984  -0.237  0.00  0.00    +0.191 A 
ATOM     10  N   UNL     1       4.337   1.794  -0.241  0.00  0.00    -0.206 NA
ATOM     11  C   UNL     1      -1.088  -0.895   0.944  0.00  0.00    +0.043 C 
ATOM     12  C   UNL     1      -0.661  -2.330   0.607  0.00  0.00    +0.005 C 
ATOM     13  C   UNL     1       0.708  -2.596   1.242  0.00  0.00    +0.005 C 
ATOM     14  C   UNL     1       1.782  -1.789   0.513  0.00  0.00    +0.037 C 
ATOM     15  H   UNL     1       3.825  -1.393   0.030  0.00  0.00    +0.148 HD
ENDROOT
BRANCH   9  16
ATOM     16  S   UNL     1       4.751   4.407  -0.532  0.00  0.00    -0.089 S 
ATOM     17  C   UNL     1       3.491   5.702  -0.416  0.00  0.00    +0.093 C 
ENDBRANCH   9  16
BRANCH   1  18
ATOM     18  CA  UNL     1       5.795  -0.627  -0.169  0.00  0.00    +0.185 C 
BRANCH  18  19
ATOM     19  C   UNL     1       6.176  -0.572  -1.626  0.00  0.00    +0.376 C 
ATOM     20  O   UNL     1       5.318  -0.495  -2.473  0.00  0.00    -0.244 OA
ATOM     21  OXT UNL     1       7.470  -0.609  -1.984  0.00  0.00    -0.244 OA
ENDBRANCH  18  19
BRANCH  18  23
ATOM     22  C   UNL     1       6.034  -1.930   1.949  0.00  0.00    +0.006 C 
ATOM     23  C   UNL     1       6.311  -1.930   0.444  0.00  0.00    +0.030 C 
ENDBRANCH  18  23
ENDBRANCH   1  18
TORSDOF 4
