REMARK  Name = ZINC42879783
REMARK  7 active torsions:
REMARK  status: ('A' for Active; 'I' for Inactive)
REMARK    1  A    between atoms: C_1  and  C_2
REMARK    2  A    between atoms: C_2  and  N_3
REMARK    3  A    between atoms: C_4  and  C_6
REMARK    4  A    between atoms: C_6  and  N_7
REMARK    5  A    between atoms: N_7  and  C_8
REMARK    6  A    between atoms: C_8  and  C_9
REMARK    7  A    between atoms: C_14  and  O_15
REMARK                            x       y       z     vdW  Elec       q    Type
REMARK                         _______ _______ _______ _____ _____    ______ ____
ROOT
ATOM      1  C   UNL     1      -4.298  -5.881   0.011  0.00  0.00    +0.011 A 
ATOM      2  C   UNL     1      -4.574  -6.590   1.166  0.00  0.00    +0.058 A 
ATOM      3  C   UNL     1      -4.520  -7.973   1.161  0.00  0.00    +0.167 A 
ATOM      4  C   UNL     1      -4.186  -8.651  -0.009  0.00  0.00    +0.170 A 
ATOM      5  C   UNL     1      -3.910  -7.939  -1.164  0.00  0.00    +0.095 A 
ATOM      6  C   UNL     1      -3.970  -6.554  -1.156  0.00  0.00    +0.125 A 
ATOM      7  O   UNL     1      -4.200  -9.993   0.245  0.00  0.00    -0.452 OA
ATOM      8  C   UNL     1      -4.146 -10.114   1.679  0.00  0.00    +0.466 C 
ATOM      9  O   UNL     1      -4.744  -8.891   2.148  0.00  0.00    -0.453 OA
ENDROOT
BRANCH   6  10
ATOM     10  O   UNL     1      -3.704  -5.855  -2.291  0.00  0.00    -0.506 OA
ATOM     11  H   UNL     1      -2.773  -5.620  -2.399  0.00  0.00    +0.292 HD
ENDBRANCH   6  10
BRANCH   1  12
ATOM     12  C   UNL     1      -4.359  -4.375   0.020  0.00  0.00    +0.120 C 
BRANCH  12  13
ATOM     13  N   UNL     1      -2.994  -3.830   0.010  0.00  0.00    -0.304 NA
ATOM     14  H   UNL     1      -2.471  -4.180  -0.778  0.00  0.00    +0.123 HD
BRANCH  13  15
ATOM     15  C   UNL     1      -3.014  -2.361   0.018  0.00  0.00    +0.177 C 
BRANCH  15  17
ATOM     16  N   UNL     1      -1.372  -0.511   0.012  0.00  0.00    -0.315 N 
ATOM     17  C   UNL     1      -1.601  -1.839   0.007  0.00  0.00    +0.227 C 
ATOM     18  O   UNL     1      -0.668  -2.615  -0.006  0.00  0.00    -0.274 OA
ATOM     19  H   UNL     1      -2.118   0.109   0.023  0.00  0.00    +0.149 HD
BRANCH  16  21
ATOM     20  C   UNL     1      -0.019   1.526   0.010  0.00  0.00    +0.024 C 
ATOM     21  C   UNL     1       0.002  -0.004   0.002  0.00  0.00    +0.101 C 
ENDBRANCH  16  21
ENDBRANCH  15  17
ENDBRANCH  13  15
ENDBRANCH  12  13
ENDBRANCH   1  12
TORSDOF 6
