REMARK  Name = ZINC63477897
REMARK  5 active torsions:
REMARK  status: ('A' for Active; 'I' for Inactive)
REMARK    1  A    between atoms: C_1  and  C_2
REMARK    2  A    between atoms: C_4  and  C_16
REMARK    3  A    between atoms: C_6  and  C_11
REMARK    4  A    between atoms: N_18  and  N_19
REMARK    5  A    between atoms: C_20  and  C_28
REMARK                            x       y       z     vdW  Elec       q    Type
REMARK                         _______ _______ _______ _____ _____    ______ ____
ROOT
ATOM      1  C   UNL     1      -1.486   1.557   0.079  0.00  0.00    +0.070 C 
ATOM      2  C   UNL     1      -1.256   0.068   0.122  0.00  0.00    +0.091 A 
ATOM      3  C   UNL     1      -0.828  -0.773  -0.993  0.00  0.00    +0.076 A 
ATOM      4  C   UNL     1      -0.514  -0.520  -2.345  0.00  0.00    +0.055 A 
ATOM      5  C   UNL     1      -0.132  -1.596  -3.138  0.00  0.00    +0.045 A 
ATOM      6  C   UNL     1      -0.074  -2.875  -2.569  0.00  0.00    +0.111 A 
ATOM      7  N   UNL     1      -0.375  -3.076  -1.294  0.00  0.00    -0.207 NA
ATOM      8  C   UNL     1      -0.745  -2.087  -0.497  0.00  0.00    +0.260 A 
ATOM      9  O   UNL     1      -1.094  -2.037   0.805  0.00  0.00    -0.334 OA
ATOM     10  N   UNL     1      -1.398  -0.702   1.158  0.00  0.00    -0.080 NA
ENDROOT
BRANCH   6  11
ATOM     11  C   UNL     1       0.331  -4.020  -3.406  0.00  0.00    +0.153 A 
ATOM     12  C   UNL     1       0.428  -5.315  -2.996  0.00  0.00    +0.051 A 
ATOM     13  C   UNL     1       0.843  -6.063  -4.113  0.00  0.00    +0.042 A 
ATOM     14  C   UNL     1       0.979  -5.200  -5.140  0.00  0.00    +0.196 A 
ATOM     15  O   UNL     1       0.663  -3.968  -4.711  0.00  0.00    -0.461 OA
ENDBRANCH   6  11
BRANCH   4  16
ATOM     16  C   UNL     1      -0.591   0.849  -2.903  0.00  0.00    +0.263 C 
ATOM     17  O   UNL     1      -0.218   1.797  -2.239  0.00  0.00    -0.268 OA
ATOM     18  N   UNL     1      -1.073   1.044  -4.146  0.00  0.00    -0.217 N 
ATOM     19  H   UNL     1      -1.433   0.297  -4.649  0.00  0.00    +0.176 HD
BRANCH  18  20
ATOM     20  N   UNL     1      -1.056   2.326  -4.710  0.00  0.00    -0.243 N 
ATOM     21  C   UNL     1      -1.914   2.804  -5.652  0.00  0.00    +0.125 A 
ATOM     22  N   UNL     1      -1.610   4.034  -5.950  0.00  0.00    -0.231 NA
ATOM     23  C   UNL     1      -0.536   4.429  -5.219  0.00  0.00    +0.091 A 
ATOM     24  C   UNL     1      -0.169   3.341  -4.410  0.00  0.00    +0.089 A 
ATOM     25  C   UNL     1       0.907   3.458  -3.542  0.00  0.00    +0.030 A 
ATOM     26  C   UNL     1       1.607   4.644  -3.478  0.00  0.00    +0.002 A 
ATOM     27  C   UNL     1       1.243   5.720  -4.275  0.00  0.00    +0.002 A 
ATOM     28  C   UNL     1       0.190   5.620  -5.141  0.00  0.00    +0.030 A 
ATOM     29  C   UNL     1      -3.049   2.023  -6.262  0.00  0.00    +0.088 C 
ENDBRANCH  18  20
ENDBRANCH   4  16
TORSDOF 3
