REMARK  Name = ZINC04861026
REMARK  7 active torsions:
REMARK  status: ('A' for Active; 'I' for Inactive)
REMARK    1  A    between atoms: C_1  and  C_2
REMARK    2  A    between atoms: C_9  and  C_10
REMARK    3  A    between atoms: C_9  and  N_58
REMARK    4  A    between atoms: C_22  and  C_26
REMARK    5  A    between atoms: C_26  and  C_27
REMARK    6  A    between atoms: C_26  and  C_28
REMARK    7  A    between atoms: C_26  and  C_29
REMARK                            x       y       z     vdW  Elec       q    Type
REMARK                         _______ _______ _______ _____ _____    ______ ____
ROOT
ATOM      1  C   UNL     1       5.414  -3.028  -5.734  0.00  0.00    +0.094 A 
ATOM      2  N   UNL     1       4.307  -3.800  -5.612  0.00  0.00    -0.312 N 
ATOM      3  H   UNL     1       4.225  -4.610  -6.192  0.00  0.00    +0.170 HD
ATOM      4  C   UNL     1       3.307  -3.525  -4.742  0.00  0.00    +0.260 A 
ATOM      5  O   UNL     1       2.317  -4.230  -4.647  0.00  0.00    -0.267 OA
ATOM      6  C   UNL     1       3.487  -2.349  -3.938  0.00  0.00    +0.075 A 
ATOM      7  C   UNL     1       2.573  -1.833  -2.935  0.00  0.00    -0.023 A 
ATOM      8  C   UNL     1       2.950  -0.701  -2.295  0.00  0.00    -0.004 A 
ATOM      9  S   UNL     1       4.525  -0.276  -2.994  0.00  0.00    -0.073 S 
ATOM     10  C   UNL     1       4.674  -1.611  -4.138  0.00  0.00    +0.116 A 
ATOM     11  N   UNL     1       5.615  -1.944  -5.016  0.00  0.00    -0.229 NA
ATOM     12  C   UNL     1       2.197   0.031  -1.227  0.00  0.00    +0.046 C 
ATOM     13  C   UNL     1       0.750  -0.482  -1.214  0.00  0.00    -0.000 C 
ATOM     14  C   UNL     1       0.768  -2.013  -1.233  0.00  0.00    +0.009 C 
ATOM     15  C   UNL     1       1.247  -2.510  -2.596  0.00  0.00    +0.037 C 
ENDROOT
BRANCH  13  16
ATOM     16  C   UNL     1       0.044   0.008   0.052  0.00  0.00    -0.035 C 
ATOM     17  C   UNL     1       0.034   1.538   0.072  0.00  0.00    +0.011 C 
ATOM     18  C   UNL     1       0.786  -0.514   1.284  0.00  0.00    +0.011 C 
ATOM     19  C   UNL     1      -1.395  -0.511   0.067  0.00  0.00    +0.011 C 
ENDBRANCH  13  16
BRANCH   1  20
ATOM     20  C   UNL     1       6.464  -3.430  -6.738  0.00  0.00    -0.003 C 
BRANCH  20  29
ATOM     21  C   UNL     1      11.484  -0.344  -8.998  0.00  0.00    +0.109 C 
ATOM     22  C   UNL     1      10.172   0.146  -8.443  0.00  0.00    +0.212 C 
ATOM     23  O   UNL     1       9.747   1.236  -8.762  0.00  0.00    -0.276 OA
ATOM     24  N   UNL     1       9.469  -0.628  -7.591  0.00  0.00    -0.305 N 
ATOM     25  C   UNL     1       9.902  -2.000  -7.285  0.00  0.00    +0.089 C 
ATOM     26  C   UNL     1       8.713  -2.943  -7.491  0.00  0.00    -0.059 C 
ATOM     27  C   UNL     1       7.125  -1.140  -7.163  0.00  0.00    -0.059 C 
ATOM     28  C   UNL     1       8.249  -0.122  -6.944  0.00  0.00    +0.089 C 
ATOM     29  N   UNL     1       7.577  -2.461  -6.675  0.00  0.00    +0.386 N 
ATOM     30  H   UNL     1       7.884  -2.368  -5.700  0.00  0.00    -0.081 HD
ENDBRANCH  20  29
ENDBRANCH   1  20
TORSDOF 3
