REMARK  Name = ZINC00702469
REMARK  9 active torsions:
REMARK  status: ('A' for Active; 'I' for Inactive)
REMARK    1  A    between atoms: C_1  and  C_2
REMARK    2  A    between atoms: C_2  and  C_31
REMARK    3  A    between atoms: C_6  and  C_18
REMARK    4  A    between atoms: C_11  and  S_15
REMARK    5  A    between atoms: S_15  and  C_16
REMARK    6  A    between atoms: C_21  and  O_26
REMARK    7  A    between atoms: C_22  and  O_24
REMARK    8  A    between atoms: O_24  and  C_25
REMARK    9  A    between atoms: O_26  and  C_27
REMARK                            x       y       z     vdW  Elec       q    Type
REMARK                         _______ _______ _______ _____ _____    ______ ____
ROOT
ATOM      1  C   UNL     1      -5.770   0.154   2.787  0.00  0.00    +0.011 C 
ATOM      2  C   UNL     1      -5.090   1.363   3.433  0.00  0.00    -0.023 C 
ATOM      3  C   UNL     1      -5.108   2.544   2.459  0.00  0.00    +0.058 C 
ATOM      4  C   UNL     1      -4.341   2.183   1.210  0.00  0.00    +0.017 C 
ATOM      5  C   UNL     1      -3.296   1.330   1.260  0.00  0.00    +0.024 C 
ATOM      6  C   UNL     1      -2.513   0.978   0.020  0.00  0.00    +0.091 C 
ATOM      7  C   UNL     1      -3.282   1.306  -1.224  0.00  0.00    +0.044 A 
ATOM      8  C   UNL     1      -2.926   0.747  -2.449  0.00  0.00    +0.126 A 
ATOM      9  N   UNL     1      -3.635   1.064  -3.530  0.00  0.00    -0.207 NA
ATOM     10  C   UNL     1      -4.663   1.896  -3.450  0.00  0.00    +0.191 A 
ATOM     11  N   UNL     1      -5.028   2.446  -2.300  0.00  0.00    -0.206 NA
ATOM     12  C   UNL     1      -4.365   2.173  -1.180  0.00  0.00    +0.133 A 
ATOM     13  N   UNL     1      -4.740   2.741   0.026  0.00  0.00    -0.302 N 
ATOM     14  N   UNL     1      -1.852  -0.124  -2.540  0.00  0.00    -0.343 N 
ATOM     15  C   UNL     1      -2.901   0.739   2.472  0.00  0.00    +0.162 C 
ATOM     16  O   UNL     1      -1.949  -0.017   2.483  0.00  0.00    -0.292 OA
ATOM     17  C   UNL     1      -3.632   1.022   3.755  0.00  0.00    +0.086 C 
ATOM     18  C   UNL     1      -5.827   1.741   4.719  0.00  0.00    +0.011 C 
ATOM     19  H   UNL     1      -5.289   3.540   0.032  0.00  0.00    +0.153 HD
ATOM     20  H   UNL     1      -1.611  -0.509  -3.398  0.00  0.00    +0.144 HD
ATOM     21  H   UNL     1      -1.342  -0.350  -1.747  0.00  0.00    +0.144 HD
ENDROOT
BRANCH   6  22
ATOM     22  C   UNL     1      -1.219   1.751   0.017  0.00  0.00    -0.032 A 
ATOM     23  C   UNL     1      -1.241   3.133   0.030  0.00  0.00    +0.008 A 
ATOM     24  C   UNL     1      -0.057   3.846   0.022  0.00  0.00    +0.050 A 
ATOM     25  C   UNL     1       1.155   3.176   0.008  0.00  0.00    +0.162 A 
ATOM     26  C   UNL     1       1.178   1.785   0.000  0.00  0.00    +0.162 A 
ATOM     27  C   UNL     1      -0.013   1.076   0.008  0.00  0.00    +0.054 A 
BRANCH  26  28
ATOM     28  O   UNL     1       2.365   1.123  -0.015  0.00  0.00    -0.491 OA
ATOM     29  C   UNL     1       2.312  -0.305  -0.022  0.00  0.00    +0.277 C 
ENDBRANCH  26  28
BRANCH  25  30
ATOM     30  O   UNL     1       2.321   3.877  -0.000  0.00  0.00    -0.491 OA
ATOM     31  C   UNL     1       2.221   5.302   0.008  0.00  0.00    +0.277 C 
ENDBRANCH  25  30
ENDBRANCH   6  22
BRANCH  10  32
ATOM     32  S   UNL     1      -5.569   2.283  -4.910  0.00  0.00    -0.089 S 
ATOM     33  C   UNL     1      -4.658   1.289  -6.118  0.00  0.00    +0.093 C 
ENDBRANCH  10  32
TORSDOF 4
