REMARK  Name = ZINC14509220
REMARK  11 active torsions:
REMARK  status: ('A' for Active; 'I' for Inactive)
REMARK    1  A    between atoms: C_1  and  C_2
REMARK    2  A    between atoms: C_6  and  C_7
REMARK    3  A    between atoms: N_9  and  C_10
REMARK    4  A    between atoms: N_9  and  C_15
REMARK    5  A    between atoms: C_10  and  C_11
REMARK    6  A    between atoms: C_11  and  C_12
REMARK    7  A    between atoms: C_12  and  O_13
REMARK    8  A    between atoms: O_13  and  C_14
REMARK    9  A    between atoms: C_16  and  N_31
REMARK   10  A    between atoms: N_17  and  C_24
REMARK   11  A    between atoms: C_24  and  C_25
REMARK                            x       y       z     vdW  Elec       q    Type
REMARK                         _______ _______ _______ _____ _____    ______ ____
ROOT
ATOM      1  C   UNL     1      -0.189  -0.762   4.908  0.00  0.00    +0.140 A 
ATOM      2  C   UNL     1       0.691   0.117   5.506  0.00  0.00    +0.128 A 
ATOM      3  N   UNL     1       0.552   0.401   6.845  0.00  0.00    -0.276 N 
ATOM      4  C   UNL     1      -0.425  -0.180   7.566  0.00  0.00    +0.331 A 
ATOM      5  O   UNL     1      -0.528   0.081   8.749  0.00  0.00    -0.246 OA
ATOM      6  N   UNL     1      -1.288  -1.043   7.002  0.00  0.00    -0.273 N 
ATOM      7  H   UNL     1      -2.004  -1.462   7.560  0.00  0.00    +0.173 HD
ATOM      8  C   UNL     1      -1.198  -1.352   5.693  0.00  0.00    +0.277 A 
ATOM      9  O   UNL     1      -1.986  -2.136   5.192  0.00  0.00    -0.266 OA
ENDROOT
BRANCH   1  12
ATOM     10  C   UNL     1      -0.175  -0.090   2.616  0.00  0.00    +0.258 C 
ATOM     11  O   UNL     1      -0.278   1.070   2.970  0.00  0.00    -0.269 OA
ATOM     12  N   UNL     1      -0.076  -1.070   3.536  0.00  0.00    -0.260 N 
BRANCH  10  18
ATOM     13  C   UNL     1      -0.681   1.871   0.269  0.00  0.00    +0.045 C 
ATOM     14  C   UNL     1      -0.375   0.405   0.097  0.00  0.00    -0.031 A 
ATOM     15  C   UNL     1      -0.305  -0.171  -1.147  0.00  0.00    +0.011 A 
ATOM     16  C   UNL     1      -0.021  -1.496  -1.250  0.00  0.00    +0.046 A 
ATOM     17  S   UNL     1       0.147  -1.994   0.402  0.00  0.00    -0.092 S 
ATOM     18  C   UNL     1      -0.158  -0.421   1.188  0.00  0.00    +0.077 A 
ENDBRANCH  10  18
BRANCH  12  19
ATOM     19  C   UNL     1       0.150  -2.454   3.112  0.00  0.00    +0.116 C 
BRANCH  19  20
ATOM     20  C   UNL     1       1.645  -2.679   2.881  0.00  0.00    +0.047 C 
BRANCH  20  21
ATOM     21  C   UNL     1       1.880  -4.125   2.438  0.00  0.00    +0.161 C 
BRANCH  21  22
ATOM     22  O   UNL     1       3.277  -4.335   2.222  0.00  0.00    -0.383 OA
ATOM     23  C   UNL     1       3.607  -5.661   1.803  0.00  0.00    +0.193 C 
ENDBRANCH  21  22
ENDBRANCH  20  21
ENDBRANCH  19  20
ENDBRANCH  12  19
ENDBRANCH   1  12
BRANCH   2  24
ATOM     24  N   UNL     1       1.692   0.706   4.770  0.00  0.00    -0.343 N 
ATOM     25  H   UNL     1       1.753   0.543   3.816  0.00  0.00    +0.144 HD
ATOM     26  H   UNL     1       2.336   1.286   5.206  0.00  0.00    +0.144 HD
ENDBRANCH   2  24
BRANCH   3  27
ATOM     27  C   UNL     1       1.476   1.336   7.491  0.00  0.00    +0.163 C 
BRANCH  27  28
ATOM     28  C   UNL     1       2.664   0.580   8.025  0.00  0.00    -0.028 A 
ATOM     29  C   UNL     1       2.643   0.080   9.314  0.00  0.00    +0.005 A 
ATOM     30  C   UNL     1       3.732  -0.618   9.802  0.00  0.00    +0.000 A 
ATOM     31  C   UNL     1       4.846  -0.807   9.006  0.00  0.00    +0.000 A 
ATOM     32  C   UNL     1       4.869  -0.303   7.719  0.00  0.00    +0.000 A 
ATOM     33  C   UNL     1       3.778   0.391   7.228  0.00  0.00    +0.005 A 
ENDBRANCH  27  28
ENDBRANCH   3  27
TORSDOF 9
