REMARK  Name = ZINC65669579
REMARK  7 active torsions:
REMARK  status: ('A' for Active; 'I' for Inactive)
REMARK    1  A    between atoms: C_4  and  O_21
REMARK    2  A    between atoms: C_5  and  N_7
REMARK    3  A    between atoms: C_8  and  C_10
REMARK    4  A    between atoms: C_15  and  N_16
REMARK    5  A    between atoms: O_21  and  C_22
REMARK    6  A    between atoms: C_22  and  C_23
REMARK    7  A    between atoms: C_23  and  C_24
REMARK                            x       y       z     vdW  Elec       q    Type
REMARK                         _______ _______ _______ _____ _____    ______ ____
ROOT
ATOM      1  N   UNL     1       1.138  -2.065  -0.036  0.00  0.00    -0.278 N 
ATOM      2  C   UNL     1       0.225  -2.779   0.650  0.00  0.00    +0.251 C 
ATOM      3  O   UNL     1      -0.700  -2.213   1.201  0.00  0.00    -0.270 OA
ATOM      4  H   UNL     1       1.842  -2.520  -0.525  0.00  0.00    +0.155 HD
ENDROOT
BRANCH   2   5
ATOM      5  C   UNL     1       0.347  -4.249   0.734  0.00  0.00    +0.070 A 
ATOM      6  C   UNL     1       0.431  -5.012  -0.432  0.00  0.00    +0.056 A 
ATOM      7  C   UNL     1       0.545  -6.385  -0.348  0.00  0.00    +0.159 A 
ATOM      8  C   UNL     1       0.575  -7.006   0.894  0.00  0.00    +0.161 A 
ATOM      9  C   UNL     1       0.491  -6.251   2.053  0.00  0.00    +0.074 A 
ATOM     10  C   UNL     1       0.384  -4.878   1.980  0.00  0.00    +0.141 A 
ATOM     11  F   UNL     1       0.686  -8.350   0.973  0.00  0.00    -0.202 F 
ATOM     12  F   UNL     1       0.627  -7.126  -1.474  0.00  0.00    -0.202 F 
BRANCH  10  13
ATOM     13  N   UNL     1       0.300  -4.074   3.220  0.00  0.00    +0.057 N 
ATOM     14  O   UNL     1       0.211  -4.625   4.292  0.00  0.00    -0.126 OA
ATOM     15  O   UNL     1       0.322  -2.867   3.160  0.00  0.00    -0.126 OA
ENDBRANCH  10  13
ENDBRANCH   2   5
BRANCH   1  20
ATOM     16  C   UNL     1      -0.221   1.353  -0.026  0.00  0.00    +0.002 A 
ATOM     17  C   UNL     1       0.942   2.101  -0.058  0.00  0.00    +0.004 A 
ATOM     18  C   UNL     1       2.173   1.472  -0.082  0.00  0.00    +0.047 A 
ATOM     19  C   UNL     1       2.244   0.088  -0.075  0.00  0.00    +0.142 A 
ATOM     20  C   UNL     1       1.073  -0.666  -0.043  0.00  0.00    +0.076 A 
ATOM     21  C   UNL     1      -0.159  -0.027  -0.018  0.00  0.00    +0.027 A 
BRANCH  19  22
ATOM     22  O   UNL     1       3.454  -0.532  -0.100  0.00  0.00    -0.490 OA
BRANCH  22  23
ATOM     23  C   UNL     1       4.611   0.304  -0.133  0.00  0.00    +0.238 C 
BRANCH  23  24
ATOM     24  C   UNL     1       5.869  -0.566  -0.157  0.00  0.00    +0.136 C 
BRANCH  24  25
ATOM     25  C   UNL     1       7.090   0.317  -0.192  0.00  0.00    +0.214 C 
ATOM     26  O   UNL     1       6.967   1.523  -0.197  0.00  0.00    -0.276 OA
ATOM     27  N   UNL     1       8.320  -0.235  -0.218  0.00  0.00    -0.329 N 
ATOM     28  H   UNL     1       8.419  -1.200  -0.214  0.00  0.00    +0.145 HD
ATOM     29  H   UNL     1       9.106   0.333  -0.240  0.00  0.00    +0.145 HD
ENDBRANCH  24  25
ENDBRANCH  23  24
ENDBRANCH  22  23
ENDBRANCH  19  22
ENDBRANCH   1  20
TORSDOF 7
