REMARK  Name = ZINC31946464
REMARK  9 active torsions:
REMARK  status: ('A' for Active; 'I' for Inactive)
REMARK    1  A    between atoms: C_1  and  C_2
REMARK    2  A    between atoms: N_8  and  C_17
REMARK    3  A    between atoms: C_11  and  C_14
REMARK    4  A    between atoms: C_14  and  C_15
REMARK    5  A    between atoms: C_14  and  C_16
REMARK    6  A    between atoms: C_17  and  C_18
REMARK    7  A    between atoms: N_20  and  C_21
REMARK    8  A    between atoms: C_21  and  C_22
REMARK    9  A    between atoms: C_22  and  N_23
REMARK                            x       y       z     vdW  Elec       q    Type
REMARK                         _______ _______ _______ _____ _____    ______ ____
ROOT
ATOM      1  C   UNL     1      -4.095   1.337   4.909  0.00  0.00    +0.044 C 
ATOM      2  C   UNL     1      -4.407   2.045   3.615  0.00  0.00    -0.048 A 
ATOM      3  C   UNL     1      -5.236   3.151   3.618  0.00  0.00    +0.007 A 
ATOM      4  C   UNL     1      -5.527   3.806   2.435  0.00  0.00    +0.048 A 
ATOM      5  C   UNL     1      -4.986   3.353   1.244  0.00  0.00    +0.143 A 
ATOM      6  C   UNL     1      -4.154   2.233   1.242  0.00  0.00    +0.079 A 
ATOM      7  C   UNL     1      -3.863   1.585   2.430  0.00  0.00    +0.030 A 
ATOM      8  N   UNL     1      -3.608   1.789   0.029  0.00  0.00    -0.256 N 
ATOM      9  C   UNL     1      -4.141   2.234  -1.130  0.00  0.00    +0.261 C 
ATOM     10  O   UNL     1      -3.669   1.884  -2.191  0.00  0.00    -0.271 OA
ATOM     11  C   UNL     1      -5.325   3.167  -1.099  0.00  0.00    +0.262 C 
ATOM     12  O   UNL     1      -5.262   3.985   0.072  0.00  0.00    -0.477 OA
ENDROOT
BRANCH  11  13
ATOM     13  C   UNL     1      -6.618   2.350  -1.081  0.00  0.00    +0.033 C 
ATOM     14  C   UNL     1      -7.819   3.296  -1.050  0.00  0.00    +0.011 C 
ATOM     15  C   UNL     1      -6.688   1.478  -2.336  0.00  0.00    +0.011 C 
ENDBRANCH  11  13
BRANCH   8  16
ATOM     16  C   UNL     1      -2.482   0.853   0.018  0.00  0.00    +0.209 C 
BRANCH  16  17
ATOM     17  C   UNL     1      -1.187   1.624   0.017  0.00  0.00    +0.231 C 
ATOM     18  O   UNL     1      -1.204   2.837   0.023  0.00  0.00    -0.274 OA
ATOM     19  N   UNL     1      -0.011   0.966   0.007  0.00  0.00    -0.316 N 
ATOM     20  H   UNL     1       0.004  -0.134   0.006  0.00  0.00    +0.149 HD
BRANCH  19  21
ATOM     21  C   UNL     1       1.248   1.716  -0.001  0.00  0.00    +0.085 C 
BRANCH  21  22
ATOM     22  C   UNL     1       2.424   0.737  -0.017  0.00  0.00    -0.067 C 
BRANCH  22  23
ATOM     23  N   UNL     1       3.686   1.489  -0.025  0.00  0.00    +0.379 N 
ATOM     24  H   UNL     1       4.532   0.786  -0.037  0.00  0.00    -0.090 HD
ATOM     25  H   UNL     1       3.744   2.117   0.876  0.00  0.00    -0.090 HD
ATOM     26  H   UNL     1       3.727   2.127  -0.920  0.00  0.00    -0.090 HD
ENDBRANCH  22  23
ENDBRANCH  21  22
ENDBRANCH  19  21
ENDBRANCH  16  17
ENDBRANCH   8  16
TORSDOF 6
