REMARK  Name = ZINC14457357
REMARK  8 active torsions:
REMARK  status: ('A' for Active; 'I' for Inactive)
REMARK    1  A    between atoms: C_1  and  C_2
REMARK    2  A    between atoms: C_2  and  C_3
REMARK    3  A    between atoms: C_2  and  O_4
REMARK    4  A    between atoms: O_4  and  C_5
REMARK    5  A    between atoms: C_18  and  C_21
REMARK    6  A    between atoms: C_24  and  O_28
REMARK    7  A    between atoms: C_25  and  O_27
REMARK    8  A    between atoms: O_28  and  C_29
REMARK                            x       y       z     vdW  Elec       q    Type
REMARK                         _______ _______ _______ _____ _____    ______ ____
ROOT
ATOM      1  C   UNL     1      -1.949  -0.348   3.689  0.00  0.00    +0.121 A 
ATOM      2  C   UNL     1      -3.032  -0.715   2.905  0.00  0.00    +0.047 A 
ATOM      3  C   UNL     1      -2.999  -0.514   1.540  0.00  0.00    +0.027 A 
ATOM      4  C   UNL     1      -1.882   0.056   0.941  0.00  0.00    +0.032 A 
ATOM      5  C   UNL     1      -0.797   0.436   1.738  0.00  0.00    -0.016 A 
ATOM      6  C   UNL     1      -0.833   0.228   3.100  0.00  0.00    +0.051 A 
ATOM      7  C   UNL     1       0.362   1.059   1.061  0.00  0.00    +0.049 C 
ATOM      8  C   UNL     1       1.732   0.989   1.630  0.00  0.00    -0.023 C 
ATOM      9  C   UNL     1       2.606   0.980   0.630  0.00  0.00    -0.030 C 
ATOM     10  C   UNL     1       1.869   1.010  -0.710  0.00  0.00    +0.033 C 
ATOM     11  C   UNL     1       0.520   0.383  -0.334  0.00  0.00    +0.029 C 
ATOM     12  C   UNL     1      -0.690   0.801  -1.151  0.00  0.00    +0.105 C 
ATOM     13  N   UNL     1      -1.860   0.216  -0.453  0.00  0.00    -0.336 N 
ATOM     14  H   UNL     1      -2.622  -0.073  -0.978  0.00  0.00    +0.147 HD
ENDROOT
BRANCH  12  15
ATOM     15  C   UNL     1      -0.827   2.302  -1.148  0.00  0.00    -0.023 A 
ATOM     16  C   UNL     1      -1.586   2.923  -0.173  0.00  0.00    +0.009 A 
ATOM     17  C   UNL     1      -1.710   4.300  -0.163  0.00  0.00    +0.050 A 
ATOM     18  C   UNL     1      -1.083   5.060  -1.137  0.00  0.00    +0.161 A 
ATOM     19  C   UNL     1      -0.323   4.434  -2.121  0.00  0.00    +0.159 A 
ATOM     20  C   UNL     1      -0.198   3.054  -2.123  0.00  0.00    +0.054 A 
BRANCH  19  21
ATOM     21  O   UNL     1       0.295   5.175  -3.079  0.00  0.00    -0.503 OA
ATOM     22  H   UNL     1      -0.243   5.325  -3.868  0.00  0.00    +0.292 HD
ENDBRANCH  19  21
BRANCH  18  23
ATOM     23  O   UNL     1      -1.209   6.414  -1.131  0.00  0.00    -0.491 OA
ATOM     24  C   UNL     1      -2.003   6.987  -0.091  0.00  0.00    +0.277 C 
ENDBRANCH  18  23
ENDBRANCH  12  15
BRANCH   1  25
ATOM     25  O   UNL     1      -1.980  -0.552   5.034  0.00  0.00    -0.489 OA
BRANCH  25  27
ATOM     26  C   UNL     1      -3.243  -2.565   5.473  0.00  0.00    +0.051 C 
ATOM     27  C   UNL     1      -3.204  -1.040   5.587  0.00  0.00    +0.167 C 
ATOM     28  C   UNL     1      -3.293  -0.637   7.060  0.00  0.00    +0.051 C 
ENDBRANCH  25  27
ENDBRANCH   1  25
TORSDOF 5
