REMARK  Name = ZINC58380976
REMARK  7 active torsions:
REMARK  status: ('A' for Active; 'I' for Inactive)
REMARK    1  A    between atoms: C_1  and  C_2
REMARK    2  A    between atoms: C_2  and  C_3
REMARK    3  A    between atoms: C_9  and  C_11
REMARK    4  A    between atoms: C_15  and  N_17
REMARK    5  A    between atoms: C_18  and  C_20
REMARK    6  A    between atoms: C_23  and  N_29
REMARK    7  A    between atoms: C_24  and  N_26
REMARK                            x       y       z     vdW  Elec       q    Type
REMARK                         _______ _______ _______ _____ _____    ______ ____
ROOT
ATOM      1  C   UNL     1      -3.393  -2.737   2.942  0.00  0.00    +0.019 A 
ATOM      2  C   UNL     1      -4.756  -3.041   2.923  0.00  0.00    +0.011 A 
ATOM      3  C   UNL     1      -5.549  -2.723   4.006  0.00  0.00    +0.002 A 
ATOM      4  C   UNL     1      -4.999  -2.105   5.114  0.00  0.00    +0.023 A 
ATOM      5  C   UNL     1      -3.644  -1.799   5.143  0.00  0.00    +0.034 A 
ATOM      6  C   UNL     1      -2.837  -2.119   4.062  0.00  0.00    +0.034 A 
ENDROOT
BRANCH   1  13
ATOM      7  C   UNL     1      -0.454  -3.076   0.795  0.00  0.00    +0.048 A 
ATOM      8  C   UNL     1      -0.955  -3.680  -0.320  0.00  0.00    +0.093 A 
ATOM      9  C   UNL     1      -2.328  -3.992  -0.367  0.00  0.00    +0.252 A 
ATOM     10  O   UNL     1      -2.810  -4.533  -1.348  0.00  0.00    -0.268 OA
ATOM     11  N   UNL     1      -3.100  -3.680   0.696  0.00  0.00    -0.307 N 
ATOM     12  H   UNL     1      -4.048  -3.885   0.686  0.00  0.00    +0.170 HD
ATOM     13  C   UNL     1      -2.542  -3.076   1.783  0.00  0.00    +0.141 A 
ATOM     14  N   UNL     1      -1.256  -2.793   1.820  0.00  0.00    -0.234 NA
BRANCH   7  16
ATOM     15  C   UNL     1       1.218  -1.278   0.442  0.00  0.00    +0.010 C 
ATOM     16  C   UNL     1       1.011  -2.732   0.871  0.00  0.00    +0.052 C 
ENDBRANCH   7  16
ENDBRANCH   1  13
BRANCH   5  17
ATOM     17  N   UNL     1      -3.092  -1.174   6.266  0.00  0.00    -0.281 N 
ATOM     18  C   UNL     1      -2.074  -0.302   6.121  0.00  0.00    +0.248 C 
ATOM     19  O   UNL     1      -1.699   0.013   5.008  0.00  0.00    -0.270 OA
ATOM     20  H   UNL     1      -3.442  -1.367   7.150  0.00  0.00    +0.155 HD
BRANCH  18  21
ATOM     21  C   UNL     1      -1.417   0.269   7.311  0.00  0.00    +0.039 A 
ATOM     22  C   UNL     1      -1.844  -0.097   8.591  0.00  0.00    +0.015 A 
ATOM     23  C   UNL     1      -1.228   0.438   9.699  0.00  0.00    +0.026 A 
ATOM     24  C   UNL     1      -0.181   1.343   9.547  0.00  0.00    +0.055 A 
ATOM     25  C   UNL     1       0.246   1.710   8.274  0.00  0.00    +0.147 A 
ATOM     26  C   UNL     1      -0.361   1.173   7.161  0.00  0.00    +0.047 A 
BRANCH  25  27
ATOM     27  N   UNL     1       1.360   2.672   8.116  0.00  0.00    +0.058 N 
ATOM     28  O   UNL     1       1.334   3.485   7.221  0.00  0.00    -0.126 OA
ATOM     29  O   UNL     1       2.294   2.646   8.883  0.00  0.00    -0.126 OA
ENDBRANCH  25  27
BRANCH  24  30
ATOM     30  N   UNL     1       0.438   1.883  10.669  0.00  0.00    -0.356 N 
ATOM     31  H   UNL     1       0.214   1.552  11.553  0.00  0.00    +0.142 HD
ATOM     32  H   UNL     1       1.095   2.590  10.567  0.00  0.00    +0.142 HD
ENDBRANCH  24  30
ENDBRANCH  18  21
ENDBRANCH   5  17
TORSDOF 6
