REMARK  Name = ZINC00622182
REMARK  5 active torsions:
REMARK  status: ('A' for Active; 'I' for Inactive)
REMARK    1  A    between atoms: N_9  and  C1*_10
REMARK    2  A    between atoms: C2*_12  and  O2*_22
REMARK    3  A    between atoms: C3*_14  and  O3*_21
REMARK    4  A    between atoms: C4*_16  and  C5*_19
REMARK    5  A    between atoms: C5*_19  and  O5*_20
REMARK                            x       y       z     vdW  Elec       q    Type
REMARK                         _______ _______ _______ _____ _____    ______ ____
ROOT
ATOM      1  C1* UNL     1       0.538   2.428   1.964  0.00  0.00    +0.255 C 
ATOM      2  C2* UNL     1      -0.611   1.612   1.332  0.00  0.00    +0.195 C 
ATOM      3  C3* UNL     1      -0.013   1.086   0.008  0.00  0.00    +0.178 C 
ATOM      4  C4* UNL     1       1.427   1.647  -0.003  0.00  0.00    +0.177 C 
ATOM      5  O4* UNL     1       1.742   1.879   1.387  0.00  0.00    -0.346 OA
ENDROOT
BRANCH   1  14
ATOM      6  C   UNL     1      -0.521   2.692   4.159  0.00  0.00    +0.113 A 
ATOM      7  C   UNL     1      -0.515   2.531   5.500  0.00  0.00    +0.094 A 
ATOM      8  C   UNL     1       0.606   1.923   6.116  0.00  0.00    +0.267 A 
ATOM      9  O   UNL     1       0.637   1.772   7.324  0.00  0.00    -0.267 OA
ATOM     10  N   UNL     1       1.640   1.515   5.352  0.00  0.00    -0.274 N 
ATOM     11  H   UNL     1       2.435   1.085   5.780  0.00  0.00    +0.173 HD
ATOM     12  C   UNL     1       1.605   1.683   4.017  0.00  0.00    +0.331 A 
ATOM     13  O   UNL     1       2.545   1.310   3.342  0.00  0.00    -0.246 OA
ATOM     14  N   UNL     1       0.546   2.259   3.420  0.00  0.00    -0.270 N 
ATOM     15  I   UNL     1      -2.139   3.178   6.654  0.00  0.00    -0.037 I 
ENDBRANCH   1  14
BRANCH   3  16
ATOM     16  O3* UNL     1      -0.752   1.581  -1.110  0.00  0.00    -0.386 OA
ATOM     17  H3* UNL     1      -0.400   1.306  -1.968  0.00  0.00    +0.210 HD
ENDBRANCH   3  16
BRANCH   2  18
ATOM     18  O2* UNL     1      -0.979   0.524   2.182  0.00  0.00    -0.385 OA
ATOM     19  H2* UNL     1      -1.655  -0.057   1.807  0.00  0.00    +0.210 HD
ENDBRANCH   2  18
BRANCH   4  20
ATOM     20  C5* UNL     1       2.392   0.625  -0.607  0.00  0.00    +0.190 C 
BRANCH  20  21
ATOM     21  O5* UNL     1       3.693   1.205  -0.715  0.00  0.00    -0.392 OA
ATOM     22  H5* UNL     1       4.358   0.612  -1.091  0.00  0.00    +0.210 HD
ENDBRANCH  20  21
ENDBRANCH   4  20
TORSDOF 5
