REMARK  Name = ZINC53500788
REMARK  9 active torsions:
REMARK  status: ('A' for Active; 'I' for Inactive)
REMARK    1  A    between atoms: C_1  and  C_2
REMARK    2  A    between atoms: C_2  and  C_3
REMARK    3  A    between atoms: C_2  and  C_4
REMARK    4  A    between atoms: C_2  and  N_23
REMARK    5  A    between atoms: N_6  and  C_7
REMARK    6  A    between atoms: C_7  and  C_8
REMARK    7  A    between atoms: C_8  and  C_10
REMARK    8  A    between atoms: C_8  and  N_18
REMARK    9  A    between atoms: N_26  and  C_27
REMARK                            x       y       z     vdW  Elec       q    Type
REMARK                         _______ _______ _______ _____ _____    ______ ____
ROOT
ATOM      1  C   UNL     1      -3.620  -1.370  -1.070  0.00  0.00    +0.093 C 
ENDROOT
BRANCH   1   4
ATOM      2  C   UNL     1      -4.215  -0.322   1.048  0.00  0.00    +0.236 C 
ATOM      3  O   UNL     1      -3.457  -1.087   1.606  0.00  0.00    -0.273 OA
ATOM      4  N   UNL     1      -4.369  -0.382  -0.290  0.00  0.00    -0.315 N 
ATOM      5  H   UNL     1      -4.975   0.230  -0.736  0.00  0.00    +0.149 HD
BRANCH   2   7
ATOM      6  C   UNL     1      -6.372   0.140   2.182  0.00  0.00    +0.041 C 
ATOM      7  C   UNL     1      -4.985   0.695   1.851  0.00  0.00    +0.106 C 
ATOM      8  C   UNL     1      -4.233   0.996   3.148  0.00  0.00    +0.041 C 
BRANCH   7   9
ATOM      9  N   UNL     1      -5.126   1.927   1.071  0.00  0.00    -0.286 N 
ATOM     10  C   UNL     1      -5.784   2.982   1.591  0.00  0.00    +0.300 C 
ATOM     11  O   UNL     1      -6.260   2.912   2.708  0.00  0.00    -0.253 OA
ATOM     12  N   UNL     1      -5.913   4.116   0.874  0.00  0.00    -0.302 N 
ATOM     13  C   UNL     1      -6.628   5.263   1.439  0.00  0.00    +0.129 C 
ATOM     14  H   UNL     1      -4.746   1.984   0.180  0.00  0.00    +0.151 HD
ATOM     15  H   UNL     1      -5.533   4.172  -0.017  0.00  0.00    +0.150 HD
ENDBRANCH   7   9
ENDBRANCH   2   7
ENDBRANCH   1   4
BRANCH   1  16
ATOM     16  C   UNL     1      -4.070  -1.314  -2.531  0.00  0.00    -0.016 C 
BRANCH  16  17
ATOM     17  C   UNL     1      -5.507  -1.756  -2.631  0.00  0.00    -0.006 A 
ATOM     18  C   UNL     1      -5.829  -3.098  -2.515  0.00  0.00    +0.126 A 
ATOM     19  C   UNL     1      -7.149  -3.503  -2.607  0.00  0.00    +0.038 A 
ATOM     20  C   UNL     1      -8.146  -2.569  -2.816  0.00  0.00    +0.004 A 
ATOM     21  C   UNL     1      -7.825  -1.230  -2.933  0.00  0.00    +0.020 A 
ATOM     22  C   UNL     1      -6.507  -0.822  -2.835  0.00  0.00    +0.045 A 
ATOM     23 CL   UNL     1      -6.106   0.861  -2.975  0.00  0.00    -0.083 Cl
ATOM     24  F   UNL     1      -4.854  -4.011  -2.311  0.00  0.00    -0.205 F 
ENDBRANCH  16  17
BRANCH  16  25
ATOM     25  N   UNL     1      -3.226  -2.204  -3.338  0.00  0.00    +0.385 N 
ATOM     26  C   UNL     1      -3.680  -2.197  -4.753  0.00  0.00    -0.078 C 
ATOM     27  C   UNL     1      -2.428  -2.678  -5.529  0.00  0.00    -0.020 C 
ATOM     28  C   UNL     1      -1.266  -2.010  -4.758  0.00  0.00    -0.020 C 
ATOM     29  C   UNL     1      -1.833  -1.706  -3.359  0.00  0.00    -0.078 C 
ATOM     30  H   UNL     1      -3.255  -3.142  -2.967  0.00  0.00    -0.081 HD
ENDBRANCH  16  25
ENDBRANCH   1  16
TORSDOF 6
