REMARK  Name = ZINC12146649
REMARK  7 active torsions:
REMARK  status: ('A' for Active; 'I' for Inactive)
REMARK    1  A    between atoms: C_1  and  C_2
REMARK    2  A    between atoms: C_11  and  C_13
REMARK    3  A    between atoms: C_13  and  C_15
REMARK    4  A    between atoms: C_13  and  O_29
REMARK    5  A    between atoms: C_15  and  N_56
REMARK    6  A    between atoms: C_18  and  C_21
REMARK    7  A    between atoms: C_18  and  O_28
REMARK                            x       y       z     vdW  Elec       q    Type
REMARK                         _______ _______ _______ _____ _____    ______ ____
ROOT
ATOM      1  C   UNL     1      -2.199   5.244   1.473  0.00  0.00    -0.042 C 
ENDROOT
BRANCH   1   7
ATOM      2  C   UNL     1      -3.281   7.035   2.690  0.00  0.00    -0.076 C 
ATOM      3  C   UNL     1      -4.376   8.101   2.603  0.00  0.00    +0.021 C 
ATOM      4  C   UNL     1      -5.740   7.417   2.483  0.00  0.00    +0.088 C 
ATOM      5  C   UNL     1      -5.740   6.507   1.252  0.00  0.00    +0.021 C 
ATOM      6  C   UNL     1      -4.606   5.487   1.378  0.00  0.00    -0.076 C 
ATOM      7  N   UNL     1      -3.318   6.208   1.465  0.00  0.00    +0.382 N 
ATOM      8  H   UNL     1      -3.225   6.822   0.646  0.00  0.00    -0.082 HD
BRANCH   4   9
ATOM      9  C   UNL     1      -6.817   8.461   2.338  0.00  0.00    -0.016 A 
ATOM     10  C   UNL     1      -7.179   8.909   1.081  0.00  0.00    +0.009 A 
ATOM     11  C   UNL     1      -8.171   9.863   0.946  0.00  0.00    +0.039 A 
ATOM     12  C   UNL     1      -8.794  10.377   2.071  0.00  0.00    +0.123 A 
ATOM     13  C   UNL     1      -8.427   9.931   3.329  0.00  0.00    +0.039 A 
ATOM     14  C   UNL     1      -7.439   8.973   3.461  0.00  0.00    +0.009 A 
ATOM     15  F   UNL     1      -9.760  11.312   1.940  0.00  0.00    -0.205 F 
ENDBRANCH   4   9
BRANCH   4  16
ATOM     16  O   UNL     1      -5.987   6.636   3.654  0.00  0.00    -0.384 OA
ATOM     17  H   UNL     1      -6.002   7.149   4.473  0.00  0.00    +0.211 HD
ENDBRANCH   4  16
ENDBRANCH   1   7
BRANCH   1  18
ATOM     18  C   UNL     1      -1.971   4.749   0.043  0.00  0.00    +0.128 C 
BRANCH  18  29
ATOM     19  C   UNL     1       4.404  -0.206  -0.026  0.00  0.00    +0.109 C 
ATOM     20  C   UNL     1       3.529   1.021  -0.007  0.00  0.00    +0.217 C 
ATOM     21  O   UNL     1       4.032   2.124   0.014  0.00  0.00    -0.276 OA
ATOM     22  N   UNL     1       2.187   0.892  -0.014  0.00  0.00    -0.271 N 
ATOM     23  C   UNL     1       1.466  -0.383  -0.040  0.00  0.00    +0.118 C 
ATOM     24  C   UNL     1      -0.024  -0.004  -0.037  0.00  0.00    +0.056 C 
ATOM     25  C   UNL     1      -0.032   1.508  -0.010  0.00  0.00    -0.024 A 
ATOM     26  C   UNL     1       1.280   1.956   0.002  0.00  0.00    +0.039 A 
ATOM     27  C   UNL     1       1.527   3.329   0.028  0.00  0.00    +0.024 A 
ATOM     28  C   UNL     1       0.478   4.224   0.041  0.00  0.00    +0.008 A 
ATOM     29  C   UNL     1      -0.827   3.768   0.029  0.00  0.00    -0.021 A 
ATOM     30  C   UNL     1      -1.079   2.408   0.008  0.00  0.00    +0.011 A 
ENDBRANCH  18  29
BRANCH  18  31
ATOM     31  O   UNL     1      -1.658   5.858  -0.801  0.00  0.00    -0.389 OA
ATOM     32  H   UNL     1      -0.864   6.342  -0.537  0.00  0.00    +0.210 HD
ENDBRANCH  18  31
ENDBRANCH   1  18
TORSDOF 6
