REMARK  Name = ZINC08741463
REMARK  5 active torsions:
REMARK  status: ('A' for Active; 'I' for Inactive)
REMARK    1  A    between atoms: C_1  and  C_2
REMARK    2  A    between atoms: N_10  and  C_11
REMARK    3  A    between atoms: C_11  and  C_13
REMARK    4  A    between atoms: C_13  and  N_48
REMARK    5  A    between atoms: N_16  and  C_19
REMARK                            x       y       z     vdW  Elec       q    Type
REMARK                         _______ _______ _______ _____ _____    ______ ____
ROOT
ATOM      1  C   UNL     1      -0.005   1.095   0.008  0.00  0.00    +0.021 C 
ENDROOT
BRANCH   1   7
ATOM      2  C   UNL     1      -2.046   0.984  -1.290  0.00  0.00    -0.059 C 
ATOM      3  C   UNL     1      -2.777   1.581  -2.495  0.00  0.00    +0.086 C 
ATOM      4  N   UNL     1      -1.992   1.335  -3.712  0.00  0.00    -0.333 N 
ATOM      5  C   UNL     1      -0.656   1.938  -3.605  0.00  0.00    +0.086 C 
ATOM      6  C   UNL     1       0.075   1.341  -2.400  0.00  0.00    -0.059 C 
ATOM      7  N   UNL     1      -0.714   1.615  -1.180  0.00  0.00    +0.387 N 
ATOM      8  H   UNL     1      -0.833   2.630  -1.080  0.00  0.00    -0.081 HD
BRANCH   4   9
ATOM      9  C   UNL     1      -2.663   1.804  -4.846  0.00  0.00    +0.030 A 
ATOM     10  C   UNL     1      -2.051   2.725  -5.686  0.00  0.00    +0.026 A 
ATOM     11  C   UNL     1      -2.714   3.183  -6.807  0.00  0.00    +0.040 A 
ATOM     12  C   UNL     1      -3.993   2.733  -7.088  0.00  0.00    +0.124 A 
ATOM     13  C   UNL     1      -4.608   1.819  -6.249  0.00  0.00    +0.040 A 
ATOM     14  C   UNL     1      -3.946   1.354  -5.129  0.00  0.00    +0.026 A 
ATOM     15  F   UNL     1      -4.642   3.186  -8.183  0.00  0.00    -0.205 F 
ENDBRANCH   4   9
ENDBRANCH   1   7
BRANCH   1  16
ATOM     16  C   UNL     1      -0.714   1.577   1.248  0.00  0.00    +0.222 C 
ATOM     17  O   UNL     1      -1.711   2.266   1.149  0.00  0.00    -0.276 OA
BRANCH  16  27
ATOM     18  C   UNL     1      -3.320   4.090   8.928  0.00  0.00    +0.044 C 
ATOM     19  C   UNL     1      -2.979   3.699   7.513  0.00  0.00    -0.049 A 
ATOM     20  C   UNL     1      -3.765   4.133   6.458  0.00  0.00    +0.005 A 
ATOM     21  C   UNL     1      -3.470   3.788   5.161  0.00  0.00    +0.027 A 
ATOM     22  C   UNL     1      -2.359   2.981   4.868  0.00  0.00    +0.055 A 
ATOM     23  C   UNL     1      -1.582   2.557   5.956  0.00  0.00    +0.039 A 
ATOM     24  C   UNL     1      -1.878   2.904   7.253  0.00  0.00    +0.020 A 
ATOM     25  S   UNL     1      -0.307   1.587   5.192  0.00  0.00    -0.052 S 
ATOM     26  C   UNL     1      -0.811   1.760   3.542  0.00  0.00    +0.164 A 
ATOM     27  N   UNL     1      -0.248   1.250   2.449  0.00  0.00    -0.158 NA
ATOM     28  N   UNL     1      -1.916   2.547   3.633  0.00  0.00    -0.335 N 
ATOM     29  H   UNL     1      -2.396   2.802   2.829  0.00  0.00    +0.168 HD
ENDBRANCH  16  27
ENDBRANCH   1  16
TORSDOF 4
