REMARK  Name = ZINC37116821
REMARK  6 active torsions:
REMARK  status: ('A' for Active; 'I' for Inactive)
REMARK    1  A    between atoms: C_4  and  N_7
REMARK    2  A    between atoms: N_7  and  S_8
REMARK    3  A    between atoms: S_8  and  C_11
REMARK    4  A    between atoms: C_13  and  N_19
REMARK    5  A    between atoms: C_16  and  N_17
REMARK    6  A    between atoms: N_17  and  N_18
REMARK                            x       y       z     vdW  Elec       q    Type
REMARK                         _______ _______ _______ _____ _____    ______ ____
ROOT
ATOM      1  C   UNL     1       5.187  -2.820  -0.063  0.00  0.00    +0.135 A 
ATOM      2  C   UNL     1       5.708  -3.518   1.010  0.00  0.00    +0.063 A 
ATOM      3  C   UNL     1       7.029  -3.925   0.996  0.00  0.00    +0.128 A 
ATOM      4  C   UNL     1       7.834  -3.637  -0.091  0.00  0.00    +0.034 A 
ATOM      5  C   UNL     1       7.320  -2.940  -1.167  0.00  0.00    +0.028 A 
ATOM      6  C   UNL     1       5.991  -2.534  -1.159  0.00  0.00    +0.068 A 
ENDROOT
BRANCH   1   7
ATOM      7  S   UNL     1       3.504  -2.301  -0.044  0.00  0.00    +0.096 S 
ATOM      8  O   UNL     1       2.965  -2.714   1.205  0.00  0.00    -0.148 OA
ATOM      9  O   UNL     1       2.942  -2.701  -1.286  0.00  0.00    -0.148 OA
BRANCH   7  10
ATOM     10  N   UNL     1       3.502  -0.645  -0.035  0.00  0.00    -0.058 NA
BRANCH  10  14
ATOM     11  C   UNL     1      -0.017   1.382   0.010  0.00  0.00    +0.039 A 
ATOM     12  C   UNL     1       1.192   2.061   0.002  0.00  0.00    +0.116 A 
ATOM     13  N   UNL     1       2.320   1.371  -0.013  0.00  0.00    -0.220 NA
ATOM     14  C   UNL     1       2.303   0.046  -0.020  0.00  0.00    +0.257 A 
ATOM     15  N   UNL     1       1.165  -0.633  -0.013  0.00  0.00    -0.220 NA
ATOM     16  C   UNL     1       0.002  -0.004   0.002  0.00  0.00    +0.116 A 
ENDBRANCH  10  14
ENDBRANCH   7  10
ENDBRANCH   1   7
BRANCH   3  17
ATOM     17  N   UNL     1       7.583  -4.672   2.147  0.00  0.00    +0.056 N 
ATOM     18  O   UNL     1       6.881  -4.925   3.099  0.00  0.00    -0.126 OA
ATOM     19  O   UNL     1       8.738  -5.029   2.136  0.00  0.00    -0.126 OA
ENDBRANCH   3  17
BRANCH   6  20
ATOM     20  N   UNL     1       5.466  -1.834  -2.247  0.00  0.00    -0.281 N 
ATOM     21  H   UNL     1       4.540  -1.547  -2.239  0.00  0.00    +0.166 HD
BRANCH  20  22
ATOM     22  N   UNL     1       6.258  -1.553  -3.324  0.00  0.00    -0.256 NA
ATOM     23  H   UNL     1       5.744  -1.045  -4.029  0.00  0.00    +0.140 HD
ATOM     24  H   UNL     1       7.084  -1.045  -3.044  0.00  0.00    +0.140 HD
ENDBRANCH  20  22
ENDBRANCH   6  20
TORSDOF 6
