REMARK  Name = ZINC39595196
REMARK  8 active torsions:
REMARK  status: ('A' for Active; 'I' for Inactive)
REMARK    1  A    between atoms: C_1  and  C_2
REMARK    2  A    between atoms: C_2  and  C_4
REMARK    3  A    between atoms: C_2  and  O_11
REMARK    4  A    between atoms: N_9  and  C_10
REMARK    5  A    between atoms: O_11  and  C_12
REMARK    6  A    between atoms: C_12  and  C_14
REMARK    7  A    between atoms: C_18  and  S_20
REMARK    8  A    between atoms: S_20  and  N_23
REMARK                            x       y       z     vdW  Elec       q    Type
REMARK                         _______ _______ _______ _____ _____    ______ ____
ROOT
ATOM      1  C   UNL     1       2.758  -1.127  -2.270  0.00  0.00    +0.061 A 
ATOM      2  C   UNL     1       2.101  -1.380  -3.475  0.00  0.00    +0.015 A 
ATOM      3  C   UNL     1       2.816  -1.824  -4.568  0.00  0.00    +0.003 A 
ATOM      4  C   UNL     1       4.183  -2.019  -4.471  0.00  0.00    +0.029 A 
ATOM      5  C   UNL     1       4.841  -1.771  -3.279  0.00  0.00    +0.109 A 
ATOM      6  C   UNL     1       4.138  -1.321  -2.180  0.00  0.00    +0.043 A 
ENDROOT
BRANCH   5   7
ATOM      7  S   UNL     1       6.581  -2.024  -3.166  0.00  0.00    +0.075 S 
ATOM      8  O   UNL     1       6.871  -2.243  -1.792  0.00  0.00    -0.150 OA
ATOM      9  O   UNL     1       6.921  -2.964  -4.176  0.00  0.00    -0.150 OA
BRANCH   7  10
ATOM     10  N   UNL     1       7.311  -0.597  -3.582  0.00  0.00    -0.203 N 
ATOM     11  C   UNL     1       7.756  -0.361  -4.963  0.00  0.00    +0.132 C 
ATOM     12  C   UNL     1       9.161   0.252  -4.903  0.00  0.00    +0.025 C 
ATOM     13  C   UNL     1       9.079   1.606  -4.199  0.00  0.00    +0.038 C 
ATOM     14  C   UNL     1       8.356   1.474  -2.884  0.00  0.00    -0.025 A 
ATOM     15  C   UNL     1       7.508   0.406  -2.627  0.00  0.00    +0.054 A 
ATOM     16  C   UNL     1       6.847   0.318  -1.407  0.00  0.00    +0.025 A 
ATOM     17  C   UNL     1       7.031   1.296  -0.450  0.00  0.00    +0.002 A 
ATOM     18  C   UNL     1       7.873   2.362  -0.706  0.00  0.00    +0.000 A 
ATOM     19  C   UNL     1       8.541   2.447  -1.917  0.00  0.00    +0.005 A 
ENDBRANCH   7  10
ENDBRANCH   5   7
BRANCH   1  20
ATOM     20  C   UNL     1       1.998  -0.652  -1.096  0.00  0.00    +0.340 C 
ATOM     21  O   UNL     1       2.574  -0.428  -0.050  0.00  0.00    -0.245 OA
BRANCH  20  22
ATOM     22  O   UNL     1       0.667  -0.466  -1.185  0.00  0.00    -0.449 OA
BRANCH  22  24
ATOM     23  C   UNL     1      -0.026   1.525  -0.004  0.00  0.00    +0.062 C 
ATOM     24  C   UNL     1      -0.004  -0.005  -0.011  0.00  0.00    +0.259 C 
BRANCH  24  25
ATOM     25  C   UNL     1      -1.418  -0.527  -0.002  0.00  0.00    +0.261 C 
ATOM     26  O   UNL     1      -1.840  -1.149  -0.953  0.00  0.00    -0.271 OA
ATOM     27  N   UNL     1      -2.213  -0.302   1.063  0.00  0.00    -0.237 N 
ATOM     28  C   UNL     1      -3.477  -0.770   1.071  0.00  0.00    +0.306 C 
ATOM     29  O   UNL     1      -3.900  -1.393   0.117  0.00  0.00    -0.252 OA
ATOM     30  N   UNL     1      -4.272  -0.545   2.136  0.00  0.00    -0.302 N 
ATOM     31  C   UNL     1      -5.646  -1.053   2.144  0.00  0.00    +0.129 C 
ATOM     32  H   UNL     1      -1.875   0.195   1.824  0.00  0.00    +0.159 HD
ATOM     33  H   UNL     1      -3.934  -0.048   2.897  0.00  0.00    +0.150 HD
ENDBRANCH  24  25
ENDBRANCH  22  24
ENDBRANCH  20  22
ENDBRANCH   1  20
TORSDOF 6
