REMARK  Name = ZINC12218688
REMARK  6 active torsions:
REMARK  status: ('A' for Active; 'I' for Inactive)
REMARK    1  A    between atoms: C_1  and  C_2
REMARK    2  A    between atoms: C_5  and  C_11
REMARK    3  A    between atoms: N_13  and  C_14
REMARK    4  A    between atoms: C_14  and  C_15
REMARK    5  A    between atoms: C_23  and  N_25
REMARK    6  A    between atoms: N_25  and  C_26
REMARK                            x       y       z     vdW  Elec       q    Type
REMARK                         _______ _______ _______ _____ _____    ______ ____
ROOT
ATOM      1  C   UNL     1       3.053  -0.865   1.945  0.00  0.00    +0.149 A 
ATOM      2  N   UNL     1       4.301  -0.463   1.981  0.00  0.00    -0.230 NA
ATOM      3  C   UNL     1       4.671   0.665   1.356  0.00  0.00    +0.076 A 
ATOM      4  C   UNL     1       5.995   1.124   1.375  0.00  0.00    +0.030 A 
ATOM      5  C   UNL     1       6.317   2.277   0.724  0.00  0.00    +0.022 A 
ATOM      6  C   UNL     1       5.349   3.009   0.039  0.00  0.00    +0.042 A 
ATOM      7  C   UNL     1       4.051   2.591   0.002  0.00  0.00    +0.033 A 
ATOM      8  C   UNL     1       3.688   1.410   0.660  0.00  0.00    +0.042 A 
ATOM      9  C   UNL     1       2.358   0.925   0.657  0.00  0.00    +0.130 A 
ATOM     10  N   UNL     1       2.100  -0.200   1.312  0.00  0.00    -0.215 NA
ATOM     11 CL   UNL     1       5.801   4.474  -0.777  0.00  0.00    -0.084 Cl
ENDROOT
BRANCH   9  12
ATOM     12  N   UNL     1       1.357   1.606  -0.002  0.00  0.00    -0.326 N 
ATOM     13  H   UNL     1       1.559   2.429  -0.473  0.00  0.00    +0.148 HD
BRANCH  12  14
ATOM     14  C   UNL     1      -0.013   1.086   0.008  0.00  0.00    +0.072 C 
ATOM     15  C   UNL     1      -0.763   1.597   1.255  0.00  0.00    +0.022 C 
ATOM     16  C   UNL     1      -1.531   2.845   0.750  0.00  0.00    +0.002 C 
ATOM     17  C   UNL     1      -1.978   2.421  -0.670  0.00  0.00    +0.002 C 
ATOM     18  C   UNL     1      -0.784   1.609  -1.216  0.00  0.00    +0.022 C 
ENDBRANCH  12  14
ENDBRANCH   9  12
BRANCH   1  19
ATOM     19  C   UNL     1       2.686  -2.139   2.662  0.00  0.00    +0.180 C 
BRANCH  19  22
ATOM     20  C   UNL     1       1.932  -2.820   4.876  0.00  0.00    +0.234 C 
ATOM     21  O   UNL     1       1.917  -3.968   4.486  0.00  0.00    -0.274 OA
ATOM     22  N   UNL     1       2.302  -1.829   4.041  0.00  0.00    -0.307 N 
ATOM     23  H   UNL     1       2.313  -0.911   4.353  0.00  0.00    +0.149 HD
BRANCH  20  27
ATOM     24  C   UNL     1       1.570  -0.802   8.724  0.00  0.00    +0.028 C 
ATOM     25  C   UNL     1       2.372  -2.099   8.604  0.00  0.00    +0.071 C 
ATOM     26  C   UNL     1       2.796  -2.307   7.146  0.00  0.00    +0.053 C 
ATOM     27  C   UNL     1       1.536  -2.501   6.295  0.00  0.00    +0.160 C 
ATOM     28  N   UNL     1       0.752  -3.608   6.845  0.00  0.00    -0.315 N 
ATOM     29  C   UNL     1       0.787  -3.907   8.152  0.00  0.00    +0.131 C 
ATOM     30  S   UNL     1      -0.169  -5.207   8.724  0.00  0.00    -0.019 S 
ATOM     31  N   UNL     1       1.542  -3.228   9.028  0.00  0.00    -0.324 N 
ATOM     32  H   UNL     1       0.195  -4.136   6.251  0.00  0.00    +0.148 HD
ATOM     33  H   UNL     1       1.537  -3.491   9.962  0.00  0.00    +0.148 HD
ENDBRANCH  20  27
ENDBRANCH  19  22
ENDBRANCH   1  19
TORSDOF 5
