REMARK  Name = ZINC63359720
REMARK  5 active torsions:
REMARK  status: ('A' for Active; 'I' for Inactive)
REMARK    1  A    between atoms: C_4  and  N_25
REMARK    2  A    between atoms: C_5  and  C_7
REMARK    3  A    between atoms: C_7  and  N_8
REMARK    4  A    between atoms: N_11  and  C_12
REMARK    5  A    between atoms: C_12  and  C_13
REMARK                            x       y       z     vdW  Elec       q    Type
REMARK                         _______ _______ _______ _____ _____    ______ ____
ROOT
ATOM      1  N   UNL     1       1.423  -2.685   1.341  0.00  0.00    -0.295 N 
ATOM      2  C   UNL     1       1.514  -4.010   1.572  0.00  0.00    +0.300 C 
ATOM      3  O   UNL     1       1.374  -4.797   0.656  0.00  0.00    -0.253 OA
ATOM      4  N   UNL     1       1.758  -4.462   2.817  0.00  0.00    -0.295 N 
ATOM      5  H   UNL     1       1.535  -2.057   2.072  0.00  0.00    +0.151 HD
ATOM      6  H   UNL     1       1.869  -3.834   3.548  0.00  0.00    +0.151 HD
ENDROOT
BRANCH   1   7
ATOM      7  C   UNL     1       1.158  -2.193  -0.013  0.00  0.00    +0.143 C 
BRANCH   7  12
ATOM      8  C   UNL     1      -0.161   1.344   0.025  0.00  0.00    +0.000 A 
ATOM      9  C   UNL     1       1.010   2.080   0.024  0.00  0.00    +0.002 A 
ATOM     10  C   UNL     1       2.231   1.436   0.010  0.00  0.00    +0.028 A 
ATOM     11  C   UNL     1       2.283   0.048  -0.001  0.00  0.00    +0.070 A 
ATOM     12  C   UNL     1       1.106  -0.687   0.000  0.00  0.00    -0.005 A 
ATOM     13  C   UNL     1      -0.113  -0.038   0.013  0.00  0.00    +0.007 A 
BRANCH  11  14
ATOM     14  N   UNL     1       3.522  -0.608  -0.015  0.00  0.00    -0.240 N 
ATOM     15  C   UNL     1       4.737  -0.015  -0.014  0.00  0.00    +0.114 A 
ATOM     16  C   UNL     1       5.672  -0.993  -0.030  0.00  0.00    +0.041 A 
ATOM     17  C   UNL     1       5.008  -2.224  -0.042  0.00  0.00    +0.135 A 
ATOM     18  N   UNL     1       3.720  -1.995  -0.028  0.00  0.00    -0.175 NA
ENDBRANCH  11  14
ENDBRANCH   7  12
ENDBRANCH   1   7
BRANCH   4  19
ATOM     19  C   UNL     1       1.856  -5.902   3.068  0.00  0.00    +0.142 C 
BRANCH  19  20
ATOM     20  C   UNL     1       2.132  -6.140   4.530  0.00  0.00    -0.014 A 
ATOM     21  C   UNL     1       3.439  -6.202   4.996  0.00  0.00    +0.010 A 
ATOM     22  C   UNL     1       3.649  -6.422   6.345  0.00  0.00    +0.042 A 
ATOM     23  C   UNL     1       2.550  -6.573   7.185  0.00  0.00    +0.099 A 
ATOM     24  N   UNL     1       1.319  -6.507   6.703  0.00  0.00    -0.349 N 
ATOM     25  C   UNL     1       1.089  -6.292   5.421  0.00  0.00    +0.089 A 
ATOM     26  N   UNL     1       2.747  -6.795   8.543  0.00  0.00    -0.317 N 
ATOM     27  C   UNL     1       1.607  -6.826   9.470  0.00  0.00    +0.106 C 
ATOM     28  C   UNL     1       1.653  -8.135  10.264  0.00  0.00    +0.019 C 
ATOM     29  C   UNL     1       3.018  -8.268  10.943  0.00  0.00    +0.003 C 
ATOM     30  C   UNL     1       4.117  -8.309   9.879  0.00  0.00    +0.019 C 
ATOM     31  C   UNL     1       4.098  -7.008   9.079  0.00  0.00    +0.106 C 
ATOM     32  H   UNL     1       0.568  -6.614   7.307  0.00  0.00    +0.167 HD
ENDBRANCH  19  20
ENDBRANCH   4  19
TORSDOF 5
