REMARK  Name = ZINC37059735
REMARK  6 active torsions:
REMARK  status: ('A' for Active; 'I' for Inactive)
REMARK    1  A    between atoms: C_1  and  C_2
REMARK    2  A    between atoms: C_5  and  N_11
REMARK    3  A    between atoms: C_6  and  N_8
REMARK    4  A    between atoms: N_11  and  C_12
REMARK    5  A    between atoms: C_12  and  C_14
REMARK    6  A    between atoms: C_12  and  C_15
REMARK                            x       y       z     vdW  Elec       q    Type
REMARK                         _______ _______ _______ _____ _____    ______ ____
ROOT
ATOM      1  N   UNL     1       0.569  -4.113   0.032  0.00  0.00    -0.335 N 
ATOM      2  H   UNL     1       0.646  -4.581   0.878  0.00  0.00    +0.147 HD
ENDROOT
BRANCH   1   7
ATOM      3  C   UNL     1      -0.547   1.446  -0.045  0.00  0.00    +0.044 C 
ATOM      4  C   UNL     1      -0.250  -0.031  -0.024  0.00  0.00    -0.048 A 
ATOM      5  C   UNL     1       0.027  -0.696  -1.205  0.00  0.00    +0.005 A 
ATOM      6  C   UNL     1       0.299  -2.049  -1.190  0.00  0.00    +0.025 A 
ATOM      7  C   UNL     1       0.294  -2.744   0.013  0.00  0.00    +0.058 A 
ATOM      8  C   UNL     1       0.015  -2.074   1.197  0.00  0.00    +0.147 A 
ATOM      9  C   UNL     1      -0.251  -0.718   1.175  0.00  0.00    +0.038 A 
BRANCH   8  10
ATOM     10  N   UNL     1       0.008  -2.809   2.481  0.00  0.00    +0.058 N 
ATOM     11  O   UNL     1      -0.428  -3.936   2.530  0.00  0.00    -0.126 OA
ATOM     12  O   UNL     1       0.437  -2.284   3.482  0.00  0.00    -0.126 OA
ENDBRANCH   8  10
ENDBRANCH   1   7
BRANCH   1  13
ATOM     13  C   UNL     1       0.740  -4.843  -1.226  0.00  0.00    +0.099 C 
ATOM     14  C   UNL     1      -0.630  -5.274  -1.756  0.00  0.00    +0.033 C 
BRANCH  13  15
ATOM     15  C   UNL     1       1.592  -6.063  -0.988  0.00  0.00    -0.008 A 
ATOM     16  C   UNL     1       1.646  -6.633   0.270  0.00  0.00    +0.027 A 
ATOM     17  C   UNL     1       2.429  -7.752   0.489  0.00  0.00    +0.041 A 
ATOM     18  C   UNL     1       3.158  -8.301  -0.551  0.00  0.00    +0.021 A 
ATOM     19  C   UNL     1       3.104  -7.731  -1.808  0.00  0.00    +0.022 A 
ATOM     20  C   UNL     1       2.317  -6.615  -2.029  0.00  0.00    +0.046 A 
ATOM     21 CL   UNL     1       2.243  -5.903  -3.611  0.00  0.00    -0.083 Cl
ATOM     22 CL   UNL     1       2.497  -8.468   2.070  0.00  0.00    -0.084 Cl
ENDBRANCH  13  15
ENDBRANCH   1  13
TORSDOF 4
