REMARK  Name = ZINC61147923
REMARK  7 active torsions:
REMARK  status: ('A' for Active; 'I' for Inactive)
REMARK    1  A    between atoms: C_1  and  C_2
REMARK    2  A    between atoms: C_2  and  O_3
REMARK    3  A    between atoms: O_3  and  C_4
REMARK    4  A    between atoms: C_7  and  C_11
REMARK    5  A    between atoms: C_9  and  N_10
REMARK    6  A    between atoms: N_15  and  C_16
REMARK    7  A    between atoms: C_16  and  C_17
REMARK                            x       y       z     vdW  Elec       q    Type
REMARK                         _______ _______ _______ _____ _____    ______ ____
ROOT
ATOM      1  C   UNL     1       0.677  -1.810  -1.417  0.00  0.00    +0.141 A 
ATOM      2  C   UNL     1      -0.283  -2.659  -0.889  0.00  0.00    +0.048 A 
ATOM      3  C   UNL     1      -0.153  -4.025  -1.029  0.00  0.00    +0.015 A 
ATOM      4  C   UNL     1       0.946  -4.557  -1.705  0.00  0.00    +0.023 A 
ATOM      5  C   UNL     1       1.913  -3.704  -2.238  0.00  0.00    +0.038 A 
ATOM      6  C   UNL     1       1.776  -2.334  -2.099  0.00  0.00    +0.068 A 
ENDROOT
BRANCH   4   7
ATOM      7  C   UNL     1       1.086  -6.022  -1.855  0.00  0.00    +0.182 A 
ATOM      8  N   UNL     1       1.829  -6.651  -2.741  0.00  0.00    -0.108 NA
ATOM      9  N   UNL     1       1.722  -7.922  -2.597  0.00  0.00    -0.023 NA
ATOM     10  N   UNL     1       0.919  -8.198  -1.627  0.00  0.00    -0.044 NA
ATOM     11  N   UNL     1       0.477  -6.972  -1.101  0.00  0.00    -0.225 N 
BRANCH  11  12
ATOM     12  C   UNL     1      -0.445  -6.763   0.018  0.00  0.00    +0.153 C 
BRANCH  12  13
ATOM     13  C   UNL     1      -1.886  -6.794  -0.497  0.00  0.00    +0.038 C 
ATOM     14  C   UNL     1      -2.878  -6.497   0.654  0.00  0.00    +0.035 C 
ATOM     15  C   UNL     1      -4.022  -7.503   0.364  0.00  0.00    +0.160 C 
ATOM     16  O   UNL     1      -3.327  -8.674  -0.115  0.00  0.00    -0.379 OA
ATOM     17  C   UNL     1      -2.261  -8.213  -0.967  0.00  0.00    +0.165 C 
ENDBRANCH  12  13
ENDBRANCH  11  12
ENDBRANCH   4   7
BRANCH   6  18
ATOM     18  N   UNL     1       2.741  -1.475  -2.636  0.00  0.00    -0.355 N 
ATOM     19  H   UNL     1       2.647  -0.515  -2.535  0.00  0.00    +0.142 HD
ATOM     20  H   UNL     1       3.505  -1.840  -3.110  0.00  0.00    +0.142 HD
ENDBRANCH   6  18
BRANCH   1  21
ATOM     21  O   UNL     1       0.545  -0.465  -1.276  0.00  0.00    -0.490 OA
BRANCH  21  23
ATOM     22  C   UNL     1      -0.580   1.532  -0.511  0.00  0.00    +0.048 C 
ATOM     23  C   UNL     1      -0.604   0.004  -0.567  0.00  0.00    +0.226 C 
ENDBRANCH  21  23
ENDBRANCH   1  21
TORSDOF 6
