REMARK  Name = ZINC05330591
REMARK  2 active torsions:
REMARK  status: ('A' for Active; 'I' for Inactive)
REMARK    1  A    between atoms: C_1  and  C_2
REMARK    2  A    between atoms: C_4  and  N_18
REMARK                            x       y       z     vdW  Elec       q    Type
REMARK                         _______ _______ _______ _____ _____    ______ ____
ROOT
ATOM      1  C   UNL     1      -2.352   8.287   0.640  0.00  0.00    +0.046 C 
ATOM      2  C   UNL     1      -1.118   7.478   0.333  0.00  0.00    -0.026 A 
ATOM      3  C   UNL     1       0.065   8.120   0.030  0.00  0.00    +0.028 A 
ATOM      4  C   UNL     1       1.206   7.377  -0.248  0.00  0.00    +0.025 A 
ATOM      5  C   UNL     1       1.154   5.994  -0.235  0.00  0.00    +0.033 A 
ATOM      6  C   UNL     1      -0.046   5.335   0.049  0.00  0.00    +0.008 A 
ATOM      7  C   UNL     1      -1.179   6.090   0.357  0.00  0.00    +0.059 A 
ATOM      8  N   UNL     1      -2.393   5.485   0.721  0.00  0.00    -0.215 N 
ATOM      9  S   UNL     1      -2.764   4.014   0.035  0.00  0.00    +0.073 S 
ATOM     10  O   UNL     1      -3.632   3.342   0.938  0.00  0.00    -0.150 OA
ATOM     11  O   UNL     1      -3.104   4.261  -1.322  0.00  0.00    -0.150 OA
ATOM     12  C   UNL     1      -1.235   3.127   0.032  0.00  0.00    +0.116 A 
ATOM     13  C   UNL     1      -0.045   3.853   0.037  0.00  0.00    +0.011 A 
ATOM     14  C   UNL     1       1.168   3.163   0.012  0.00  0.00    +0.010 A 
ATOM     15  C   UNL     1       1.176   1.784   0.000  0.00  0.00    +0.001 A 
ATOM     16  C   UNL     1      -0.013   1.076   0.008  0.00  0.00    +0.002 A 
ATOM     17  C   UNL     1      -1.221   1.752   0.017  0.00  0.00    +0.029 A 
ATOM     18  H   UNL     1      -2.995   5.910   1.351  0.00  0.00    +0.174 HD
ENDROOT
BRANCH   4  19
ATOM     19  N   UNL     1       2.410   8.028  -0.543  0.00  0.00    -0.358 N 
ATOM     20  H   UNL     1       3.207   7.510  -0.737  0.00  0.00    +0.142 HD
ATOM     21  H   UNL     1       2.447   8.998  -0.552  0.00  0.00    +0.142 HD
ENDBRANCH   4  19
TORSDOF 1
