REMARK  Name = ZINC38578228
REMARK  5 active torsions:
REMARK  status: ('A' for Active; 'I' for Inactive)
REMARK    1  A    between atoms: C_1  and  C_2
REMARK    2  A    between atoms: C_5  and  C_7
REMARK    3  A    between atoms: N_8  and  N_9
REMARK    4  A    between atoms: C_10  and  C_12
REMARK    5  A    between atoms: C_15  and  C_18
REMARK                            x       y       z     vdW  Elec       q    Type
REMARK                         _______ _______ _______ _____ _____    ______ ____
ROOT
ATOM      1  N   UNL     1       2.832  -5.532  -0.040  0.00  0.00    -0.205 N 
ATOM      2  C   UNL     1       4.163  -5.742  -0.046  0.00  0.00    +0.262 C 
ATOM      3  O   UNL     1       4.926  -4.799  -0.045  0.00  0.00    -0.271 OA
ATOM      4  H   UNL     1       2.221  -6.286  -0.041  0.00  0.00    +0.177 HD
ENDROOT
BRANCH   2   5
ATOM      5  C   UNL     1       4.704  -7.149  -0.056  0.00  0.00    +0.240 C 
ATOM      6  C   UNL     1       4.715  -7.710  -1.467  0.00  0.00    +0.035 C 
ATOM      7  C   UNL     1       6.006  -7.951  -1.706  0.00  0.00    +0.059 C 
ATOM      8  N   UNL     1       6.763  -7.613  -0.639  0.00  0.00    -0.159 NA
ATOM      9  N   UNL     1       6.127  -7.162   0.322  0.00  0.00    -0.170 NA
ATOM     10  C   UNL     1       6.546  -8.522  -2.992  0.00  0.00    +0.067 C 
ENDBRANCH   2   5
BRANCH   1  12
ATOM     11  C   UNL     1       1.044  -4.021  -0.024  0.00  0.00    +0.145 C 
ATOM     12  N   UNL     1       2.329  -4.224  -0.031  0.00  0.00    -0.187 NA
BRANCH  11  17
ATOM     13  C   UNL     1      -0.018   1.503   0.010  0.00  0.00    +0.051 C 
ATOM     14  C   UNL     1       0.002  -0.004   0.002  0.00  0.00    -0.013 A 
ATOM     15  C   UNL     1      -1.044  -0.871   0.002  0.00  0.00    +0.011 A 
ATOM     16  C   UNL     1      -0.798  -2.224  -0.007  0.00  0.00    +0.017 A 
ATOM     17  C   UNL     1       0.518  -2.653  -0.015  0.00  0.00    +0.032 A 
ATOM     18  S   UNL     1       1.407  -1.105  -0.018  0.00  0.00    -0.093 S 
ENDBRANCH  11  17
ENDBRANCH   1  12
TORSDOF 3
