REMARK  Name = ZINC59170369
REMARK  5 active torsions:
REMARK  status: ('A' for Active; 'I' for Inactive)
REMARK    1  A    between atoms: C_1  and  C_2
REMARK    2  A    between atoms: C_5  and  S_8
REMARK    3  A    between atoms: S_8  and  N_11
REMARK    4  A    between atoms: N_11  and  N_12
REMARK    5  A    between atoms: C_14  and  C_24
REMARK                            x       y       z     vdW  Elec       q    Type
REMARK                         _______ _______ _______ _____ _____    ______ ____
ROOT
ATOM      1  N   UNL     1       2.495  -4.628   1.025  0.00  0.00    -0.260 N 
ATOM      2  C   UNL     1       3.745  -4.996   1.012  0.00  0.00    +0.225 A 
ATOM      3  C   UNL     1       4.692  -4.521   2.047  0.00  0.00    +0.098 A 
ATOM      4  C   UNL     1       5.773  -5.323   2.325  0.00  0.00    +0.030 A 
ATOM      5  C   UNL     1       5.899  -6.579   1.576  0.00  0.00    +0.019 A 
ATOM      6  C   UNL     1       6.806  -7.563   1.981  0.00  0.00    +0.026 A 
ATOM      7  C   UNL     1       6.905  -8.736   1.262  0.00  0.00    +0.019 A 
ATOM      8  C   UNL     1       6.111  -8.941   0.144  0.00  0.00    +0.019 A 
ATOM      9  C   UNL     1       5.212  -7.976  -0.267  0.00  0.00    +0.048 A 
ATOM     10  C   UNL     1       5.098  -6.790   0.440  0.00  0.00    +0.138 A 
ATOM     11  O   UNL     1       4.222  -5.835   0.047  0.00  0.00    -0.437 OA
ATOM     12 BR   UNL     1       8.130 -10.071   1.804  0.00  0.00    -0.050 Br
ATOM     13  H   UNL     1       2.153  -4.098   1.762  0.00  0.00    +0.189 HD
ENDROOT
BRANCH   3  14
ATOM     14  C   UNL     1       4.484  -3.244   2.750  0.00  0.00    +0.247 C 
ATOM     15  O   UNL     1       3.475  -2.595   2.546  0.00  0.00    -0.270 OA
ATOM     16  N   UNL     1       5.410  -2.793   3.618  0.00  0.00    -0.325 N 
ATOM     17  H   UNL     1       6.248  -3.271   3.725  0.00  0.00    +0.145 HD
ATOM     18  H   UNL     1       5.240  -1.990   4.136  0.00  0.00    +0.145 HD
ENDBRANCH   3  14
BRANCH   1  19
ATOM     19  N   UNL     1       1.645  -4.997  -0.026  0.00  0.00    -0.157 N 
ATOM     20  H   UNL     1       1.988  -5.526  -0.764  0.00  0.00    +0.194 HD
BRANCH  19  21
ATOM     21  S   UNL     1       0.057  -4.530  -0.010  0.00  0.00    +0.085 S 
ATOM     22  O   UNL     1      -0.481  -4.961   1.233  0.00  0.00    -0.149 OA
ATOM     23  O   UNL     1      -0.496  -4.926  -1.258  0.00  0.00    -0.149 OA
BRANCH  21  28
ATOM     24  C   UNL     1      -0.030   1.503   0.077  0.00  0.00    +0.044 C 
ATOM     25  C   UNL     1      -0.008  -0.004   0.055  0.00  0.00    -0.050 A 
ATOM     26  C   UNL     1      -0.005  -0.678  -1.152  0.00  0.00    +0.005 A 
ATOM     27  C   UNL     1       0.015  -2.060  -1.172  0.00  0.00    +0.029 A 
ATOM     28  C   UNL     1       0.032  -2.768   0.015  0.00  0.00    +0.110 A 
ATOM     29  C   UNL     1       0.030  -2.094   1.222  0.00  0.00    +0.029 A 
ATOM     30  C   UNL     1       0.014  -0.712   1.242  0.00  0.00    +0.005 A 
ENDBRANCH  21  28
ENDBRANCH  19  21
ENDBRANCH   1  19
TORSDOF 4
