REMARK  Name = ZINC09357622
REMARK  4 active torsions:
REMARK  status: ('A' for Active; 'I' for Inactive)
REMARK    1  A    between atoms: C_1  and  C_2
REMARK    2  A    between atoms: C_22  and  C_29
REMARK    3  A    between atoms: C_29  and  C_31
REMARK    4  A    between atoms: C_35  and  N_37
REMARK                            x       y       z     vdW  Elec       q    Type
REMARK                         _______ _______ _______ _____ _____    ______ ____
ROOT
ATOM      1  C   UNL     1       4.296  -2.797  -0.113  0.00  0.00    +0.044 C 
ATOM      2  C   UNL     1       3.536  -1.496  -0.083  0.00  0.00    -0.050 A 
ATOM      3  C   UNL     1       4.220  -0.294  -0.078  0.00  0.00    +0.005 A 
ATOM      4  C   UNL     1       3.530   0.900  -0.050  0.00  0.00    +0.024 A 
ATOM      5  C   UNL     1       2.137   0.903  -0.026  0.00  0.00    +0.036 A 
ATOM      6  C   UNL     1       1.460  -0.311  -0.031  0.00  0.00    -0.026 A 
ATOM      7  C   UNL     1       2.153  -1.501  -0.058  0.00  0.00    +0.008 A 
ATOM      8  C   UNL     1      -0.007   0.028  -0.004  0.00  0.00    +0.060 C 
ATOM      9  C   UNL     1      -0.048   1.537   0.015  0.00  0.00    +0.212 C 
ATOM     10  O   UNL     1      -1.041   2.232   0.034  0.00  0.00    -0.277 OA
ATOM     11  N   UNL     1       1.228   1.962   0.002  0.00  0.00    -0.286 N 
ATOM     12  C   UNL     1      -0.723  -0.522  -1.232  0.00  0.00    +0.085 C 
ATOM     13  C   UNL     1      -1.258   0.578  -2.107  0.00  0.00    -0.011 A 
ATOM     14  C   UNL     1      -2.144   1.609  -1.893  0.00  0.00    +0.006 A 
ATOM     15  C   UNL     1      -2.448   2.485  -2.920  0.00  0.00    +0.000 A 
ATOM     16  C   UNL     1      -1.859   2.321  -4.161  0.00  0.00    +0.002 A 
ATOM     17  C   UNL     1      -0.971   1.289  -4.379  0.00  0.00    +0.023 A 
ATOM     18  C   UNL     1      -0.659   0.403  -3.350  0.00  0.00    +0.038 A 
ATOM     19  N   UNL     1       0.195  -0.701  -3.324  0.00  0.00    -0.285 N 
ATOM     20  C   UNL     1       0.215  -1.300  -2.119  0.00  0.00    +0.228 C 
ATOM     21  O   UNL     1       0.863  -2.276  -1.806  0.00  0.00    -0.275 OA
ATOM     22  C   UNL     1      -1.853  -1.416  -0.707  0.00  0.00    +0.066 C 
ATOM     23  C   UNL     1      -2.002  -1.014   0.777  0.00  0.00    -0.055 C 
ATOM     24  C   UNL     1       0.070  -1.721   1.677  0.00  0.00    -0.076 C 
ATOM     25  C   UNL     1      -1.016  -2.503   2.459  0.00  0.00    -0.020 C 
ATOM     26  C   UNL     1      -2.284  -2.284   1.603  0.00  0.00    -0.016 C 
ATOM     27  H   UNL     1       1.487   2.897   0.012  0.00  0.00    +0.155 HD
ATOM     28  H   UNL     1       0.714  -1.002  -4.086  0.00  0.00    +0.155 HD
ATOM     29  N   UNL     1      -0.682  -0.554   1.176  0.00  0.00    +0.395 N 
ATOM     30  H   UNL     1      -0.760   0.154   1.915  0.00  0.00    -0.079 HD
ENDROOT
BRANCH  22  31
ATOM     31  C   UNL     1      -3.130  -1.146  -1.459  0.00  0.00    +0.166 C 
ATOM     32  O   UNL     1      -3.941  -0.361  -1.016  0.00  0.00    -0.292 OA
BRANCH  31  33
ATOM     33  C   UNL     1      -3.394  -1.836  -2.732  0.00  0.00    +0.020 A 
ATOM     34  C   UNL     1      -2.521  -2.829  -3.188  0.00  0.00    +0.011 A 
ATOM     35  C   UNL     1      -2.775  -3.471  -4.381  0.00  0.00    +0.003 A 
ATOM     36  C   UNL     1      -3.891  -3.135  -5.128  0.00  0.00    +0.033 A 
ATOM     37  C   UNL     1      -4.760  -2.153  -4.684  0.00  0.00    +0.127 A 
ATOM     38  C   UNL     1      -4.522  -1.506  -3.490  0.00  0.00    +0.044 A 
BRANCH  37  39
ATOM     39  N   UNL     1      -5.950  -1.801  -5.490  0.00  0.00    +0.056 N 
ATOM     40  O   UNL     1      -6.165  -2.376  -6.542  0.00  0.00    -0.126 OA
ATOM     41  O   UNL     1      -6.716  -0.938  -5.101  0.00  0.00    -0.126 OA
ENDBRANCH  37  39
ENDBRANCH  31  33
ENDBRANCH  22  31
TORSDOF 3
