REMARK  Name = ZINC04423222
REMARK  6 active torsions:
REMARK  status: ('A' for Active; 'I' for Inactive)
REMARK    1  A    between atoms: C_1  and  C_2
REMARK    2  A    between atoms: C_2  and  C_3
REMARK    3  A    between atoms: C_4  and  C_19
REMARK    4  A    between atoms: C_6  and  N_10
REMARK    5  A    between atoms: C_7  and  C_8
REMARK    6  A    between atoms: C_11  and  C_13
REMARK                            x       y       z     vdW  Elec       q    Type
REMARK                         _______ _______ _______ _____ _____    ______ ____
ROOT
ATOM      1  C   UNL     1       2.193   9.126   0.030  0.00  0.00    -0.018 A 
ATOM      2  C   UNL     1       3.473   8.709   0.018  0.00  0.00    -0.007 A 
ATOM      3  S   UNL     1       3.326   6.935   0.016  0.00  0.00    -0.077 S 
ATOM      4  C   UNL     1       1.601   6.788   0.022  0.00  0.00    +0.090 A 
ATOM      5  C   UNL     1       1.169   8.108   0.033  0.00  0.00    +0.084 A 
ATOM      6  C   UNL     1       4.728   9.544   0.012  0.00  0.00    +0.052 C 
ENDROOT
BRANCH   4   7
ATOM      7  N   UNL     1       0.835   5.632   0.023  0.00  0.00    -0.272 N 
ATOM      8  C   UNL     1       1.435   4.425   0.012  0.00  0.00    +0.284 C 
ATOM      9  O   UNL     1       2.650   4.350   0.001  0.00  0.00    -0.266 OA
ATOM     10  H   UNL     1      -0.134   5.691   0.032  0.00  0.00    +0.156 HD
BRANCH   8  11
ATOM     11  C   UNL     1       0.626   3.204   0.013  0.00  0.00    +0.191 A 
ATOM     12  C   UNL     1       1.104   1.924   0.002  0.00  0.00    +0.056 A 
ATOM     13  C   UNL     1      -0.013   1.076   0.008  0.00  0.00    +0.058 A 
ATOM     14  C   UNL     1      -1.112   1.865   0.017  0.00  0.00    +0.171 A 
ATOM     15  O   UNL     1      -0.722   3.146   0.025  0.00  0.00    -0.444 OA
ATOM     16 BR   UNL     1      -2.903   1.258   0.021  0.00  0.00    -0.008 Br
ENDBRANCH   8  11
ENDBRANCH   4   7
BRANCH   1  18
ATOM     17  C   UNL     1       1.738  11.081   1.486  0.00  0.00    +0.009 C 
ATOM     18  C   UNL     1       1.844  10.592   0.040  0.00  0.00    +0.034 C 
ENDBRANCH   1  18
BRANCH   5  19
ATOM     19  C   UNL     1      -0.223   8.444   0.046  0.00  0.00    +0.102 C 
ATOM     20  N   UNL     1      -1.327   8.710   0.057  0.00  0.00    -0.191 NA
ENDBRANCH   5  19
TORSDOF 4
