REMARK  Name = ZINC11817021
REMARK  9 active torsions:
REMARK  status: ('A' for Active; 'I' for Inactive)
REMARK    1  A    between atoms: C_1  and  C_2
REMARK    2  A    between atoms: C_2  and  N_3
REMARK    3  A    between atoms: C_5  and  C_9
REMARK    4  A    between atoms: C_6  and  C_8
REMARK    5  A    between atoms: C_9  and  N_57
REMARK    6  A    between atoms: C_13  and  C_15
REMARK    7  A    between atoms: N_17  and  C_18
REMARK    8  A    between atoms: C_21  and  N_24
REMARK    9  A    between atoms: C_28  and  C_29
REMARK                            x       y       z     vdW  Elec       q    Type
REMARK                         _______ _______ _______ _____ _____    ______ ____
ROOT
ATOM      1  C   UNL     1       3.557   1.790  -0.124  0.00  0.00    +0.204 C 
ATOM      2  O   UNL     1       3.545   3.003  -0.118  0.00  0.00    -0.277 OA
ATOM      3  N   UNL     1       2.403   1.103  -0.015  0.00  0.00    -0.287 N 
ATOM      4  H   UNL     1       2.418   0.135   0.048  0.00  0.00    +0.155 HD
ENDROOT
BRANCH   1   8
ATOM      5  C   UNL     1       6.954   1.387  -1.308  0.00  0.00    -0.077 C 
ATOM      6  C   UNL     1       6.050   0.714  -2.372  0.00  0.00    -0.020 C 
ATOM      7  C   UNL     1       4.858   0.196  -1.535  0.00  0.00    -0.008 C 
ATOM      8  C   UNL     1       4.864   1.050  -0.254  0.00  0.00    +0.020 C 
ATOM      9  N   UNL     1       5.969   1.998  -0.402  0.00  0.00    +0.390 N 
ATOM     10  H   UNL     1       5.622   2.875  -0.807  0.00  0.00    -0.080 HD
BRANCH   9  11
ATOM     11  C   UNL     1       6.592   2.285   0.926  0.00  0.00    -0.039 C 
BRANCH  11  14
ATOM     12  N   UNL     1       9.975   3.588   0.532  0.00  0.00    -0.271 N 
ATOM     13  C   UNL     1       9.120   2.566   0.743  0.00  0.00    +0.110 A 
ATOM     14  C   UNL     1       7.864   3.070   0.730  0.00  0.00    -0.024 A 
ATOM     15  C   UNL     1       7.955   4.446   0.497  0.00  0.00    +0.061 A 
ATOM     16  N   UNL     1       9.220   4.759   0.385  0.00  0.00    -0.176 NA
ATOM     17  C   UNL     1       6.795   5.404   0.398  0.00  0.00    +0.068 C 
BRANCH  12  19
ATOM     18  C   UNL     1      11.930   4.085  -0.852  0.00  0.00    +0.029 C 
ATOM     19  C   UNL     1      11.436   3.491   0.469  0.00  0.00    +0.140 C 
ENDBRANCH  12  19
ENDBRANCH  11  14
ENDBRANCH   9  11
ENDBRANCH   1   8
BRANCH   3  20
ATOM     20  C   UNL     1       1.181   1.787   0.008  0.00  0.00    +0.033 A 
ATOM     21  C   UNL     1       1.091   3.028   0.626  0.00  0.00    +0.025 A 
ATOM     22  C   UNL     1      -0.115   3.699   0.654  0.00  0.00    +0.028 A 
ATOM     23  C   UNL     1      -1.235   3.139   0.055  0.00  0.00    +0.048 A 
ATOM     24  C   UNL     1      -1.145   1.899  -0.563  0.00  0.00    +0.028 A 
ATOM     25  C   UNL     1       0.059   1.225  -0.586  0.00  0.00    +0.025 A 
BRANCH  23  26
ATOM     26  N   UNL     1      -2.459   3.825   0.078  0.00  0.00    -0.304 N 
ATOM     27  C   UNL     1      -3.278   4.068  -0.994  0.00  0.00    +0.112 A 
ATOM     28  C   UNL     1      -4.341   4.750  -0.527  0.00  0.00    +0.131 A 
ATOM     29  N   UNL     1      -4.181   4.921   0.794  0.00  0.00    -0.241 NA
ATOM     30  C   UNL     1      -3.060   4.366   1.169  0.00  0.00    +0.111 A 
ATOM     31  C   UNL     1      -2.522   4.335   2.576  0.00  0.00    +0.086 C 
ENDBRANCH  23  26
ENDBRANCH   3  20
TORSDOF 6
