REMARK  Name = ZINC49186648
REMARK  7 active torsions:
REMARK  status: ('A' for Active; 'I' for Inactive)
REMARK    1  A    between atoms: C_1  and  C_2
REMARK    2  A    between atoms: C_2  and  C_3
REMARK    3  A    between atoms: C_4  and  C_19
REMARK    4  A    between atoms: N_8  and  S_9
REMARK    5  A    between atoms: S_9  and  C_12
REMARK    6  A    between atoms: C_15  and  C_17
REMARK    7  A    between atoms: C_17  and  N_18
REMARK                            x       y       z     vdW  Elec       q    Type
REMARK                         _______ _______ _______ _____ _____    ______ ____
ROOT
ATOM      1  S   UNL     1      -5.711  -1.952   1.871  0.00  0.00    +0.107 S 
ATOM      2  O   UNL     1      -6.406  -0.941   1.155  0.00  0.00    -0.146 OA
ATOM      3  O   UNL     1      -5.544  -3.268   1.362  0.00  0.00    -0.146 OA
ENDROOT
BRANCH   1   9
ATOM      4  C   UNL     1      -1.412  -0.526   0.013  0.00  0.00    +0.027 A 
ATOM      5  C   UNL     1      -2.009  -0.849  -1.134  0.00  0.00    +0.009 A 
ATOM      6  S   UNL     1      -3.617  -1.394  -0.579  0.00  0.00    -0.053 S 
ATOM      7  C   UNL     1      -3.367  -1.146   1.172  0.00  0.00    +0.192 A 
ATOM      8  N   UNL     1      -2.074  -0.671   1.196  0.00  0.00    -0.336 N 
ATOM      9  N   UNL     1      -4.192  -1.363   2.167  0.00  0.00    -0.103 NA
ATOM     10  C   UNL     1      -1.468  -0.772  -2.538  0.00  0.00    +0.053 C 
ATOM     11  H   UNL     1      -1.645  -0.442   2.036  0.00  0.00    +0.168 HD
BRANCH   4  13
ATOM     12  C   UNL     1      -0.019   1.526   0.010  0.00  0.00    +0.010 C 
ATOM     13  C   UNL     1       0.002  -0.004   0.002  0.00  0.00    +0.050 C 
ENDBRANCH   4  13
ENDBRANCH   1   9
BRANCH   1  14
ATOM     14  C   UNL     1      -6.520  -2.113   3.428  0.00  0.00    +0.150 A 
ATOM     15  C   UNL     1      -7.281  -1.209   4.092  0.00  0.00    +0.037 A 
ATOM     16  C   UNL     1      -7.822  -1.558   5.315  0.00  0.00    +0.011 A 
ATOM     17  C   UNL     1      -7.576  -2.793   5.814  0.00  0.00    -0.026 A 
ATOM     18  S   UNL     1      -6.557  -3.511   4.537  0.00  0.00    -0.075 S 
BRANCH  17  19
ATOM     19  C   UNL     1      -8.046  -3.405   7.109  0.00  0.00    -0.043 C 
BRANCH  19  20
ATOM     20  N   UNL     1      -9.329  -4.086   6.892  0.00  0.00    +0.381 N 
ATOM     21  H   UNL     1      -9.212  -4.812   6.200  0.00  0.00    -0.090 HD
ATOM     22  H   UNL     1      -9.644  -4.495   7.759  0.00  0.00    -0.090 HD
ATOM     23  H   UNL     1     -10.013  -3.419   6.567  0.00  0.00    -0.090 HD
ENDBRANCH  19  20
ENDBRANCH  17  19
ENDBRANCH   1  14
TORSDOF 5
