REMARK  Name = ZINC67637766
REMARK  9 active torsions:
REMARK  status: ('A' for Active; 'I' for Inactive)
REMARK    1  A    between atoms: C_1  and  C_2
REMARK    2  A    between atoms: N_5  and  C_8
REMARK    3  A    between atoms: C_8  and  C_9
REMARK    4  A    between atoms: C_9  and  C_11
REMARK    5  A    between atoms: C_9  and  O_28
REMARK    6  A    between atoms: C_11  and  N_12
REMARK    7  A    between atoms: N_15  and  C_16
REMARK    8  A    between atoms: C_16  and  C_17
REMARK    9  A    between atoms: N_26  and  C_27
REMARK                            x       y       z     vdW  Elec       q    Type
REMARK                         _______ _______ _______ _____ _____    ______ ____
ROOT
ATOM      1  N   UNL     1       0.282  -7.495   3.679  0.00  0.00    -0.297 N 
ATOM      2  C   UNL     1       0.441  -8.742   4.162  0.00  0.00    +0.300 C 
ATOM      3  O   UNL     1       0.055  -9.698   3.518  0.00  0.00    -0.253 OA
ATOM      4  N   UNL     1       1.028  -8.930   5.361  0.00  0.00    -0.295 N 
ATOM      5  H   UNL     1       0.590  -6.732   4.193  0.00  0.00    +0.150 HD
ATOM      6  H   UNL     1       1.336  -8.168   5.875  0.00  0.00    +0.151 HD
ENDROOT
BRANCH   1   7
ATOM      7  C   UNL     1      -0.357  -7.290   2.376  0.00  0.00    +0.135 C 
BRANCH   7   8
ATOM      8  C   UNL     1      -0.413  -5.793   2.065  0.00  0.00    +0.115 C 
BRANCH   8   9
ATOM      9  O   UNL     1      -1.170  -5.125   3.076  0.00  0.00    -0.392 OA
ATOM     10  H   UNL     1      -2.082  -5.434   3.154  0.00  0.00    +0.210 HD
ENDBRANCH   8   9
BRANCH   8  11
ATOM     11  C   UNL     1      -1.080  -5.580   0.704  0.00  0.00    -0.046 C 
BRANCH  11  16
ATOM     12  C   UNL     1      -0.353  -0.433  -1.643  0.00  0.00    +0.007 C 
ATOM     13  C   UNL     1      -0.347  -1.943  -1.392  0.00  0.00    -0.018 C 
ATOM     14  C   UNL     1      -1.786  -2.439  -1.225  0.00  0.00    -0.016 C 
ATOM     15  C   UNL     1      -1.770  -3.933  -0.895  0.00  0.00    -0.078 C 
ATOM     16  N   UNL     1      -1.026  -4.155   0.351  0.00  0.00    +0.381 N 
ATOM     17  C   UNL     1       0.373  -3.748   0.175  0.00  0.00    -0.078 C 
ATOM     18  C   UNL     1       0.439  -2.246  -0.113  0.00  0.00    -0.016 C 
ATOM     19  H   UNL     1      -1.444  -3.611   1.092  0.00  0.00    -0.082 HD
ENDBRANCH  11  16
ENDBRANCH   8  11
ENDBRANCH   7   8
ENDBRANCH   1   7
BRANCH   4  20
ATOM     20  C   UNL     1       1.201 -10.286   5.887  0.00  0.00    +0.141 C 
BRANCH  20  21
ATOM     21  C   UNL     1       1.879 -10.221   7.232  0.00  0.00    -0.030 A 
ATOM     22  C   UNL     1       3.259 -10.256   7.311  0.00  0.00    +0.007 A 
ATOM     23  C   UNL     1       3.879 -10.197   8.543  0.00  0.00    +0.024 A 
ATOM     24  C   UNL     1       3.116 -10.102   9.702  0.00  0.00    +0.033 A 
ATOM     25  C   UNL     1       1.733 -10.064   9.622  0.00  0.00    -0.026 A 
ATOM     26  C   UNL     1       1.119 -10.120   8.381  0.00  0.00    +0.010 A 
ATOM     27  C   UNL     1       0.876  -9.950  10.854  0.00  0.00    +0.038 C 
ATOM     28  C   UNL     1       1.655 -10.396  12.091  0.00  0.00    +0.024 C 
ATOM     29  C   UNL     1       2.996  -9.650  12.128  0.00  0.00    +0.105 C 
ATOM     30  N   UNL     1       3.764 -10.049  10.941  0.00  0.00    -0.333 N 
ATOM     31  C   UNL     1       5.186 -10.386  11.053  0.00  0.00    +0.129 C 
ENDBRANCH  20  21
ENDBRANCH   4  20
TORSDOF 7
