REMARK  Name = ZINC44028928
REMARK  8 active torsions:
REMARK  status: ('A' for Active; 'I' for Inactive)
REMARK    1  A    between atoms: C_1  and  C_2
REMARK    2  A    between atoms: C_4  and  O_32
REMARK    3  A    between atoms: C_13  and  O_21
REMARK    4  A    between atoms: C_15  and  C_16
REMARK    5  A    between atoms: C_15  and  O_20
REMARK    6  A    between atoms: C_16  and  C_18
REMARK    7  A    between atoms: C_18  and  O_19
REMARK    8  A    between atoms: C_30  and  C_31
REMARK                            x       y       z     vdW  Elec       q    Type
REMARK                         _______ _______ _______ _____ _____    ______ ____
ROOT
ATOM      1  C   UNL     1      -0.019   1.526   0.010  0.00  0.00    +0.015 C 
ATOM      2  C   UNL     1       0.002  -0.004   0.002  0.00  0.00    +0.012 C 
ATOM      3  C   UNL     1       0.756  -0.499  -1.216  0.00  0.00    +0.042 C 
ATOM      4  C   UNL     1       2.147   0.156  -1.193  0.00  0.00    +0.120 C 
ATOM      5  C   UNL     1       2.891  -0.177   0.101  0.00  0.00    +0.035 C 
ATOM      6  C   UNL     1       2.059   0.209   1.329  0.00  0.00    -0.000 C 
ATOM      7  C   UNL     1       0.752  -0.525   1.258  0.00  0.00    +0.004 C 
ATOM      8  C   UNL     1      -0.259  -0.223   2.369  0.00  0.00    +0.039 C 
ATOM      9  C   UNL     1      -1.613  -0.630   1.726  0.00  0.00    +0.154 C 
ATOM     10  C   UNL     1      -1.413  -0.539   0.193  0.00  0.00    +0.157 C 
ATOM     11  C   UNL     1       2.844  -0.175   2.588  0.00  0.00    +0.008 C 
ATOM     12  C   UNL     1       2.799  -1.698   2.721  0.00  0.00    +0.032 C 
ATOM     13  C   UNL     1       3.206  -2.340   1.426  0.00  0.00    -0.056 C 
ATOM     14  C   UNL     1       3.495  -3.662   1.432  0.00  0.00    +0.051 C 
ATOM     15  C   UNL     1       3.840  -4.232   0.100  0.00  0.00    +0.179 C 
ATOM     16  O   UNL     1       4.742  -5.033  -0.056  0.00  0.00    -0.288 OA
ATOM     17  C   UNL     1       2.996  -3.745  -1.026  0.00  0.00    +0.047 C 
ATOM     18  C   UNL     1       2.716  -2.424  -1.001  0.00  0.00    -0.012 C 
ATOM     19  C   UNL     1       3.275  -1.631   0.127  0.00  0.00    +0.013 C 
ATOM     20  C   UNL     1       4.772  -1.640  -0.186  0.00  0.00    +0.020 C 
ENDROOT
BRANCH  10  21
ATOM     21  C   UNL     1      -1.544  -1.904  -0.433  0.00  0.00    +0.193 C 
ATOM     22  O   UNL     1      -0.585  -2.636  -0.491  0.00  0.00    -0.292 OA
BRANCH  21  23
ATOM     23  C   UNL     1      -2.872  -2.355  -0.985  0.00  0.00    +0.233 C 
BRANCH  23  24
ATOM     24  O   UNL     1      -2.741  -3.674  -1.520  0.00  0.00    -0.387 OA
ATOM     25  H   UNL     1      -3.559  -4.029  -1.894  0.00  0.00    +0.210 HD
ENDBRANCH  23  24
ENDBRANCH  21  23
ENDBRANCH  10  21
BRANCH  10  26
ATOM     26  O   UNL     1      -2.364   0.362  -0.379  0.00  0.00    -0.378 OA
ATOM     27  H   UNL     1      -3.283   0.074  -0.288  0.00  0.00    +0.211 HD
ENDBRANCH  10  26
BRANCH   9  28
ATOM     28  O   UNL     1      -1.951  -1.967   2.100  0.00  0.00    -0.388 OA
ATOM     29  H   UNL     1      -2.066  -2.092   3.052  0.00  0.00    +0.210 HD
ENDBRANCH   9  28
BRANCH   4  30
ATOM     30  O   UNL     1       2.908  -0.319  -2.305  0.00  0.00    -0.391 OA
ATOM     31  H   UNL     1       2.512  -0.123  -3.165  0.00  0.00    +0.210 HD
ENDBRANCH   4  30
TORSDOF 6
