REMARK  Name = ZINC39361430
REMARK  8 active torsions:
REMARK  status: ('A' for Active; 'I' for Inactive)
REMARK    1  A    between atoms: C_1  and  C_2
REMARK    2  A    between atoms: C_6  and  C_8
REMARK    3  A    between atoms: C_14  and  S_18
REMARK    4  A    between atoms: S_18  and  C_19
REMARK    5  A    between atoms: C_19  and  C_20
REMARK    6  A    between atoms: C_19  and  C_21
REMARK    7  A    between atoms: C_28  and  C_30
REMARK    8  A    between atoms: C_28  and  C_31
REMARK                            x       y       z     vdW  Elec       q    Type
REMARK                         _______ _______ _______ _____ _____    ______ ____
ROOT
ATOM      1  C   UNL     1       0.054  -2.845   2.489  0.00  0.00    +0.073 C 
ATOM      2  C   UNL     1      -1.189  -3.732   2.571  0.00  0.00    +0.152 C 
ATOM      3  C   UNL     1      -0.958  -4.731   3.682  0.00  0.00    +0.115 C 
ATOM      4  N   UNL     1      -1.766  -4.837   4.692  0.00  0.00    -0.213 NA
ATOM      5  C   UNL     1      -2.841  -4.050   4.833  0.00  0.00    +0.182 C 
ATOM      6  N   UNL     1      -3.136  -3.106   3.951  0.00  0.00    -0.154 NA
ATOM      7  C   UNL     1      -2.403  -2.897   2.860  0.00  0.00    +0.250 C 
ATOM      8  O   UNL     1      -2.713  -2.014   2.084  0.00  0.00    -0.273 OA
ATOM      9  N   UNL     1       0.162  -5.508   3.576  0.00  0.00    -0.305 N 
ATOM     10  C   UNL     1       1.310  -4.928   3.083  0.00  0.00    +0.017 C 
ATOM     11  C   UNL     1       1.305  -3.689   2.558  0.00  0.00    +0.021 C 
ATOM     12  C   UNL     1       2.490  -3.119   2.050  0.00  0.00    +0.162 C 
ATOM     13  O   UNL     1       2.453  -2.008   1.560  0.00  0.00    -0.292 OA
ATOM     14  C   UNL     1       3.799  -3.857   2.102  0.00  0.00    +0.086 C 
ATOM     15  C   UNL     1       3.779  -4.820   3.294  0.00  0.00    -0.023 C 
ATOM     16  C   UNL     1       2.580  -5.743   3.144  0.00  0.00    +0.058 C 
ATOM     17  C   UNL     1       5.067  -5.645   3.312  0.00  0.00    +0.011 C 
ATOM     18  C   UNL     1       3.656  -4.026   4.596  0.00  0.00    +0.011 C 
ATOM     19  H   UNL     1       0.149  -6.441   3.841  0.00  0.00    +0.153 HD
ENDROOT
BRANCH   1  25
ATOM     20  C   UNL     1      -0.018   1.503   0.010  0.00  0.00    +0.044 C 
ATOM     21  C   UNL     1       0.002  -0.004   0.002  0.00  0.00    -0.050 A 
ATOM     22  C   UNL     1       0.006  -0.689  -1.199  0.00  0.00    +0.003 A 
ATOM     23  C   UNL     1       0.025  -2.071  -1.207  0.00  0.00    +0.001 A 
ATOM     24  C   UNL     1       0.040  -2.768  -0.013  0.00  0.00    +0.004 A 
ATOM     25  C   UNL     1       0.037  -2.084   1.188  0.00  0.00    -0.038 A 
ATOM     26  C   UNL     1       0.023  -0.702   1.195  0.00  0.00    +0.007 A 
ENDBRANCH   1  25
BRANCH   5  27
ATOM     27  S   UNL     1      -3.890  -4.276   6.231  0.00  0.00    -0.086 S 
BRANCH  27  28
ATOM     28  C   UNL     1      -5.184  -3.023   6.014  0.00  0.00    +0.048 C 
ATOM     29  C   UNL     1      -5.999  -3.343   4.760  0.00  0.00    +0.019 C 
ATOM     30  C   UNL     1      -6.106  -3.026   7.236  0.00  0.00    +0.019 C 
ENDBRANCH  27  28
ENDBRANCH   5  27
TORSDOF 3
