REMARK  Name = ZINC43539365
REMARK  7 active torsions:
REMARK  status: ('A' for Active; 'I' for Inactive)
REMARK    1  A    between atoms: C_1  and  C_2
REMARK    2  A    between atoms: C_2  and  C_3
REMARK    3  A    between atoms: C_3  and  C_5
REMARK    4  A    between atoms: C_3  and  N_9
REMARK    5  A    between atoms: N_6  and  O_7
REMARK    6  A    between atoms: C_11  and  C_18
REMARK    7  A    between atoms: C_14  and  C_17
REMARK                            x       y       z     vdW  Elec       q    Type
REMARK                         _______ _______ _______ _____ _____    ______ ____
ROOT
ATOM      1  C   UNL     1      -1.530  -0.600  -0.230  0.00  0.00    +0.123 C 
ENDROOT
BRANCH   1   2
ATOM      2  N   UNL     1      -2.238  -0.519  -1.514  0.00  0.00    -0.288 NA
ATOM      3  C   UNL     1      -1.647  -1.437  -2.499  0.00  0.00    +0.116 C 
ATOM      4  C   UNL     1      -2.374  -1.278  -3.837  0.00  0.00    +0.130 C 
ATOM      5  O   UNL     1      -3.771  -1.516  -3.646  0.00  0.00    -0.371 OA
ATOM      6  C   UNL     1      -4.379  -0.639  -2.693  0.00  0.00    +0.130 C 
ATOM      7  C   UNL     1      -3.672  -0.792  -1.343  0.00  0.00    +0.116 C 
ATOM      8  C   UNL     1      -4.253   0.807  -3.176  0.00  0.00    +0.039 C 
ATOM      9  C   UNL     1      -1.817  -2.286  -4.845  0.00  0.00    +0.039 C 
ENDBRANCH   1   2
BRANCH   1  10
ATOM     10  C   UNL     1      -1.475  -2.036   0.225  0.00  0.00    +0.149 C 
ATOM     11  N   UNL     1      -0.375  -2.705   0.120  0.00  0.00    -0.075 NA
ATOM     12  N   UNL     1      -2.598  -2.634   0.752  0.00  0.00    -0.343 N 
ATOM     13  H   UNL     1      -3.394  -2.107   0.922  0.00  0.00    +0.144 HD
ATOM     14  H   UNL     1      -2.592  -3.583   0.954  0.00  0.00    +0.144 HD
BRANCH  11  15
ATOM     15  O   UNL     1      -0.323  -4.054   0.547  0.00  0.00    -0.408 OA
ATOM     16  H   UNL     1       0.541  -4.471   0.428  0.00  0.00    +0.328 HD
ENDBRANCH  11  15
ENDBRANCH   1  10
BRANCH   1  18
ATOM     17  C   UNL     1      -0.161   1.428  -0.737  0.00  0.00    +0.006 C 
ATOM     18  C   UNL     1      -0.107  -0.063  -0.397  0.00  0.00    +0.023 C 
ENDBRANCH   1  18
TORSDOF 4
