REMARK  Name = ZINC17251576
REMARK  8 active torsions:
REMARK  status: ('A' for Active; 'I' for Inactive)
REMARK    1  A    between atoms: C_1  and  C_2
REMARK    2  A    between atoms: C_2  and  C_3
REMARK    3  A    between atoms: C_3  and  C_4
REMARK    4  A    between atoms: C_4  and  N_5
REMARK    5  A    between atoms: C_12  and  C_14
REMARK    6  A    between atoms: N_21  and  C_24
REMARK    7  A    between atoms: C_27  and  C_31
REMARK    8  A    between atoms: C_28  and  C_30
REMARK                            x       y       z     vdW  Elec       q    Type
REMARK                         _______ _______ _______ _____ _____    ______ ____
ROOT
ATOM      1  C   UNL     1      -0.193  -7.042  -2.379  0.00  0.00    +0.026 C 
ATOM      2  C   UNL     1      -1.057  -6.321  -1.575  0.00  0.00    +0.102 C 
ATOM      3  C   UNL     1      -2.180  -6.971  -0.873  0.00  0.00    +0.274 C 
ATOM      4  O   UNL     1      -2.378  -8.167  -0.983  0.00  0.00    -0.268 OA
ATOM      5  N   UNL     1      -2.982  -6.204  -0.106  0.00  0.00    -0.153 NA
ATOM      6  C   UNL     1      -2.772  -4.887   0.029  0.00  0.00    +0.171 C 
ATOM      7  S   UNL     1      -3.837  -3.995   1.029  0.00  0.00    -0.016 S 
ATOM      8  N   UNL     1      -1.777  -4.229  -0.583  0.00  0.00    -0.216 N 
ATOM      9  C   UNL     1      -0.896  -4.867  -1.382  0.00  0.00    +0.262 C 
ATOM     10  O   UNL     1       0.006  -4.260  -1.928  0.00  0.00    -0.269 OA
ENDROOT
BRANCH   1  18
ATOM     11  N   UNL     1      -0.414 -12.647  -2.627  0.00  0.00    -0.329 N 
ATOM     12  C   UNL     1       0.080 -12.900  -3.997  0.00  0.00    +0.110 C 
ATOM     13  C   UNL     1      -0.253 -11.578  -4.726  0.00  0.00    +0.056 C 
ATOM     14  C   UNL     1      -0.276 -10.569  -3.594  0.00  0.00    -0.024 A 
ATOM     15  C   UNL     1      -0.359 -11.276  -2.394  0.00  0.00    +0.033 A 
ATOM     16  C   UNL     1      -0.380 -10.573  -1.184  0.00  0.00    +0.024 A 
ATOM     17  C   UNL     1      -0.319  -9.212  -1.174  0.00  0.00    +0.010 A 
ATOM     18  C   UNL     1      -0.247  -8.503  -2.384  0.00  0.00    -0.024 A 
ATOM     19  C   UNL     1      -0.223  -9.208  -3.598  0.00  0.00    +0.013 A 
BRANCH  11  20
ATOM     20  C   UNL     1       0.383 -13.382  -1.635  0.00  0.00    +0.105 C 
BRANCH  20  21
ATOM     21  C   UNL     1       0.377 -14.873  -1.980  0.00  0.00    +0.019 C 
BRANCH  21  23
ATOM     22  C   UNL     1       1.091 -17.144  -1.222  0.00  0.00    +0.004 C 
ATOM     23  C   UNL     1       1.097 -15.654  -0.878  0.00  0.00    -0.002 C 
ENDBRANCH  21  23
ENDBRANCH  20  21
ENDBRANCH  11  20
ENDBRANCH   1  18
BRANCH   8  24
ATOM     24  C   UNL     1      -1.645  -2.849  -0.384  0.00  0.00    +0.044 A 
ATOM     25  C   UNL     1      -0.555  -2.348   0.316  0.00  0.00    +0.024 A 
ATOM     26  C   UNL     1      -0.424  -0.987   0.506  0.00  0.00    +0.005 A 
ATOM     27  C   UNL     1      -1.383  -0.123   0.009  0.00  0.00    -0.047 A 
ATOM     28  C   UNL     1      -2.470  -0.618  -0.688  0.00  0.00    -0.046 A 
ATOM     29  C   UNL     1      -2.603  -1.979  -0.885  0.00  0.00    +0.027 A 
ATOM     30  C   UNL     1      -3.509   0.327  -1.232  0.00  0.00    +0.044 C 
ATOM     31  C   UNL     1      -1.241   1.362   0.223  0.00  0.00    +0.044 C 
ENDBRANCH   8  24
TORSDOF 5
