REMARK  Name = ZINC20731841
REMARK  5 active torsions:
REMARK  status: ('A' for Active; 'I' for Inactive)
REMARK    1  A    between atoms: C_1  and  O_2
REMARK    2  A    between atoms: O_2  and  C_3
REMARK    3  A    between atoms: C_3  and  C_5
REMARK    4  A    between atoms: C_5  and  N_6
REMARK    5  A    between atoms: C_18  and  C_20
REMARK                            x       y       z     vdW  Elec       q    Type
REMARK                         _______ _______ _______ _____ _____    ______ ____
ROOT
ATOM      1  N   UNL     1       1.084  -4.478  -1.886  0.00  0.00    -0.289 N 
ATOM      2  C   UNL     1       1.656  -3.643  -2.776  0.00  0.00    +0.303 C 
ATOM      3  O   UNL     1       1.523  -2.441  -2.655  0.00  0.00    -0.253 OA
ATOM      4  N   UNL     1       2.376  -4.141  -3.801  0.00  0.00    -0.273 N 
ATOM      5  C   UNL     1       3.104  -3.248  -4.714  0.00  0.00    +0.116 C 
ATOM      6  C   UNL     1       4.610  -3.510  -4.578  0.00  0.00    +0.074 C 
ATOM      7  C   UNL     1       4.845  -4.998  -4.571  0.00  0.00    +0.040 A 
ATOM      8  C   UNL     1       3.896  -5.927  -4.326  0.00  0.00    +0.062 A 
ATOM      9  N   UNL     1       4.467  -7.132  -4.399  0.00  0.00    -0.348 N 
ATOM     10  C   UNL     1       5.735  -6.988  -4.683  0.00  0.00    +0.171 A 
ATOM     11  N   UNL     1       6.008  -5.668  -4.799  0.00  0.00    -0.349 N 
ATOM     12  H   UNL     1       6.870  -5.274  -5.005  0.00  0.00    +0.166 HD
ATOM     13  C   UNL     1       2.457  -5.595  -4.030  0.00  0.00    +0.159 C 
ATOM     14  H   UNL     1       1.128  -5.437  -2.023  0.00  0.00    +0.151 HD
ATOM     15  H   UNL     1       4.013  -7.978  -4.263  0.00  0.00    +0.167 HD
ENDROOT
BRANCH  13  16
ATOM     16  C   UNL     1       1.595  -5.978  -5.205  0.00  0.00    +0.015 A 
ATOM     17  C   UNL     1       2.176  -6.255  -6.428  0.00  0.00    +0.028 A 
ATOM     18  C   UNL     1       1.385  -6.607  -7.507  0.00  0.00    +0.041 A 
ATOM     19  C   UNL     1       0.011  -6.682  -7.362  0.00  0.00    +0.023 A 
ATOM     20  C   UNL     1      -0.572  -6.404  -6.140  0.00  0.00    +0.040 A 
ATOM     21  C   UNL     1       0.221  -6.058  -5.059  0.00  0.00    +0.129 A 
ATOM     22  F   UNL     1      -0.348  -5.792  -3.862  0.00  0.00    -0.205 F 
ATOM     23 CL   UNL     1       2.116  -6.955  -9.043  0.00  0.00    -0.084 Cl
ENDBRANCH  13  16
BRANCH   1  24
ATOM     24  C   UNL     1       0.396  -3.937  -0.711  0.00  0.00    +0.226 C 
BRANCH  24  25
ATOM     25  C   UNL     1      -0.151  -5.070   0.117  0.00  0.00    +0.324 C 
ATOM     26  O   UNL     1       0.017  -6.213  -0.237  0.00  0.00    -0.249 OA
BRANCH  25  28
ATOM     27  C   UNL     1      -1.315  -5.933   1.984  0.00  0.00    +0.280 C 
ATOM     28  O   UNL     1      -0.824  -4.810   1.249  0.00  0.00    -0.467 OA
ENDBRANCH  25  28
ENDBRANCH  24  25
ENDBRANCH   1  24
TORSDOF 4
