REMARK  Name = ZINC49479079
REMARK  9 active torsions:
REMARK  status: ('A' for Active; 'I' for Inactive)
REMARK    1  A    between atoms: C_1  and  C_2
REMARK    2  A    between atoms: C_2  and  C_3
REMARK    3  A    between atoms: C_2  and  C_4
REMARK    4  A    between atoms: C_4  and  C_5
REMARK    5  A    between atoms: C_7  and  C_10
REMARK    6  A    between atoms: N_12  and  N_13
REMARK    7  A    between atoms: N_16  and  C_17
REMARK    8  A    between atoms: C_17  and  C_18
REMARK    9  A    between atoms: C_17  and  C_19
REMARK                            x       y       z     vdW  Elec       q    Type
REMARK                         _______ _______ _______ _____ _____    ______ ____
ROOT
ATOM      1  C   UNL     1      -1.315  -5.290   1.502  0.00  0.00    +0.279 C 
ATOM      2  O   UNL     1      -1.310  -6.455   1.152  0.00  0.00    -0.267 OA
ATOM      3  N   UNL     1      -1.274  -4.980   2.813  0.00  0.00    -0.228 N 
ATOM      4  H   UNL     1      -1.278  -4.051   3.092  0.00  0.00    +0.173 HD
ENDROOT
BRANCH   3   5
ATOM      5  N   UNL     1      -1.227  -6.000   3.772  0.00  0.00    -0.218 N 
ATOM      6  C   UNL     1      -1.187  -5.690   5.083  0.00  0.00    +0.316 C 
ATOM      7  O   UNL     1      -1.146  -6.574   5.917  0.00  0.00    -0.251 OA
ATOM      8  N   UNL     1      -1.192  -4.399   5.471  0.00  0.00    -0.296 N 
ATOM      9  H   UNL     1      -1.223  -6.929   3.494  0.00  0.00    +0.174 HD
ATOM     10  H   UNL     1      -1.225  -3.693   4.806  0.00  0.00    +0.151 HD
BRANCH   8  11
ATOM     11  C   UNL     1      -1.149  -4.062   6.896  0.00  0.00    +0.068 C 
ATOM     12  C   UNL     1      -0.553  -2.663   7.071  0.00  0.00    +0.027 C 
ATOM     13  C   UNL     1      -2.567  -4.087   7.470  0.00  0.00    +0.027 C 
ENDBRANCH   8  11
ENDBRANCH   3   5
BRANCH   1  16
ATOM     14  C   UNL     1      -1.416  -2.035  -0.119  0.00  0.00    +0.079 A 
ATOM     15  N   UNL     1      -1.371  -2.926   0.833  0.00  0.00    -0.239 NA
ATOM     16  C   UNL     1      -1.364  -4.219   0.493  0.00  0.00    +0.134 A 
ATOM     17  C   UNL     1      -1.405  -4.488  -0.849  0.00  0.00    +0.080 A 
ATOM     18  S   UNL     1      -1.457  -2.951  -1.525  0.00  0.00    -0.080 S 
BRANCH  14  19
ATOM     19  C   UNL     1      -1.433  -0.534   0.013  0.00  0.00    +0.066 C 
BRANCH  19  21
ATOM     20  C   UNL     1      -0.019   1.526   0.010  0.00  0.00    +0.007 C 
ATOM     21  C   UNL     1       0.002  -0.004   0.002  0.00  0.00    -0.011 C 
ATOM     22  C   UNL     1       0.742  -0.511   1.242  0.00  0.00    +0.007 C 
ENDBRANCH  19  21
ENDBRANCH  14  19
ENDBRANCH   1  16
TORSDOF 5
