REMARK  Name = ZINC05766706
REMARK  5 active torsions:
REMARK  status: ('A' for Active; 'I' for Inactive)
REMARK    1  A    between atoms: C_4  and  C_7
REMARK    2  A    between atoms: C_9  and  C_23
REMARK    3  A    between atoms: C_10  and  C_17
REMARK    4  A    between atoms: C_12  and  N_16
REMARK    5  A    between atoms: C_13  and  C_14
REMARK                            x       y       z     vdW  Elec       q    Type
REMARK                         _______ _______ _______ _____ _____    ______ ____
ROOT
ATOM      1  C   UNL     1       1.281   2.188   0.087  0.00  0.00    +0.108 C 
ATOM      2  C   UNL     1      -0.018   1.430   0.092  0.00  0.00    +0.085 C 
ATOM      3  C   UNL     1      -1.204   2.078   0.019  0.00  0.00    +0.151 C 
ATOM      4  O   UNL     1      -1.273   3.422  -0.050  0.00  0.00    -0.440 OA
ATOM      5  C   UNL     1      -0.192   4.127  -0.431  0.00  0.00    +0.199 C 
ATOM      6  C   UNL     1       1.054   3.596  -0.390  0.00  0.00    +0.099 C 
ENDROOT
BRANCH   1  10
ATOM      7  C   UNL     1       2.882   2.282   4.047  0.00  0.00    +0.000 A 
ATOM      8  C   UNL     1       3.605   1.700   3.022  0.00  0.00    +0.000 A 
ATOM      9  C   UNL     1       3.087   1.670   1.741  0.00  0.00    +0.004 A 
ATOM     10  C   UNL     1       1.846   2.221   1.484  0.00  0.00    -0.034 A 
ATOM     11  C   UNL     1       1.125   2.807   2.508  0.00  0.00    +0.004 A 
ATOM     12  C   UNL     1       1.641   2.833   3.790  0.00  0.00    +0.000 A 
ENDBRANCH   1  10
BRANCH   3  13
ATOM     13  C   UNL     1      -2.454   1.292   0.021  0.00  0.00    +0.018 A 
ATOM     14  C   UNL     1      -3.496   1.635   0.886  0.00  0.00    +0.011 A 
ATOM     15  C   UNL     1      -4.663   0.899   0.880  0.00  0.00    +0.001 A 
ATOM     16  C   UNL     1      -4.798  -0.181   0.026  0.00  0.00    +0.000 A 
ATOM     17  C   UNL     1      -3.768  -0.529  -0.830  0.00  0.00    +0.001 A 
ATOM     18  C   UNL     1      -2.598   0.200  -0.838  0.00  0.00    +0.011 A 
ENDBRANCH   3  13
BRANCH   5  19
ATOM     19  N   UNL     1      -0.356   5.416  -0.873  0.00  0.00    -0.328 N 
ATOM     20  H   UNL     1       0.415   5.935  -1.151  0.00  0.00    +0.145 HD
ATOM     21  H   UNL     1      -1.242   5.808  -0.908  0.00  0.00    +0.145 HD
ENDBRANCH   5  19
BRANCH   6  22
ATOM     22  C   UNL     1       2.172   4.388  -0.807  0.00  0.00    +0.101 C 
ATOM     23  N   UNL     1       3.058   5.016  -1.138  0.00  0.00    -0.191 NA
ENDBRANCH   6  22
BRANCH   2  24
ATOM     24  C   UNL     1      -0.000   0.000   0.170  0.00  0.00    +0.099 C 
ATOM     25  N   UNL     1       0.014  -1.134   0.232  0.00  0.00    -0.191 NA
ENDBRANCH   2  24
TORSDOF 5
