REMARK  Name = ZINC13510851
REMARK  6 active torsions:
REMARK  status: ('A' for Active; 'I' for Inactive)
REMARK    1  A    between atoms: C_1  and  C_2
REMARK    2  A    between atoms: C_2  and  C_3
REMARK    3  A    between atoms: C_3  and  C_4
REMARK    4  A    between atoms: C_4  and  N_5
REMARK    5  A    between atoms: C_12  and  C_14
REMARK    6  A    between atoms: N_21  and  C_24
REMARK                            x       y       z     vdW  Elec       q    Type
REMARK                         _______ _______ _______ _____ _____    ______ ____
ROOT
ATOM      1  C   UNL     1       6.662  -4.432  -3.466  0.00  0.00    +0.026 C 
ATOM      2  C   UNL     1       7.595  -4.403  -2.440  0.00  0.00    +0.102 C 
ATOM      3  C   UNL     1       7.197  -4.145  -1.048  0.00  0.00    +0.276 C 
ATOM      4  O   UNL     1       5.905  -3.926  -0.728  0.00  0.00    -0.268 OA
ATOM      5  N   UNL     1       8.136  -4.131  -0.117  0.00  0.00    -0.123 NA
ATOM      6  C   UNL     1       9.418  -4.344  -0.403  0.00  0.00    +0.340 C 
ATOM      7  O   UNL     1      10.224  -4.315   0.510  0.00  0.00    -0.250 OA
ATOM      8  N   UNL     1       9.872  -4.587  -1.641  0.00  0.00    -0.188 N 
ATOM      9  C   UNL     1       9.029  -4.637  -2.695  0.00  0.00    +0.264 C 
ATOM     10  O   UNL     1       9.440  -4.863  -3.818  0.00  0.00    -0.269 OA
ENDROOT
BRANCH   1  18
ATOM     11  N   UNL     1       1.426  -2.697  -2.700  0.00  0.00    -0.329 N 
ATOM     12  C   UNL     1       0.617  -3.733  -3.346  0.00  0.00    +0.110 C 
ATOM     13  C   UNL     1       1.629  -4.755  -3.890  0.00  0.00    +0.056 C 
ATOM     14  C   UNL     1       2.977  -4.196  -3.494  0.00  0.00    -0.024 A 
ATOM     15  C   UNL     1       2.774  -2.999  -2.813  0.00  0.00    +0.033 A 
ATOM     16  C   UNL     1       3.883  -2.280  -2.343  0.00  0.00    +0.024 A 
ATOM     17  C   UNL     1       5.147  -2.741  -2.553  0.00  0.00    +0.010 A 
ATOM     18  C   UNL     1       5.349  -3.947  -3.244  0.00  0.00    -0.024 A 
ATOM     19  C   UNL     1       4.238  -4.672  -3.706  0.00  0.00    +0.013 A 
BRANCH  11  20
ATOM     20  C   UNL     1       0.887  -1.509  -2.034  0.00  0.00    +0.105 C 
BRANCH  20  21
ATOM     21  C   UNL     1       0.757  -0.371  -3.049  0.00  0.00    +0.019 C 
BRANCH  21  23
ATOM     22  C   UNL     1       0.065   2.009  -3.368  0.00  0.00    +0.004 C 
ATOM     23  C   UNL     1       0.194   0.871  -2.353  0.00  0.00    -0.002 C 
ENDBRANCH  21  23
ENDBRANCH  20  21
ENDBRANCH  11  20
ENDBRANCH   1  18
BRANCH   8  24
ATOM     24  C   UNL     1      11.242  -4.800  -1.843  0.00  0.00    +0.046 A 
ATOM     25  C   UNL     1      12.062  -3.743  -2.216  0.00  0.00    +0.025 A 
ATOM     26  C   UNL     1      13.412  -3.954  -2.414  0.00  0.00    +0.016 A 
ATOM     27  C   UNL     1      13.948  -5.218  -2.242  0.00  0.00    +0.013 A 
ATOM     28  C   UNL     1      13.134  -6.273  -1.872  0.00  0.00    +0.016 A 
ATOM     29  C   UNL     1      11.784  -6.066  -1.667  0.00  0.00    +0.025 A 
ATOM     30  I   UNL     1      15.997  -5.535  -2.544  0.00  0.00    -0.044 I 
ENDBRANCH   8  24
TORSDOF 5
