REMARK  Name = ZINC19596015
REMARK  3 active torsions:
REMARK  status: ('A' for Active; 'I' for Inactive)
REMARK    1  A    between atoms: C_2  and  C_11
REMARK    2  A    between atoms: N_13  and  N_14
REMARK    3  A    between atoms: C_15  and  C_17
REMARK                            x       y       z     vdW  Elec       q    Type
REMARK                         _______ _______ _______ _____ _____    ______ ____
ROOT
ATOM      1  C   UNL     1       1.169   3.567   0.009  0.00  0.00    +0.260 C 
ATOM      2  O   UNL     1       0.109   4.163   0.022  0.00  0.00    -0.269 OA
ATOM      3  N   UNL     1       2.328   4.253   0.002  0.00  0.00    -0.230 N 
ATOM      4  H   UNL     1       3.174   3.778  -0.008  0.00  0.00    +0.173 HD
ENDROOT
BRANCH   1   6
ATOM      5  C   UNL     1      -0.017   1.377   0.010  0.00  0.00    +0.062 A 
ATOM      6  C   UNL     1       1.185   2.091   0.002  0.00  0.00    +0.043 A 
ATOM      7  C   UNL     1       2.401   1.404  -0.013  0.00  0.00    +0.037 A 
ATOM      8  C   UNL     1       2.414   0.025  -0.021  0.00  0.00    +0.087 A 
ATOM      9  C   UNL     1       1.220  -0.685  -0.013  0.00  0.00    +0.184 A 
ATOM     10  C   UNL     1       0.002  -0.004   0.002  0.00  0.00    +0.168 A 
ATOM     11  O   UNL     1      -1.009  -0.921   0.006  0.00  0.00    -0.453 OA
ATOM     12  C   UNL     1      -0.407  -2.158  -0.419  0.00  0.00    +0.466 C 
ATOM     13  O   UNL     1       0.969  -2.025  -0.018  0.00  0.00    -0.451 OA
ATOM     14 CL   UNL     1       3.927  -0.826  -0.040  0.00  0.00    -0.080 Cl
ENDBRANCH   1   6
BRANCH   3  15
ATOM     15  N   UNL     1       2.313   5.654   0.009  0.00  0.00    -0.234 N 
ATOM     16  C   UNL     1       3.473   6.341   0.002  0.00  0.00    +0.235 C 
ATOM     17  O   UNL     1       4.529   5.746  -0.011  0.00  0.00    -0.274 OA
ATOM     18  H   UNL     1       1.468   6.130   0.019  0.00  0.00    +0.173 HD
BRANCH  16  19
ATOM     19  C   UNL     1       3.456   7.848   0.009  0.00  0.00    +0.049 C 
ATOM     20  C   UNL     1       2.718   8.356  -1.230  0.00  0.00    +0.019 C 
ATOM     21  C   UNL     1       2.701   9.886  -1.222  0.00  0.00    -0.009 C 
ATOM     22  C   UNL     1       4.138  10.412  -1.233  0.00  0.00    +0.007 C 
ATOM     23  C   UNL     1       4.876   9.903   0.007  0.00  0.00    -0.009 C 
ATOM     24  C   UNL     1       4.893   8.374  -0.001  0.00  0.00    +0.019 C 
ATOM     25  C   UNL     1       4.161  10.399   1.265  0.00  0.00    +0.007 C 
ATOM     26  C   UNL     1       2.724   9.873   1.276  0.00  0.00    -0.009 C 
ATOM     27  C   UNL     1       1.986  10.382   0.036  0.00  0.00    +0.007 C 
ATOM     28  C   UNL     1       2.741   8.344   1.268  0.00  0.00    +0.019 C 
ENDBRANCH  16  19
ENDBRANCH   3  15
TORSDOF 3
