REMARK  Name = ZINC20511325
REMARK  5 active torsions:
REMARK  status: ('A' for Active; 'I' for Inactive)
REMARK    1  A    between atoms: C_1  and  C_2
REMARK    2  A    between atoms: C_8  and  N_10
REMARK    3  A    between atoms: C_11  and  C_13
REMARK    4  A    between atoms: N_18  and  S_20
REMARK    5  A    between atoms: S_20  and  N_23
REMARK                            x       y       z     vdW  Elec       q    Type
REMARK                         _______ _______ _______ _____ _____    ______ ____
ROOT
ATOM      1  C   UNL     1       2.300   5.366   0.765  0.00  0.00    +0.091 C 
ATOM      2  C   UNL     1       2.837   5.417   2.197  0.00  0.00    +0.015 C 
ATOM      3  C   UNL     1       4.283   5.916   2.184  0.00  0.00    +0.018 C 
ATOM      4  C   UNL     1       4.326   7.332   1.601  0.00  0.00    +0.110 C 
ATOM      5  N   UNL     1       3.680   7.319   0.282  0.00  0.00    -0.166 NA
ATOM      6  C   UNL     1       2.320   6.776   0.166  0.00  0.00    +0.123 C 
ENDROOT
BRANCH   1   8
ATOM      7  N   UNL     1       0.625   3.616   1.265  0.00  0.00    -0.312 N 
ATOM      8  C   UNL     1       0.886   4.845   0.776  0.00  0.00    +0.218 C 
ATOM      9  O   UNL     1      -0.016   5.530   0.344  0.00  0.00    -0.275 OA
ATOM     10  H   UNL     1       1.443   2.994   1.656  0.00  0.00    +0.149 HD
BRANCH   7  17
ATOM     11  C   UNL     1      -0.013   1.086   0.008  0.00  0.00    +0.009 C 
ATOM     12  C   UNL     1      -0.729   1.579   1.267  0.00  0.00    +0.006 C 
ATOM     13  C   UNL     1       0.011   1.072   2.506  0.00  0.00    +0.005 C 
ATOM     14  C   UNL     1      -0.705   1.566   3.765  0.00  0.00    +0.000 C 
ATOM     15  C   UNL     1      -0.726   3.096   3.774  0.00  0.00    +0.002 C 
ATOM     16  C   UNL     1      -1.466   3.603   2.534  0.00  0.00    +0.022 C 
ATOM     17  C   UNL     1      -0.750   3.109   1.275  0.00  0.00    +0.076 C 
ENDBRANCH   7  17
ENDBRANCH   1   8
BRANCH   5  18
ATOM     18  S   UNL     1       4.471   7.907  -1.050  0.00  0.00    +0.100 S 
ATOM     19  O   UNL     1       3.468   8.278  -1.986  0.00  0.00    -0.141 OA
ATOM     20  O   UNL     1       5.444   8.826  -0.572  0.00  0.00    -0.141 OA
BRANCH  18  21
ATOM     21  N   UNL     1       5.303   6.644  -1.723  0.00  0.00    -0.166 NA
ATOM     22  C   UNL     1       6.684   6.355  -1.313  0.00  0.00    +0.116 C 
ATOM     23  C   UNL     1       7.572   6.305  -2.555  0.00  0.00    +0.082 C 
ATOM     24  C   UNL     1       6.987   5.308  -3.558  0.00  0.00    +0.173 C 
ATOM     25  C   UNL     1       5.585   5.755  -3.978  0.00  0.00    +0.082 C 
ATOM     26  C   UNL     1       4.676   5.795  -2.745  0.00  0.00    +0.116 C 
ATOM     27  O   UNL     1       7.833   5.232  -4.711  0.00  0.00    -0.346 OA
ATOM     28  C   UNL     1       8.274   3.864  -4.828  0.00  0.00    +0.191 C 
ATOM     29  C   UNL     1       7.208   3.081  -4.021  0.00  0.00    +0.191 C 
ATOM     30  O   UNL     1       6.911   4.009  -2.950  0.00  0.00    -0.346 OA
ENDBRANCH  18  21
ENDBRANCH   5  18
TORSDOF 4
