REMARK  Name = ZINC64568649
REMARK  16 active torsions:
REMARK  status: ('A' for Active; 'I' for Inactive)
REMARK    1  A    between atoms: C_1  and  C_2
REMARK    2  A    between atoms: C_5  and  N_13
REMARK    3  A    between atoms: C_7  and  S_8
REMARK    4  A    between atoms: S_8  and  N_11
REMARK    5  A    between atoms: N_11  and  C_12
REMARK    6  A    between atoms: C_14  and  C_16
REMARK    7  A    between atoms: C_16  and  N_17
REMARK    8  A    between atoms: N_17  and  C_18
REMARK    9  A    between atoms: N_17  and  C_24
REMARK   10  A    between atoms: C_18  and  C_19
REMARK   11  A    between atoms: C_19  and  C_20
REMARK   12  A    between atoms: C_20  and  O_22
REMARK   13  A    between atoms: O_22  and  C_23
REMARK   14  A    between atoms: C_24  and  C_25
REMARK   15  A    between atoms: C_25  and  C_26
REMARK   16  A    between atoms: C_25  and  C_27
REMARK                            x       y       z     vdW  Elec       q    Type
REMARK                         _______ _______ _______ _____ _____    ______ ____
ROOT
ATOM      1  N   UNL     1      -0.505  -3.955   0.046  0.00  0.00    -0.287 N 
ATOM      2  C   UNL     1      -0.617  -4.374  -1.230  0.00  0.00    +0.201 C 
ATOM      3  O   UNL     1      -0.565  -3.572  -2.139  0.00  0.00    -0.278 OA
ATOM      4  H   UNL     1      -0.475  -4.602   0.768  0.00  0.00    +0.155 HD
ENDROOT
BRANCH   1   9
ATOM      5  C   UNL     1      -0.203   1.593   1.195  0.00  0.00    +0.046 C 
ATOM      6  C   UNL     1      -0.283   0.119   0.890  0.00  0.00    -0.024 A 
ATOM      7  C   UNL     1      -1.059  -0.326  -0.165  0.00  0.00    +0.007 A 
ATOM      8  C   UNL     1      -1.135  -1.675  -0.447  0.00  0.00    +0.023 A 
ATOM      9  C   UNL     1      -0.430  -2.586   0.329  0.00  0.00    +0.035 A 
ATOM     10  C   UNL     1       0.349  -2.136   1.387  0.00  0.00    +0.052 A 
ATOM     11  C   UNL     1       0.424  -0.784   1.661  0.00  0.00    +0.110 A 
BRANCH  11  12
ATOM     12  S   UNL     1       1.417  -0.212   2.999  0.00  0.00    +0.058 S 
ATOM     13  O   UNL     1       2.002  -1.363   3.593  0.00  0.00    -0.153 OA
ATOM     14  O   UNL     1       2.197   0.864   2.494  0.00  0.00    -0.153 OA
BRANCH  12  15
ATOM     15  N   UNL     1       0.393   0.435   4.128  0.00  0.00    -0.193 NA
ATOM     16  C   UNL     1      -0.616  -0.411   4.771  0.00  0.00    +0.127 C 
ATOM     17  H   UNL     1       0.460   1.373   4.363  0.00  0.00    +0.148 HD
ENDBRANCH  12  15
ENDBRANCH  11  12
ENDBRANCH   1   9
BRANCH   2  18
ATOM     18  C   UNL     1      -0.809  -5.838  -1.528  0.00  0.00    +0.019 C 
BRANCH  18  19
ATOM     19  N   UNL     1      -0.903  -6.034  -2.981  0.00  0.00    +0.386 N 
ATOM     20  H   UNL     1      -1.637  -5.449  -3.352  0.00  0.00    -0.081 HD
BRANCH  19  21
ATOM     21  C   UNL     1      -1.210  -7.442  -3.266  0.00  0.00    -0.067 C 
BRANCH  21  22
ATOM     22  C   UNL     1      -2.605  -7.778  -2.737  0.00  0.00    +0.102 C 
BRANCH  22  23
ATOM     23  C   UNL     1      -2.873  -9.249  -2.926  0.00  0.00    +0.305 C 
ATOM     24  O   UNL     1      -2.034  -9.956  -3.433  0.00  0.00    -0.251 OA
BRANCH  23  25
ATOM     25  O   UNL     1      -4.044  -9.774  -2.532  0.00  0.00    -0.468 OA
ATOM     26  C   UNL     1      -4.231 -11.175  -2.742  0.00  0.00    +0.280 C 
ENDBRANCH  23  25
ENDBRANCH  22  23
ENDBRANCH  21  22
ENDBRANCH  19  21
BRANCH  19  27
ATOM     27  C   UNL     1       0.375  -5.674  -3.608  0.00  0.00    -0.075 C 
BRANCH  27  28
ATOM     28  C   UNL     1       0.233  -5.736  -5.130  0.00  0.00    -0.034 C 
ATOM     29  C   UNL     1      -0.776  -4.682  -5.591  0.00  0.00    +0.005 C 
ATOM     30  C   UNL     1       1.590  -5.462  -5.781  0.00  0.00    +0.005 C 
ENDBRANCH  27  28
ENDBRANCH  19  27
ENDBRANCH  18  19
ENDBRANCH   2  18
TORSDOF 11
