REMARK  Name = ZINC14478831
REMARK  7 active torsions:
REMARK  status: ('A' for Active; 'I' for Inactive)
REMARK    1  A    between atoms: C_1  and  C_2
REMARK    2  A    between atoms: C_2  and  O_3
REMARK    3  A    between atoms: O_3  and  C_4
REMARK    4  A    between atoms: C_7  and  N_10
REMARK    5  A    between atoms: C_11  and  C_13
REMARK    6  A    between atoms: C_20  and  C_29
REMARK    7  A    between atoms: C_34  and  C_35
REMARK                            x       y       z     vdW  Elec       q    Type
REMARK                         _______ _______ _______ _____ _____    ______ ____
ROOT
ATOM      1  C   UNL     1      -4.546   2.156  -1.724  0.00  0.00    +0.058 A 
ATOM      2  C   UNL     1      -4.881   0.811  -1.863  0.00  0.00    +0.015 A 
ATOM      3  C   UNL     1      -4.024  -0.165  -1.405  0.00  0.00    +0.001 A 
ATOM      4  C   UNL     1      -2.831   0.194  -0.799  0.00  0.00    +0.006 A 
ATOM      5  C   UNL     1      -2.486   1.519  -0.648  0.00  0.00    -0.019 A 
ATOM      6  C   UNL     1      -3.330   2.531  -1.115  0.00  0.00    +0.044 A 
ATOM      7  N   UNL     1      -3.041   3.883  -1.040  0.00  0.00    -0.336 N 
ATOM      8  C   UNL     1      -1.800   4.276  -0.346  0.00  0.00    +0.105 C 
ATOM      9  C   UNL     1      -0.757   3.234  -0.694  0.00  0.00    +0.029 C 
ATOM     10  C   UNL     1      -1.224   1.924   0.009  0.00  0.00    +0.049 C 
ATOM     11  C   UNL     1      -0.006   1.079  -0.007  0.00  0.00    -0.023 C 
ATOM     12  C   UNL     1       1.060   1.873  -0.008  0.00  0.00    -0.030 C 
ATOM     13  C   UNL     1       0.618   3.338  -0.025  0.00  0.00    +0.033 C 
ATOM     14  H   UNL     1      -3.831   4.403  -0.690  0.00  0.00    +0.147 HD
ENDROOT
BRANCH   8  15
ATOM     15  C   UNL     1      -2.029   4.296   1.143  0.00  0.00    -0.024 A 
ATOM     16  C   UNL     1      -3.068   3.567   1.692  0.00  0.00    +0.006 A 
ATOM     17  C   UNL     1      -3.276   3.581   3.058  0.00  0.00    +0.000 A 
ATOM     18  C   UNL     1      -2.451   4.332   3.875  0.00  0.00    +0.000 A 
ATOM     19  C   UNL     1      -1.416   5.065   3.326  0.00  0.00    +0.004 A 
ATOM     20  C   UNL     1      -1.205   5.047   1.960  0.00  0.00    -0.045 A 
ATOM     21  C   UNL     1      -0.077   5.847   1.361  0.00  0.00    +0.044 C 
ENDBRANCH   8  15
BRANCH   1  23
ATOM     22  N   UNL     1      -6.633   2.842  -2.797  0.00  0.00    -0.281 N 
ATOM     23  C   UNL     1      -5.469   3.195  -2.216  0.00  0.00    +0.250 C 
ATOM     24  O   UNL     1      -5.181   4.371  -2.096  0.00  0.00    -0.270 OA
ATOM     25  H   UNL     1      -6.833   1.906  -2.953  0.00  0.00    +0.155 HD
BRANCH  22  29
ATOM     26  C   UNL     1      -9.373   5.775  -3.927  0.00  0.00    +0.121 A 
ATOM     27  C   UNL     1      -8.011   6.024  -4.024  0.00  0.00    +0.047 A 
ATOM     28  C   UNL     1      -7.103   5.053  -3.650  0.00  0.00    +0.027 A 
ATOM     29  C   UNL     1      -7.553   3.828  -3.176  0.00  0.00    +0.034 A 
ATOM     30  C   UNL     1      -8.916   3.578  -3.084  0.00  0.00    +0.027 A 
ATOM     31  C   UNL     1      -9.823   4.551  -3.453  0.00  0.00    +0.047 A 
BRANCH  26  32
ATOM     32  O   UNL     1     -10.266   6.731  -4.296  0.00  0.00    -0.492 OA
BRANCH  32  34
ATOM     33  C   UNL     1     -12.498   7.597  -4.629  0.00  0.00    +0.048 C 
ATOM     34  C   UNL     1     -11.652   6.407  -4.170  0.00  0.00    +0.225 C 
ENDBRANCH  32  34
ENDBRANCH  26  32
ENDBRANCH  22  29
ENDBRANCH   1  23
TORSDOF 5
