REMARK  Name = ZINC48606757
REMARK  5 active torsions:
REMARK  status: ('A' for Active; 'I' for Inactive)
REMARK    1  A    between atoms: C_1  and  N_2
REMARK    2  A    between atoms: N_2  and  C_3
REMARK    3  A    between atoms: C_3  and  C_4
REMARK    4  A    between atoms: C_9  and  O_10
REMARK    5  A    between atoms: C_11  and  C_13
REMARK                            x       y       z     vdW  Elec       q    Type
REMARK                         _______ _______ _______ _____ _____    ______ ____
ROOT
ATOM      1  C   UNL     1      -0.018   1.461   0.010  0.00  0.00    +0.132 C 
ATOM      2  N   UNL     1       0.002  -0.004   0.002  0.00  0.00    -0.300 N 
ATOM      3  C   UNL     1       0.000  -0.672  -1.169  0.00  0.00    +0.219 C 
ATOM      4  O   UNL     1       0.017  -1.884  -1.175  0.00  0.00    -0.275 OA
ENDROOT
BRANCH   3   5
ATOM      5  C   UNL     1      -0.023   0.089  -2.470  0.00  0.00    +0.079 C 
ATOM      6  C   UNL     1      -1.326   0.910  -2.591  0.00  0.00    +0.016 C 
ATOM      7  C   UNL     1      -2.034   0.342  -3.859  0.00  0.00    -0.010 C 
ATOM      8  C   UNL     1      -1.162   0.844  -5.050  0.00  0.00    +0.004 C 
ATOM      9  C   UNL     1       0.151   0.037  -4.941  0.00  0.00    +0.004 C 
ATOM     10  C   UNL     1      -0.062  -0.898  -3.676  0.00  0.00    +0.001 C 
ATOM     11  C   UNL     1      -1.608  -1.166  -3.777  0.00  0.00    +0.008 C 
ENDBRANCH   3   5
BRANCH   2  12
ATOM     12  C   UNL     1       0.024  -0.743   1.267  0.00  0.00    +0.146 C 
BRANCH  12  13
ATOM     13  C   UNL     1      -1.389  -1.016   1.714  0.00  0.00    +0.011 A 
ATOM     14  C   UNL     1      -1.975  -0.219   2.678  0.00  0.00    +0.009 A 
ATOM     15  C   UNL     1      -3.271  -0.469   3.089  0.00  0.00    +0.001 A 
ATOM     16  C   UNL     1      -3.984  -1.517   2.536  0.00  0.00    +0.004 A 
ATOM     17  C   UNL     1      -3.403  -2.317   1.572  0.00  0.00    +0.046 A 
ATOM     18  C   UNL     1      -2.104  -2.064   1.154  0.00  0.00    +0.122 A 
BRANCH  18  19
ATOM     19  O   UNL     1      -1.532  -2.846   0.201  0.00  0.00    -0.506 OA
ATOM     20  H   UNL     1      -1.062  -3.615   0.553  0.00  0.00    +0.292 HD
ENDBRANCH  18  19
ENDBRANCH  12  13
ENDBRANCH   2  12
TORSDOF 4
