REMARK  Name = ZINC49570855
REMARK  9 active torsions:
REMARK  status: ('A' for Active; 'I' for Inactive)
REMARK    1  A    between atoms: C_1  and  C_2
REMARK    2  A    between atoms: C_2  and  C_4
REMARK    3  A    between atoms: C_2  and  N_11
REMARK    4  A    between atoms: C_4  and  C_5
REMARK    5  A    between atoms: C_5  and  C_6
REMARK    6  A    between atoms: N_11  and  S_12
REMARK    7  A    between atoms: S_12  and  C_15
REMARK    8  A    between atoms: C_18  and  C_20
REMARK    9  A    between atoms: C_20  and  N_21
REMARK                            x       y       z     vdW  Elec       q    Type
REMARK                         _______ _______ _______ _____ _____    ______ ____
ROOT
ATOM      1  S   UNL     1       2.300  -0.849  -1.146  0.00  0.00    +0.065 S 
ATOM      2  O   UNL     1       2.660  -1.296  -2.446  0.00  0.00    -0.153 OA
ATOM      3  O   UNL     1       2.947   0.245  -0.511  0.00  0.00    -0.153 OA
ENDROOT
BRANCH   1   4
ATOM      4  C   UNL     1       2.478  -2.233  -0.071  0.00  0.00    +0.143 A 
ATOM      5  C   UNL     1       2.448  -3.555  -0.369  0.00  0.00    +0.036 A 
ATOM      6  C   UNL     1       2.612  -4.476   0.649  0.00  0.00    +0.011 A 
ATOM      7  C   UNL     1       2.798  -4.029   1.915  0.00  0.00    -0.026 A 
ATOM      8  S   UNL     1       2.752  -2.258   1.693  0.00  0.00    -0.075 S 
BRANCH   7   9
ATOM      9  C   UNL     1       2.999  -4.822   3.182  0.00  0.00    -0.043 C 
BRANCH   9  10
ATOM     10  N   UNL     1       4.433  -5.064   3.386  0.00  0.00    +0.381 N 
ATOM     11  H   UNL     1       4.802  -5.582   2.603  0.00  0.00    -0.090 HD
ATOM     12  H   UNL     1       4.916  -4.181   3.462  0.00  0.00    -0.090 HD
ATOM     13  H   UNL     1       4.567  -5.595   4.234  0.00  0.00    -0.090 HD
ENDBRANCH   9  10
ENDBRANCH   7   9
ENDBRANCH   1   4
BRANCH   1  14
ATOM     14  N   UNL     1       0.688  -0.476  -1.203  0.00  0.00    -0.187 NA
ATOM     15  H   UNL     1       0.197  -0.571  -2.035  0.00  0.00    +0.148 HD
BRANCH  14  17
ATOM     16  C   UNL     1      -0.019   1.526   0.010  0.00  0.00    +0.025 C 
ATOM     17  C   UNL     1       0.002  -0.004   0.002  0.00  0.00    +0.074 C 
BRANCH  17  18
ATOM     18  C   UNL     1      -1.433  -0.534   0.013  0.00  0.00    +0.028 C 
BRANCH  18  19
ATOM     19  C   UNL     1      -1.413  -2.059   0.130  0.00  0.00    +0.076 C 
BRANCH  19  20
ATOM     20  C   UNL     1      -2.827  -2.581   0.141  0.00  0.00    +0.105 A 
ATOM     21  C   UNL     1      -3.541  -2.941  -0.941  0.00  0.00    +0.044 A 
ATOM     22  C   UNL     1      -4.806  -3.367  -0.474  0.00  0.00    +0.041 A 
ATOM     23  C   UNL     1      -4.789  -3.241   0.865  0.00  0.00    +0.195 A 
ATOM     24  O   UNL     1      -3.586  -2.770   1.232  0.00  0.00    -0.468 OA
ENDBRANCH  19  20
ENDBRANCH  18  19
ENDBRANCH  17  18
ENDBRANCH  14  17
ENDBRANCH   1  14
TORSDOF 8
