REMARK  Name = ZINC19296798
REMARK  6 active torsions:
REMARK  status: ('A' for Active; 'I' for Inactive)
REMARK    1  A    between atoms: C_1  and  C_2
REMARK    2  A    between atoms: C_7  and  N_8
REMARK    3  A    between atoms: C_13  and  C_28
REMARK    4  A    between atoms: C_17  and  S_18
REMARK    5  A    between atoms: S_18  and  C_19
REMARK    6  A    between atoms: C_19  and  C_20
REMARK                            x       y       z     vdW  Elec       q    Type
REMARK                         _______ _______ _______ _____ _____    ______ ____
ROOT
ATOM      1  N   UNL     1      -1.201  -0.723   0.009  0.00  0.00    -0.255 N 
ATOM      2  C   UNL     1      -1.781  -1.050  -1.160  0.00  0.00    +0.267 A 
ATOM      3  O   UNL     1      -1.266  -0.725  -2.216  0.00  0.00    -0.267 OA
ATOM      4  C   UNL     1      -3.008  -1.788  -1.148  0.00  0.00    +0.073 A 
ATOM      5  C   UNL     1      -3.777  -2.235  -2.237  0.00  0.00    +0.031 A 
ATOM      6  C   UNL     1      -4.925  -2.923  -2.017  0.00  0.00    +0.022 A 
ATOM      7  S   UNL     1      -5.010  -2.994  -0.236  0.00  0.00    -0.068 S 
ATOM      8  C   UNL     1      -3.517  -2.106   0.129  0.00  0.00    +0.117 A 
ATOM      9  N   UNL     1      -2.896  -1.748   1.245  0.00  0.00    -0.215 NA
ATOM     10  C   UNL     1      -1.765  -1.072   1.204  0.00  0.00    +0.178 A 
ENDROOT
BRANCH   1  17
ATOM     11  C   UNL     1      -1.331   2.120   0.020  0.00  0.00    +0.046 C 
ATOM     12  C   UNL     1      -0.017   1.384   0.010  0.00  0.00    -0.026 A 
ATOM     13  C   UNL     1       1.171   2.090   0.002  0.00  0.00    +0.005 A 
ATOM     14  C   UNL     1       2.377   1.415  -0.013  0.00  0.00    +0.000 A 
ATOM     15  C   UNL     1       2.399   0.032  -0.021  0.00  0.00    +0.002 A 
ATOM     16  C   UNL     1       1.216  -0.679  -0.013  0.00  0.00    +0.026 A 
ATOM     17  C   UNL     1       0.002  -0.004   0.002  0.00  0.00    +0.055 A 
ENDBRANCH   1  17
BRANCH   6  18
ATOM     18  C   UNL     1      -5.872  -3.478  -3.007  0.00  0.00    -0.011 A 
ATOM     19  C   UNL     1      -5.633  -3.314  -4.373  0.00  0.00    +0.009 A 
ATOM     20  C   UNL     1      -6.518  -3.839  -5.292  0.00  0.00    +0.001 A 
ATOM     21  C   UNL     1      -7.646  -4.516  -4.863  0.00  0.00    +0.000 A 
ATOM     22  C   UNL     1      -7.891  -4.677  -3.510  0.00  0.00    +0.001 A 
ATOM     23  C   UNL     1      -7.011  -4.162  -2.581  0.00  0.00    +0.009 A 
ENDBRANCH   6  18
BRANCH  10  24
ATOM     24  S   UNL     1      -0.970  -0.615   2.708  0.00  0.00    -0.079 S 
BRANCH  24  25
ATOM     25  C   UNL     1      -2.131  -1.321   3.904  0.00  0.00    +0.153 C 
BRANCH  25  26
ATOM     26  C   UNL     1      -1.642  -1.045   5.303  0.00  0.00    +0.146 A 
ATOM     27  N   UNL     1      -0.846  -1.911   5.905  0.00  0.00    -0.199 NA
ATOM     28  C   UNL     1      -0.407  -1.668   7.138  0.00  0.00    +0.217 A 
ATOM     29  N   UNL     1      -0.780  -0.559   7.768  0.00  0.00    -0.181 NA
ATOM     30  C   UNL     1      -1.585   0.306   7.160  0.00  0.00    +0.217 A 
ATOM     31  N   UNL     1      -2.014   0.059   5.925  0.00  0.00    -0.199 NA
ATOM     32  N   UNL     1      -1.974   1.460   7.810  0.00  0.00    -0.327 N 
ATOM     33  N   UNL     1       0.428  -2.570   7.765  0.00  0.00    -0.327 N 
ATOM     34  H   UNL     1      -2.641   2.176   7.307  0.00  0.00    +0.145 HD
ATOM     35  H   UNL     1      -1.619   1.663   8.831  0.00  0.00    +0.145 HD
ATOM     36  H   UNL     1       0.790  -2.369   8.784  0.00  0.00    +0.145 HD
ATOM     37  H   UNL     1       0.733  -3.491   7.245  0.00  0.00    +0.145 HD
ENDBRANCH  25  26
ENDBRANCH  24  25
ENDBRANCH  10  24
TORSDOF 5
