REMARK  Name = ZINC64227986
REMARK  8 active torsions:
REMARK  status: ('A' for Active; 'I' for Inactive)
REMARK    1  A    between atoms: C_1  and  C_2
REMARK    2  A    between atoms: C_2  and  C_22
REMARK    3  A    between atoms: C_9  and  C_12
REMARK    4  A    between atoms: C_15  and  O_20
REMARK    5  A    between atoms: C_16  and  O_18
REMARK    6  A    between atoms: O_18  and  C_19
REMARK    7  A    between atoms: O_20  and  C_21
REMARK    8  A    between atoms: C_22  and  O_23
REMARK                            x       y       z     vdW  Elec       q    Type
REMARK                         _______ _______ _______ _____ _____    ______ ____
ROOT
ATOM      1  C   UNL     1      -0.019   1.526   0.010  0.00  0.00    +0.032 C 
ATOM      2  C   UNL     1       0.002  -0.004   0.002  0.00  0.00    +0.065 C 
ATOM      3  C   UNL     1       0.823  -0.525  -1.199  0.00  0.00    +0.186 C 
ATOM      4  O   UNL     1       2.134  -0.771  -0.637  0.00  0.00    -0.357 OA
ATOM      5  C   UNL     1       1.858  -1.294   0.676  0.00  0.00    +0.121 C 
ATOM      6  N   UNL     1       0.715  -0.517   1.195  0.00  0.00    -0.279 NA
ATOM      7  C   UNL     1       3.075  -1.104   1.577  0.00  0.00    +0.052 C 
ATOM      8  C   UNL     1       4.256  -1.897   1.013  0.00  0.00    +0.012 C 
ATOM      9  C   UNL     1       3.886  -3.379   0.939  0.00  0.00    +0.019 C 
ATOM     10  C   UNL     1       2.676  -3.559   0.020  0.00  0.00    +0.012 C 
ATOM     11  C   UNL     1       1.489  -2.771   0.581  0.00  0.00    +0.052 C 
ATOM     12  H   UNL     1       1.030   0.241   1.782  0.00  0.00    +0.125 HD
ENDROOT
BRANCH   9  13
ATOM     13  C   UNL     1       5.052  -4.162   0.392  0.00  0.00    -0.041 A 
ATOM     14  C   UNL     1       5.548  -3.872  -0.866  0.00  0.00    +0.008 A 
ATOM     15  C   UNL     1       6.617  -4.587  -1.372  0.00  0.00    +0.049 A 
ATOM     16  C   UNL     1       7.195  -5.596  -0.618  0.00  0.00    +0.161 A 
ATOM     17  C   UNL     1       6.696  -5.887   0.648  0.00  0.00    +0.162 A 
ATOM     18  C   UNL     1       5.627  -5.164   1.151  0.00  0.00    +0.053 A 
BRANCH  17  19
ATOM     19  O   UNL     1       7.260  -6.876   1.391  0.00  0.00    -0.491 OA
ATOM     20  C   UNL     1       6.696  -7.120   2.681  0.00  0.00    +0.277 C 
ENDBRANCH  17  19
BRANCH  16  21
ATOM     21  O   UNL     1       8.247  -6.300  -1.115  0.00  0.00    -0.491 OA
ATOM     22  C   UNL     1       8.706  -5.947  -2.421  0.00  0.00    +0.277 C 
ENDBRANCH  16  21
ENDBRANCH   9  13
BRANCH   2  23
ATOM     23  C   UNL     1      -1.424  -0.555  -0.045  0.00  0.00    +0.180 C 
BRANCH  23  24
ATOM     24  O   UNL     1      -2.081  -0.078  -1.221  0.00  0.00    -0.393 OA
ATOM     25  H   UNL     1      -2.992  -0.389  -1.317  0.00  0.00    +0.209 HD
ENDBRANCH  23  24
ENDBRANCH   2  23
TORSDOF 5
