REMARK  Name = ZINC39631499
REMARK  11 active torsions:
REMARK  status: ('A' for Active; 'I' for Inactive)
REMARK    1  A    between atoms: C_1  and  C_2
REMARK    2  A    between atoms: C_2  and  C_4
REMARK    3  A    between atoms: C_2  and  N_11
REMARK    4  A    between atoms: C_4  and  C_5
REMARK    5  A    between atoms: C_5  and  C_6
REMARK    6  A    between atoms: C_6  and  C_7
REMARK    7  A    between atoms: C_7  and  C_8
REMARK    8  A    between atoms: C_7  and  C_9
REMARK    9  A    between atoms: C_7  and  O_10
REMARK   10  A    between atoms: C_12  and  C_14
REMARK   11  A    between atoms: C_25  and  C_27
REMARK                            x       y       z     vdW  Elec       q    Type
REMARK                         _______ _______ _______ _____ _____    ______ ____
ROOT
ATOM      1  C   UNL     1       3.891   1.895  11.329  0.00  0.00    +0.100 C 
ATOM      2  C   UNL     1       4.902   0.828  11.805  0.00  0.00    +0.121 C 
ATOM      3  N   UNL     1       6.114   1.070  10.988  0.00  0.00    -0.296 N 
ATOM      4  C   UNL     1       6.212   2.547  10.902  0.00  0.00    +0.115 C 
ATOM      5  C   UNL     1       4.754   3.023  10.740  0.00  0.00    -0.004 C 
ATOM      6  C   UNL     1       4.532   4.318  11.515  0.00  0.00    -0.010 C 
ATOM      7  C   UNL     1       5.357   5.439  10.875  0.00  0.00    -0.082 C 
ATOM      8  N   UNL     1       4.952   5.608   9.475  0.00  0.00    +0.379 N 
ATOM      9  C   UNL     1       5.255   4.389   8.715  0.00  0.00    -0.082 C 
ATOM     10  C   UNL     1       4.426   3.224   9.264  0.00  0.00    -0.010 C 
ATOM     11  C   UNL     1       6.942   0.155  10.446  0.00  0.00    +0.247 C 
ATOM     12  O   UNL     1       7.924   0.514   9.827  0.00  0.00    -0.270 OA
ATOM     13  H   UNL     1       3.961   5.791   9.432  0.00  0.00    -0.086 HD
ATOM     14  H   UNL     1       5.453   6.386   9.073  0.00  0.00    -0.086 HD
ENDROOT
BRANCH  11  15
ATOM     15  C   UNL     1       6.655  -1.286  10.605  0.00  0.00    +0.037 A 
ATOM     16  C   UNL     1       5.576  -1.864   9.933  0.00  0.00    +0.014 A 
ATOM     17  C   UNL     1       5.313  -3.210  10.085  0.00  0.00    +0.016 A 
ATOM     18  C   UNL     1       6.117  -3.987  10.902  0.00  0.00    +0.018 A 
ATOM     19  C   UNL     1       7.188  -3.419  11.571  0.00  0.00    +0.016 A 
ATOM     20  C   UNL     1       7.465  -2.076  11.423  0.00  0.00    +0.014 A 
ATOM     21 BR   UNL     1       5.749  -5.830  11.106  0.00  0.00    -0.050 Br
ENDBRANCH  11  15
BRANCH   1  23
ATOM     22  N   UNL     1       1.767   1.863  10.061  0.00  0.00    -0.312 N 
ATOM     23  C   UNL     1       2.983   1.322  10.271  0.00  0.00    +0.218 C 
ATOM     24  O   UNL     1       3.347   0.374   9.608  0.00  0.00    -0.275 OA
ATOM     25  H   UNL     1       1.503   2.664  10.541  0.00  0.00    +0.149 HD
BRANCH  22  27
ATOM     26  C   UNL     1       1.167   1.730   7.694  0.00  0.00    +0.028 C 
ATOM     27  C   UNL     1       0.843   1.243   9.108  0.00  0.00    +0.070 C 
BRANCH  27  28
ATOM     28  C   UNL     1      -0.593   1.630   9.465  0.00  0.00    +0.022 C 
BRANCH  28  29
ATOM     29  C   UNL     1      -0.968   1.014  10.814  0.00  0.00    +0.005 C 
BRANCH  29  30
ATOM     30  C   UNL     1      -2.444   1.288  11.108  0.00  0.00    +0.034 C 
BRANCH  30  31
ATOM     31  C   UNL     1      -2.835   0.616  12.426  0.00  0.00    +0.061 C 
ATOM     32  C   UNL     1      -3.270   1.682  13.433  0.00  0.00    +0.041 C 
ATOM     33  C   UNL     1      -3.991  -0.355  12.179  0.00  0.00    +0.041 C 
BRANCH  31  34
ATOM     34  O   UNL     1      -1.714  -0.101  12.946  0.00  0.00    -0.389 OA
ATOM     35  H   UNL     1      -0.971   0.463  13.202  0.00  0.00    +0.210 HD
ENDBRANCH  31  34
ENDBRANCH  30  31
ENDBRANCH  29  30
ENDBRANCH  28  29
ENDBRANCH  27  28
ENDBRANCH  22  27
ENDBRANCH   1  23
TORSDOF 8
