REMARK  Name = ZINC12908728
REMARK  6 active torsions:
REMARK  status: ('A' for Active; 'I' for Inactive)
REMARK    1  A    between atoms: C_8  and  C_10
REMARK    2  A    between atoms: N_12  and  C_13
REMARK    3  A    between atoms: C_13  and  C_14
REMARK    4  A    between atoms: N_16  and  C_17
REMARK    5  A    between atoms: C_21  and  S_23
REMARK    6  A    between atoms: S_23  and  N_26
REMARK                            x       y       z     vdW  Elec       q    Type
REMARK                         _______ _______ _______ _____ _____    ______ ____
ROOT
ATOM      1  C   UNL     1       6.277  -7.964   0.486  0.00  0.00    +0.234 C 
ATOM      2  O   UNL     1       6.848  -8.899   1.009  0.00  0.00    -0.274 OA
ATOM      3  N   UNL     1       6.990  -6.982  -0.101  0.00  0.00    -0.284 N 
ATOM      4  H   UNL     1       6.535  -6.271  -0.577  0.00  0.00    +0.155 HD
ENDROOT
BRANCH   3   5
ATOM      5  C   UNL     1       8.387  -6.990  -0.024  0.00  0.00    +0.035 A 
ATOM      6  C   UNL     1       9.085  -5.794   0.077  0.00  0.00    +0.023 A 
ATOM      7  C   UNL     1      10.464  -5.805   0.152  0.00  0.00    +0.004 A 
ATOM      8  C   UNL     1      11.150  -7.006   0.127  0.00  0.00    +0.029 A 
ATOM      9  C   UNL     1      10.458  -8.199   0.027  0.00  0.00    +0.114 A 
ATOM     10  C   UNL     1       9.078  -8.195  -0.043  0.00  0.00    +0.052 A 
BRANCH   9  11
ATOM     11  S   UNL     1      11.336  -9.726  -0.005  0.00  0.00    +0.100 S 
ATOM     12  O   UNL     1      10.491 -10.667  -0.653  0.00  0.00    -0.146 OA
ATOM     13  O   UNL     1      12.646  -9.431  -0.470  0.00  0.00    -0.146 OA
BRANCH  11  14
ATOM     14  N   UNL     1      11.494 -10.233   1.563  0.00  0.00    -0.118 NA
ATOM     15  C   UNL     1      12.107 -11.341   1.826  0.00  0.00    +0.117 C 
ATOM     16  N   UNL     1      12.669 -12.173   0.895  0.00  0.00    -0.331 N 
ATOM     17  C   UNL     1      13.665 -13.034   1.554  0.00  0.00    +0.103 C 
ATOM     18  C   UNL     1      13.133 -13.207   2.994  0.00  0.00    +0.026 C 
ATOM     19  C   UNL     1      12.318 -11.915   3.210  0.00  0.00    +0.074 C 
ATOM     20  H   UNL     1      12.448 -12.191  -0.049  0.00  0.00    +0.147 HD
ENDBRANCH  11  14
ENDBRANCH   9  11
ENDBRANCH   3   5
BRANCH   1  21
ATOM     21  C   UNL     1       4.772  -7.901   0.494  0.00  0.00    +0.200 C 
BRANCH  21  24
ATOM     22  C   UNL     1       2.905  -9.234   1.316  0.00  0.00    +0.253 C 
ATOM     23  O   UNL     1       2.146  -8.400   0.858  0.00  0.00    -0.270 OA
ATOM     24  N   UNL     1       4.237  -9.076   1.187  0.00  0.00    -0.302 N 
ATOM     25  H   UNL     1       4.842  -9.740   1.552  0.00  0.00    +0.150 HD
BRANCH  22  33
ATOM     26  C   UNL     1      -0.646 -13.610   3.943  0.00  0.00    +0.001 A 
ATOM     27  C   UNL     1       0.465 -14.347   4.336  0.00  0.00    +0.001 A 
ATOM     28  C   UNL     1       1.729 -13.884   4.032  0.00  0.00    +0.016 A 
ATOM     29  C   UNL     1       1.872 -12.698   3.344  0.00  0.00    +0.021 A 
ATOM     30  C   UNL     1       0.759 -11.928   2.932  0.00  0.00    +0.008 A 
ATOM     31  C   UNL     1      -0.521 -12.440   3.265  0.00  0.00    +0.010 A 
ATOM     32  C   UNL     1       1.069 -10.742   2.240  0.00  0.00    +0.068 A 
ATOM     33  C   UNL     1       2.369 -10.411   2.011  0.00  0.00    +0.093 A 
ATOM     34  S   UNL     1       3.262 -11.760   2.763  0.00  0.00    -0.082 S 
ATOM     35 CL   UNL     1      -0.204  -9.704   1.678  0.00  0.00    -0.082 Cl
ENDBRANCH  22  33
ENDBRANCH  21  24
ENDBRANCH   1  21
TORSDOF 6
