REMARK  Name = ZINC65167969
REMARK  4 active torsions:
REMARK  status: ('A' for Active; 'I' for Inactive)
REMARK    1  A    between atoms: C_6  and  S_7
REMARK    2  A    between atoms: S_7  and  N_10
REMARK    3  A    between atoms: C_13  and  C_16
REMARK    4  A    between atoms: C_18  and  N_21
REMARK                            x       y       z     vdW  Elec       q    Type
REMARK                         _______ _______ _______ _____ _____    ______ ____
ROOT
ATOM      1  N   UNL     1      -1.947  -1.149  -1.567  0.00  0.00    -0.177 NA
ATOM      2  C   UNL     1      -2.787  -0.170  -2.270  0.00  0.00    +0.110 C 
ATOM      3  C   UNL     1      -3.998  -0.895  -2.865  0.00  0.00    +0.027 C 
ATOM      4  C   UNL     1      -3.515  -2.053  -3.741  0.00  0.00    +0.044 C 
ATOM      5  C   UNL     1      -2.727  -3.048  -2.885  0.00  0.00    +0.027 C 
ATOM      6  C   UNL     1      -1.497  -2.344  -2.293  0.00  0.00    +0.110 C 
ENDROOT
BRANCH   4   7
ATOM      7  C   UNL     1      -4.702  -2.748  -4.355  0.00  0.00    +0.089 A 
ATOM      8  C   UNL     1      -5.467  -3.756  -3.751  0.00  0.00    +0.092 A 
ATOM      9  C   UNL     1      -6.444  -4.121  -4.622  0.00  0.00    +0.215 A 
ATOM     10  O   UNL     1      -6.305  -3.376  -5.732  0.00  0.00    -0.340 OA
ATOM     11  N   UNL     1      -5.200  -2.512  -5.538  0.00  0.00    -0.081 NA
BRANCH   9  12
ATOM     12  N   UNL     1      -7.409  -5.088  -4.405  0.00  0.00    -0.327 N 
ATOM     13  H   UNL     1      -7.427  -5.575  -3.567  0.00  0.00    +0.145 HD
ATOM     14  H   UNL     1      -8.067  -5.278  -5.091  0.00  0.00    +0.145 HD
ENDBRANCH   9  12
ENDBRANCH   4   7
BRANCH   1  15
ATOM     15  S   UNL     1      -1.511  -0.907   0.012  0.00  0.00    +0.061 S 
ATOM     16  O   UNL     1      -1.217  -2.187   0.553  0.00  0.00    -0.153 OA
ATOM     17  O   UNL     1      -2.492  -0.048   0.578  0.00  0.00    -0.153 OA
BRANCH  15  23
ATOM     18  C   UNL     1      -0.017   1.378   0.010  0.00  0.00    +0.029 A 
ATOM     19  C   UNL     1       1.171   2.083   0.002  0.00  0.00    +0.006 A 
ATOM     20  C   UNL     1       2.381   1.411  -0.014  0.00  0.00    -0.044 A 
ATOM     21  C   UNL     1       2.400   0.028  -0.021  0.00  0.00    -0.042 A 
ATOM     22  C   UNL     1       1.208  -0.677  -0.014  0.00  0.00    +0.032 A 
ATOM     23  C   UNL     1       0.002  -0.004   0.002  0.00  0.00    +0.106 A 
ATOM     24  C   UNL     1       3.831  -0.464  -0.038  0.00  0.00    +0.036 C 
ATOM     25  C   UNL     1       4.671   0.753  -0.480  0.00  0.00    +0.009 C 
ATOM     26  C   UNL     1       3.799   1.942  -0.025  0.00  0.00    +0.036 C 
ENDBRANCH  15  23
ENDBRANCH   1  15
TORSDOF 4
