REMARK  Name = ZINC22703929
REMARK  7 active torsions:
REMARK  status: ('A' for Active; 'I' for Inactive)
REMARK    1  A    between atoms: C_1  and  C_2
REMARK    2  A    between atoms: C_2  and  C_29
REMARK    3  A    between atoms: N_5  and  C_9
REMARK    4  A    between atoms: C_9  and  C_10
REMARK    5  A    between atoms: C_10  and  C_11
REMARK    6  A    between atoms: C_11  and  C_12
REMARK    7  A    between atoms: N_14  and  C_15
REMARK                            x       y       z     vdW  Elec       q    Type
REMARK                         _______ _______ _______ _____ _____    ______ ____
ROOT
ATOM      1  C   UNL     1      -0.001   1.079   2.488  0.00  0.00    +0.217 C 
ATOM      2  O   UNL     1       0.988   0.388   2.363  0.00  0.00    -0.275 OA
ATOM      3  N   UNL     1      -0.453   1.393   3.718  0.00  0.00    -0.285 N 
ATOM      4  H   UNL     1      -1.304   2.080   3.832  0.00  0.00    +0.155 HD
ENDROOT
BRANCH   3   5
ATOM      5  C   UNL     1       0.161   0.844   4.851  0.00  0.00    +0.037 A 
ATOM      6  C   UNL     1      -0.600   0.529   5.969  0.00  0.00    +0.027 A 
ATOM      7  C   UNL     1       0.003  -0.017   7.086  0.00  0.00    +0.051 A 
ATOM      8  C   UNL     1       1.371  -0.241   7.098  0.00  0.00    +0.167 A 
ATOM      9  C   UNL     1       2.138   0.080   5.980  0.00  0.00    +0.169 A 
ATOM     10  C   UNL     1       1.531   0.621   4.858  0.00  0.00    +0.072 A 
ATOM     11  O   UNL     1       3.442  -0.231   6.241  0.00  0.00    -0.447 OA
ATOM     12  C   UNL     1       3.405  -1.108   7.377  0.00  0.00    +0.254 C 
ATOM     13  O   UNL     1       2.194  -0.754   8.061  0.00  0.00    -0.448 OA
ATOM     14  C   UNL     1       4.613  -0.865   8.274  0.00  0.00    +0.093 C 
ATOM     15  C   UNL     1       5.895  -1.218   7.515  0.00  0.00    +0.008 C 
ATOM     16  C   UNL     1       5.845  -2.684   7.083  0.00  0.00    +0.000 C 
ATOM     17  C   UNL     1       4.640  -2.906   6.166  0.00  0.00    +0.008 C 
ATOM     18  C   UNL     1       3.354  -2.562   6.922  0.00  0.00    +0.093 C 
ENDBRANCH   3   5
BRANCH   1  19
ATOM     19  C   UNL     1      -0.725   1.585   1.267  0.00  0.00    +0.097 C 
BRANCH  19  20
ATOM     20  C   UNL     1      -0.012   1.088   0.008  0.00  0.00    +0.029 C 
BRANCH  20  21
ATOM     21  C   UNL     1      -0.747   1.602  -1.232  0.00  0.00    +0.118 C 
BRANCH  21  26
ATOM     22  C   UNL     1       2.784   0.497  -4.127  0.00  0.00    +0.041 C 
ATOM     23  C   UNL     1       1.322   0.934  -4.243  0.00  0.00    +0.107 C 
ATOM     24  C   UNL     1       0.924   1.798  -3.062  0.00  0.00    +0.246 C 
ATOM     25  O   UNL     1       1.397   2.868  -2.745  0.00  0.00    -0.273 OA
ATOM     26  N   UNL     1      -0.064   1.127  -2.437  0.00  0.00    -0.224 N 
ATOM     27  C   UNL     1      -0.347  -0.025  -3.056  0.00  0.00    +0.309 C 
ATOM     28  O   UNL     1      -1.204  -0.801  -2.682  0.00  0.00    -0.252 OA
ATOM     29  N   UNL     1       0.424  -0.228  -4.140  0.00  0.00    -0.285 N 
ATOM     30  C   UNL     1       1.086   1.684  -5.556  0.00  0.00    +0.041 C 
ATOM     31  H   UNL     1       0.484  -1.037  -4.883  0.00  0.00    +0.151 HD
ENDBRANCH  21  26
ENDBRANCH  20  21
ENDBRANCH  19  20
ENDBRANCH   1  19
TORSDOF 5
