REMARK  Name = ZINC57143031
REMARK  8 active torsions:
REMARK  status: ('A' for Active; 'I' for Inactive)
REMARK    1  A    between atoms: C_1  and  C_2
REMARK    2  A    between atoms: C_6  and  C_23
REMARK    3  A    between atoms: C_8  and  N_11
REMARK    4  A    between atoms: C_12  and  C_14
REMARK    5  A    between atoms: C_17  and  S_19
REMARK    6  A    between atoms: S_19  and  N_22
REMARK    7  A    between atoms: C_23  and  C_24
REMARK    8  A    between atoms: C_23  and  C_25
REMARK                            x       y       z     vdW  Elec       q    Type
REMARK                         _______ _______ _______ _____ _____    ______ ____
ROOT
ATOM      1  N   UNL     1       0.224   1.450   2.497  0.00  0.00    -0.306 N 
ATOM      2  C   UNL     1       1.345   2.138   2.792  0.00  0.00    +0.280 C 
ATOM      3  O   UNL     1       2.373   1.542   3.052  0.00  0.00    -0.267 OA
ATOM      4  H   UNL     1      -0.596   1.925   2.290  0.00  0.00    +0.149 HD
ENDROOT
BRANCH   1  10
ATOM      5  C   UNL     1       0.239   1.529  -0.001  0.00  0.00    +0.007 C 
ATOM      6  C   UNL     1       0.260  -0.001  -0.010  0.00  0.00    -0.012 C 
ATOM      7  C   UNL     1      -1.176  -0.530  -0.022  0.00  0.00    +0.004 C 
ATOM      8  C   UNL     1      -1.912  -0.037   1.225  0.00  0.00    +0.006 C 
ATOM      9  C   UNL     1      -1.192  -0.544   2.477  0.00  0.00    +0.012 C 
ATOM     10  C   UNL     1       0.244  -0.015   2.489  0.00  0.00    +0.077 C 
ATOM     11  C   UNL     1       0.980  -0.508   1.242  0.00  0.00    +0.026 C 
BRANCH   9  12
ATOM     12  C   UNL     1      -1.928  -0.051   3.724  0.00  0.00    -0.012 C 
ATOM     13  C   UNL     1      -3.364  -0.580   3.712  0.00  0.00    +0.007 C 
ATOM     14  C   UNL     1      -1.208  -0.558   4.975  0.00  0.00    +0.007 C 
ENDBRANCH   9  12
ENDBRANCH   1  10
BRANCH   2  15
ATOM     15  C   UNL     1       1.325   3.604   2.800  0.00  0.00    +0.192 A 
ATOM     16  C   UNL     1       2.385   4.420   3.075  0.00  0.00    +0.057 A 
ATOM     17  C   UNL     1       1.918   5.739   2.968  0.00  0.00    +0.072 A 
ATOM     18  C   UNL     1       0.610   5.672   2.637  0.00  0.00    +0.258 A 
ATOM     19  O   UNL     1       0.257   4.384   2.531  0.00  0.00    -0.432 OA
BRANCH  18  20
ATOM     20  S   UNL     1      -0.456   7.052   2.380  0.00  0.00    +0.089 S 
ATOM     21  O   UNL     1      -1.780   6.590   2.609  0.00  0.00    -0.150 OA
ATOM     22  O   UNL     1       0.107   8.139   3.100  0.00  0.00    -0.150 OA
BRANCH  20  23
ATOM     23  N   UNL     1      -0.364   7.449   0.775  0.00  0.00    -0.201 NA
ATOM     24  H   UNL     1       0.209   6.939   0.181  0.00  0.00    +0.144 HD
ATOM     25  H   UNL     1      -0.883   8.191   0.428  0.00  0.00    +0.144 HD
ENDBRANCH  20  23
ENDBRANCH  18  20
ENDBRANCH   2  15
TORSDOF 5
