REMARK  Name = ZINC48052252
REMARK  10 active torsions:
REMARK  status: ('A' for Active; 'I' for Inactive)
REMARK    1  A    between atoms: C_1  and  C_2
REMARK    2  A    between atoms: C_5  and  O_26
REMARK    3  A    between atoms: C_6  and  N_8
REMARK    4  A    between atoms: N_11  and  C_12
REMARK    5  A    between atoms: C_12  and  C_14
REMARK    6  A    between atoms: C_12  and  C_15
REMARK    7  A    between atoms: C_19  and  N_21
REMARK    8  A    between atoms: N_21  and  S_22
REMARK    9  A    between atoms: S_22  and  C_25
REMARK   10  A    between atoms: O_26  and  C_27
REMARK                            x       y       z     vdW  Elec       q    Type
REMARK                         _______ _______ _______ _____ _____    ______ ____
ROOT
ATOM      1  N   UNL     1       0.050  -2.795   2.400  0.00  0.00    -0.266 N 
ATOM      2  C   UNL     1       0.148  -2.130   3.568  0.00  0.00    +0.304 C 
ATOM      3  O   UNL     1       0.133  -0.914   3.579  0.00  0.00    -0.252 OA
ATOM      4  N   UNL     1       0.264  -2.813   4.724  0.00  0.00    -0.293 N 
ATOM      5  H   UNL     1      -0.020  -3.762   2.396  0.00  0.00    +0.156 HD
ATOM      6  H   UNL     1       0.276  -3.783   4.715  0.00  0.00    +0.151 HD
ENDROOT
BRANCH   1  12
ATOM      7  C   UNL     1       1.271   1.226  -0.155  0.00  0.00    +0.044 C 
ATOM      8  C   UNL     1       0.633  -0.138  -0.078  0.00  0.00    -0.048 A 
ATOM      9  C   UNL     1       0.046  -0.689  -1.202  0.00  0.00    +0.007 A 
ATOM     10  C   UNL     1      -0.540  -1.940  -1.137  0.00  0.00    +0.048 A 
ATOM     11  C   UNL     1      -0.542  -2.643   0.057  0.00  0.00    +0.141 A 
ATOM     12  C   UNL     1       0.049  -2.088   1.189  0.00  0.00    +0.077 A 
ATOM     13  C   UNL     1       0.641  -0.835   1.115  0.00  0.00    +0.030 A 
BRANCH  11  14
ATOM     14  O   UNL     1      -1.119  -3.873   0.123  0.00  0.00    -0.493 OA
ATOM     15  C   UNL     1      -1.706  -4.379  -1.078  0.00  0.00    +0.277 C 
ENDBRANCH  11  14
ENDBRANCH   1  12
BRANCH   4  16
ATOM     16  C   UNL     1       0.370  -2.091   5.994  0.00  0.00    +0.102 C 
ATOM     17  C   UNL     1      -1.030  -1.750   6.506  0.00  0.00    +0.033 C 
BRANCH  16  18
ATOM     18  C   UNL     1       1.078  -2.955   7.006  0.00  0.00    -0.026 A 
ATOM     19  C   UNL     1       0.811  -4.311   7.063  0.00  0.00    +0.005 A 
ATOM     20  C   UNL     1       1.458  -5.108   7.990  0.00  0.00    +0.002 A 
ATOM     21  C   UNL     1       2.373  -4.552   8.862  0.00  0.00    +0.024 A 
ATOM     22  C   UNL     1       2.644  -3.190   8.807  0.00  0.00    +0.048 A 
ATOM     23  C   UNL     1       1.996  -2.394   7.871  0.00  0.00    +0.030 A 
BRANCH  22  24
ATOM     24  N   UNL     1       3.569  -2.624   9.688  0.00  0.00    -0.221 N 
ATOM     25  H   UNL     1       3.361  -1.792  10.141  0.00  0.00    +0.173 HD
BRANCH  24  26
ATOM     26  S   UNL     1       5.020  -3.374   9.958  0.00  0.00    +0.040 S 
ATOM     27  O   UNL     1       5.683  -2.549  10.906  0.00  0.00    -0.155 OA
ATOM     28  O   UNL     1       4.681  -4.717  10.277  0.00  0.00    -0.155 OA
ATOM     29  C   UNL     1       5.882  -3.310   8.363  0.00  0.00    +0.218 C 
ENDBRANCH  24  26
ENDBRANCH  22  24
ENDBRANCH  16  18
ENDBRANCH   4  16
TORSDOF 6
