REMARK  Name = ZINC13639560
REMARK  8 active torsions:
REMARK  status: ('A' for Active; 'I' for Inactive)
REMARK    1  A    between atoms: C_1  and  C_2
REMARK    2  A    between atoms: C_5  and  N_9
REMARK    3  A    between atoms: C_7  and  C_8
REMARK    4  A    between atoms: N_9  and  S_10
REMARK    5  A    between atoms: S_10  and  C_13
REMARK    6  A    between atoms: C_26  and  C_29
REMARK    7  A    between atoms: C_32  and  O_36
REMARK    8  A    between atoms: C_34  and  O_35
REMARK                            x       y       z     vdW  Elec       q    Type
REMARK                         _______ _______ _______ _____ _____    ______ ____
ROOT
ATOM      1  C   UNL     1       3.496   3.731  -0.042  0.00  0.00    +0.109 A 
ATOM      2  C   UNL     1       2.263   4.356  -0.004  0.00  0.00    +0.030 A 
ATOM      3  C   UNL     1       1.106   3.604   0.018  0.00  0.00    +0.025 A 
ATOM      4  C   UNL     1       1.170   2.216   0.003  0.00  0.00    +0.031 A 
ATOM      5  C   UNL     1       2.422   1.591  -0.023  0.00  0.00    -0.018 A 
ATOM      6  C   UNL     1       3.571   2.351  -0.051  0.00  0.00    +0.034 A 
ATOM      7  C   UNL     1       2.447   0.112  -0.016  0.00  0.00    +0.049 C 
ATOM      8  C   UNL     1       3.571  -0.687  -0.593  0.00  0.00    -0.023 C 
ATOM      9  C   UNL     1       3.092  -1.823  -1.084  0.00  0.00    -0.030 C 
ATOM     10  C   UNL     1       1.576  -1.881  -0.884  0.00  0.00    +0.033 C 
ATOM     11  C   UNL     1       1.215  -0.391  -0.825  0.00  0.00    +0.029 C 
ATOM     12  C   UNL     1       0.002  -0.004   0.002  0.00  0.00    +0.108 C 
ATOM     13  N   UNL     1      -0.018   1.475   0.010  0.00  0.00    -0.336 N 
ATOM     14  H   UNL     1      -0.869   1.940   0.017  0.00  0.00    +0.147 HD
ENDROOT
BRANCH  12  15
ATOM     15  C   UNL     1      -1.256  -0.538  -0.632  0.00  0.00    +0.015 A 
ATOM     16  C   UNL     1      -1.956   0.237  -1.537  0.00  0.00    +0.012 A 
ATOM     17  C   UNL     1      -3.110  -0.251  -2.120  0.00  0.00    +0.046 A 
ATOM     18  C   UNL     1      -3.569  -1.520  -1.798  0.00  0.00    +0.120 A 
ATOM     19  C   UNL     1      -2.869  -2.300  -0.891  0.00  0.00    +0.091 A 
ATOM     20  C   UNL     1      -1.708  -1.811  -0.311  0.00  0.00    +0.125 A 
BRANCH  20  21
ATOM     21  O   UNL     1      -1.016  -2.575   0.575  0.00  0.00    -0.506 OA
ATOM     22  H   UNL     1      -1.293  -2.459   1.494  0.00  0.00    +0.292 HD
ENDBRANCH  20  21
BRANCH  18  23
ATOM     23  O   UNL     1      -4.704  -1.999  -2.372  0.00  0.00    -0.507 OA
ATOM     24  H   UNL     1      -4.556  -2.478  -3.199  0.00  0.00    +0.292 HD
ENDBRANCH  18  23
ENDBRANCH  12  15
BRANCH   1  25
ATOM     25  S   UNL     1       4.971   4.695  -0.079  0.00  0.00    +0.072 S 
ATOM     26  O   UNL     1       5.976   3.877  -0.662  0.00  0.00    -0.150 OA
ATOM     27  O   UNL     1       4.615   5.962  -0.614  0.00  0.00    -0.150 OA
BRANCH  25  28
ATOM     28  N   UNL     1       5.425   4.955   1.492  0.00  0.00    -0.216 N 
ATOM     29  H   UNL     1       5.423   5.855   1.855  0.00  0.00    +0.174 HD
BRANCH  28  34
ATOM     30  C   UNL     1       6.994   0.589   4.753  0.00  0.00    +0.044 C 
ATOM     31  C   UNL     1       6.577   1.749   3.886  0.00  0.00    -0.047 A 
ATOM     32  C   UNL     1       7.056   1.852   2.593  0.00  0.00    +0.005 A 
ATOM     33  C   UNL     1       6.676   2.914   1.796  0.00  0.00    +0.025 A 
ATOM     34  C   UNL     1       5.811   3.880   2.295  0.00  0.00    +0.048 A 
ATOM     35  C   UNL     1       5.336   3.776   3.596  0.00  0.00    +0.028 A 
ATOM     36  C   UNL     1       5.716   2.709   4.386  0.00  0.00    -0.046 A 
ATOM     37  C   UNL     1       5.196   2.593   5.795  0.00  0.00    +0.044 C 
ENDBRANCH  28  34
ENDBRANCH  25  28
ENDBRANCH   1  25
TORSDOF 6
