REMARK  Name = ZINC50350024
REMARK  2 active torsions:
REMARK  status: ('A' for Active; 'I' for Inactive)
REMARK    1  A    between atoms: C_7  and  S_13
REMARK    2  A    between atoms: S_13  and  N_16
REMARK                            x       y       z     vdW  Elec       q    Type
REMARK                         _______ _______ _______ _____ _____    ______ ____
ROOT
ATOM      1  C   UNL     1      -0.019   1.526   0.010  0.00  0.00    -0.000 C 
ATOM      2  C   UNL     1       1.417   2.055  -0.000  0.00  0.00    +0.000 C 
ATOM      3  C   UNL     1       1.608   3.035   1.159  0.00  0.00    +0.000 C 
ATOM      4  C   UNL     1       2.819   2.610   1.992  0.00  0.00    +0.000 C 
ATOM      5  C   UNL     1       2.410   2.487   3.461  0.00  0.00    +0.002 C 
ATOM      6  C   UNL     1       2.806   1.106   3.986  0.00  0.00    +0.028 C 
ATOM      7  C   UNL     1       1.586   0.429   4.614  0.00  0.00    +0.148 C 
ATOM      8  C   UNL     1       1.392  -0.954   3.989  0.00  0.00    +0.028 C 
ATOM      9  C   UNL     1      -0.040  -1.080   3.465  0.00  0.00    +0.002 C 
ATOM     10  C   UNL     1      -0.010  -1.509   1.997  0.00  0.00    +0.000 C 
ATOM     11  C   UNL     1      -0.843  -0.532   1.163  0.00  0.00    +0.000 C 
ATOM     12  C   UNL     1       0.002  -0.004   0.002  0.00  0.00    +0.000 C 
ENDROOT
BRANCH   7  13
ATOM     13  S   UNL     1       1.844   0.254   6.401  0.00  0.00    +0.030 S 
ATOM     14  O   UNL     1       2.959  -0.589   6.654  0.00  0.00    -0.158 OA
ATOM     15  O   UNL     1       1.733   1.520   7.038  0.00  0.00    -0.158 OA
BRANCH  13  16
ATOM     16  N   UNL     1       0.534  -0.605   6.938  0.00  0.00    -0.208 NA
ATOM     17  H   UNL     1      -0.150  -0.889   6.311  0.00  0.00    +0.144 HD
ATOM     18  H   UNL     1       0.451  -0.825   7.879  0.00  0.00    +0.144 HD
ENDBRANCH  13  16
ENDBRANCH   7  13
TORSDOF 2
