REMARK  Name = ZINC14806655
REMARK  13 active torsions:
REMARK  status: ('A' for Active; 'I' for Inactive)
REMARK    1  A    between atoms: C_1  and  C_2
REMARK    2  A    between atoms: C_3  and  O_37
REMARK    3  A    between atoms: C_8  and  O_34
REMARK    4  A    between atoms: C_14  and  O_18
REMARK    5  A    between atoms: C_16  and  O_17
REMARK    6  A    between atoms: O_18  and  C_19
REMARK    7  A    between atoms: C_23  and  O_28
REMARK    8  A    between atoms: C_25  and  O_26
REMARK    9  A    between atoms: O_26  and  C_27
REMARK   10  A    between atoms: C_31  and  O_32
REMARK   11  A    between atoms: O_32  and  C_33
REMARK   12  A    between atoms: O_34  and  C_35
REMARK   13  A    between atoms: O_37  and  C_38
REMARK                            x       y       z     vdW  Elec       q    Type
REMARK                         _______ _______ _______ _____ _____    ______ ____
ROOT
ATOM      1  C   UNL     1       1.470   0.226   0.606  0.00  0.00    +0.043 C 
ATOM      2  C   UNL     1       1.099   0.468   2.045  0.00  0.00    -0.026 C 
ATOM      3  C   UNL     1       0.005   1.192   2.291  0.00  0.00    +0.131 C 
ATOM      4  C   UNL     1      -0.624   1.551   3.567  0.00  0.00    +0.070 C 
ATOM      5  C   UNL     1      -0.064   1.617   4.942  0.00  0.00    +0.006 A 
ATOM      6  C   UNL     1       1.246   1.169   5.342  0.00  0.00    -0.001 A 
ATOM      7  C   UNL     1       2.134   0.390   4.541  0.00  0.00    +0.011 C 
ATOM      8  C   UNL     1       3.316  -0.103   4.988  0.00  0.00    +0.171 C 
ATOM      9  C   UNL     1       3.833   0.237   6.312  0.00  0.00    +0.232 C 
ATOM     10  O   UNL     1       4.894  -0.214   6.707  0.00  0.00    -0.283 OA
ATOM     11  C   UNL     1       3.005   1.138   7.116  0.00  0.00    +0.075 A 
ATOM     12  C   UNL     1       1.727   1.517   6.643  0.00  0.00    +0.009 A 
ATOM     13  C   UNL     1       0.946   2.282   7.533  0.00  0.00    +0.037 A 
ATOM     14  C   UNL     1       1.537   2.927   8.637  0.00  0.00    +0.132 A 
ATOM     15  C   UNL     1       2.791   2.546   9.075  0.00  0.00    +0.092 A 
ATOM     16  C   UNL     1       3.510   1.620   8.331  0.00  0.00    +0.132 A 
ATOM     17  C   UNL     1      -0.477   2.413   7.255  0.00  0.00    +0.037 A 
ATOM     18  C   UNL     1      -0.919   2.186   5.935  0.00  0.00    +0.009 A 
ATOM     19  C   UNL     1      -2.261   2.543   5.665  0.00  0.00    +0.075 A 
ATOM     20  C   UNL     1      -3.083   3.109   6.649  0.00  0.00    +0.132 A 
ATOM     21  C   UNL     1      -2.664   3.157   7.972  0.00  0.00    +0.092 A 
ATOM     22  C   UNL     1      -1.384   2.740   8.281  0.00  0.00    +0.132 A 
ATOM     23  C   UNL     1      -2.824   2.293   4.341  0.00  0.00    +0.232 C 
ATOM     24  O   UNL     1      -3.994   2.519   4.077  0.00  0.00    -0.283 OA
ATOM     25  C   UNL     1      -1.966   1.779   3.341  0.00  0.00    +0.178 C 
ATOM     26  C   UNL     1       2.004  -0.081   3.113  0.00  0.00    +0.073 C 
ENDROOT
BRANCH  16  27
ATOM     27  O   UNL     1       4.707   1.191   8.794  0.00  0.00    -0.506 OA
ATOM     28  H   UNL     1       5.457   1.725   8.500  0.00  0.00    +0.292 HD
ENDBRANCH  16  27
BRANCH  14  29
ATOM     29  O   UNL     1       0.922   3.950   9.275  0.00  0.00    -0.494 OA
ATOM     30  C   UNL     1       1.611   4.532  10.383  0.00  0.00    +0.277 C 
ENDBRANCH  14  29
BRANCH  22  31
ATOM     31  O   UNL     1      -1.051   2.620   9.588  0.00  0.00    -0.494 OA
ATOM     32  C   UNL     1      -2.047   2.979  10.548  0.00  0.00    +0.277 C 
ENDBRANCH  22  31
BRANCH  20  33
ATOM     33  O   UNL     1      -4.308   3.584   6.326  0.00  0.00    -0.506 OA
ATOM     34  H   UNL     1      -4.317   4.523   6.093  0.00  0.00    +0.292 HD
ENDBRANCH  20  33
BRANCH  25  35
ATOM     35  O   UNL     1      -2.581   1.465   2.173  0.00  0.00    -0.491 OA
ATOM     36  C   UNL     1      -3.182   0.172   2.083  0.00  0.00    +0.277 C 
ENDBRANCH  25  35
BRANCH   8  37
ATOM     37  O   UNL     1       4.075  -0.914   4.207  0.00  0.00    -0.491 OA
ATOM     38  C   UNL     1       3.928  -2.322   4.397  0.00  0.00    +0.277 C 
ENDBRANCH   8  37
BRANCH   3  39
ATOM     39  O   UNL     1      -0.564   1.638   1.145  0.00  0.00    -0.494 OA
ATOM     40  C   UNL     1      -0.551   3.049   0.920  0.00  0.00    +0.277 C 
ENDBRANCH   3  39
TORSDOF 7
