REMARK  Name = ZINC01427255
REMARK  4 active torsions:
REMARK  status: ('A' for Active; 'I' for Inactive)
REMARK    1  A    between atoms: C_1  and  N_2
REMARK    2  A    between atoms: C_13  and  C_21
REMARK    3  A    between atoms: C_15  and  C_19
REMARK    4  A    between atoms: C_16  and  N_18
REMARK                            x       y       z     vdW  Elec       q    Type
REMARK                         _______ _______ _______ _____ _____    ______ ____
ROOT
ATOM      1  C   UNL     1      -0.796   0.709  -4.852  0.00  0.00    +0.152 C 
ATOM      2  N   UNL     1      -1.099   1.379  -3.585  0.00  0.00    -0.311 N 
ATOM      3  C   UNL     1      -2.011   2.414  -3.566  0.00  0.00    +0.055 A 
ATOM      4  C   UNL     1      -2.646   2.831  -4.731  0.00  0.00    +0.026 A 
ATOM      5  C   UNL     1      -3.554   3.867  -4.681  0.00  0.00    +0.002 A 
ATOM      6  C   UNL     1      -3.841   4.499  -3.480  0.00  0.00    +0.001 A 
ATOM      7  C   UNL     1      -3.228   4.105  -2.324  0.00  0.00    +0.013 A 
ATOM      8  C   UNL     1      -2.304   3.058  -2.352  0.00  0.00    +0.041 A 
ATOM      9  C   UNL     1      -1.625   2.609  -1.128  0.00  0.00    +0.149 A 
ATOM     10  C   UNL     1      -0.735   1.582  -1.217  0.00  0.00    +0.075 A 
ATOM     11  C   UNL     1      -0.483   0.976  -2.461  0.00  0.00    +0.259 A 
ATOM     12  O   UNL     1       0.317   0.057  -2.522  0.00  0.00    -0.267 OA
ATOM     13  C   UNL     1      -0.013   1.086   0.008  0.00  0.00    +0.139 C 
ATOM     14  C   UNL     1      -0.710   1.567   1.250  0.00  0.00    +0.101 C 
ATOM     15  C   UNL     1      -1.595   2.589   1.204  0.00  0.00    +0.199 C 
ATOM     16  O   UNL     1      -1.891   3.210   0.049  0.00  0.00    -0.440 OA
ENDROOT
BRANCH  13  17
ATOM     17  C   UNL     1       1.402   1.604  -0.003  0.00  0.00    +0.118 A 
ATOM     18  C   UNL     1       2.516   0.850  -0.017  0.00  0.00    +0.045 A 
ATOM     19  C   UNL     1       3.614   1.741  -0.023  0.00  0.00    +0.041 A 
ATOM     20  C   UNL     1       3.105   2.987  -0.011  0.00  0.00    +0.195 A 
ATOM     21  O   UNL     1       1.765   2.897  -0.005  0.00  0.00    -0.467 OA
ENDBRANCH  13  17
BRANCH  15  22
ATOM     22  N   UNL     1      -2.207   2.999   2.362  0.00  0.00    -0.328 N 
ATOM     23  H   UNL     1      -2.845   3.730   2.341  0.00  0.00    +0.145 HD
ATOM     24  H   UNL     1      -2.002   2.559   3.201  0.00  0.00    +0.145 HD
ENDBRANCH  15  22
BRANCH  14  25
ATOM     25  C   UNL     1      -0.431   0.936   2.504  0.00  0.00    +0.101 C 
ATOM     26  N   UNL     1      -0.211   0.435   3.500  0.00  0.00    -0.191 NA
ENDBRANCH  14  25
TORSDOF 3
