REMARK  Name = ZINC52760241
REMARK  6 active torsions:
REMARK  status: ('A' for Active; 'I' for Inactive)
REMARK    1  A    between atoms: C_2  and  N_22
REMARK    2  A    between atoms: C_3  and  N_12
REMARK    3  A    between atoms: C_16  and  C_18
REMARK    4  A    between atoms: C_18  and  C_19
REMARK    5  A    between atoms: C_19  and  C_20
REMARK    6  A    between atoms: C_20  and  O_21
REMARK                            x       y       z     vdW  Elec       q    Type
REMARK                         _______ _______ _______ _____ _____    ______ ____
ROOT
ATOM      1  C   UNL     1      -0.003   1.649   0.275  0.00  0.00    +0.072 A 
ATOM      2  C   UNL     1       1.222   2.296   0.184  0.00  0.00    +0.049 A 
ATOM      3  C   UNL     1       2.400   1.554   0.117  0.00  0.00    +0.053 A 
ATOM      4  C   UNL     1       2.349   0.168   0.144  0.00  0.00    +0.052 A 
ATOM      5  C   UNL     1       1.125  -0.476   0.235  0.00  0.00    +0.078 A 
ATOM      6  C   UNL     1      -0.053   0.266   0.300  0.00  0.00    +0.144 A 
ATOM      7  O   UNL     1      -1.247  -0.381   0.387  0.00  0.00    -0.481 OA
ATOM      8  C   UNL     1      -1.345  -1.641  -0.282  0.00  0.00    +0.325 C 
ATOM      9  C   UNL     1      -0.133  -2.479   0.034  0.00  0.00    +0.255 C 
ATOM     10  O   UNL     1      -0.224  -3.688   0.083  0.00  0.00    -0.272 OA
ATOM     11  N   UNL     1       1.055  -1.878   0.265  0.00  0.00    -0.280 N 
ATOM     12  H   UNL     1       1.847  -2.407   0.446  0.00  0.00    +0.155 HD
ENDROOT
BRANCH   3  13
ATOM     13  N   UNL     1       3.637   2.208   0.024  0.00  0.00    -0.325 N 
ATOM     14  C   UNL     1       4.417   2.737   1.157  0.00  0.00    +0.105 C 
ATOM     15  C   UNL     1       5.880   2.774   0.649  0.00  0.00    +0.021 C 
ATOM     16  C   UNL     1       5.684   3.190  -0.833  0.00  0.00    +0.024 C 
ATOM     17  C   UNL     1       4.373   2.474  -1.220  0.00  0.00    +0.074 C 
BRANCH  17  18
ATOM     18  C   UNL     1       3.542   3.377  -2.134  0.00  0.00    +0.024 C 
BRANCH  18  19
ATOM     19  C   UNL     1       4.254   3.536  -3.479  0.00  0.00    +0.030 C 
BRANCH  19  20
ATOM     20  C   UNL     1       3.484   4.532  -4.349  0.00  0.00    +0.156 C 
BRANCH  20  21
ATOM     21  O   UNL     1       4.149   4.681  -5.605  0.00  0.00    -0.395 OA
ATOM     22  H   UNL     1       3.716   5.299  -6.209  0.00  0.00    +0.209 HD
ENDBRANCH  20  21
ENDBRANCH  19  20
ENDBRANCH  18  19
ENDBRANCH  17  18
ENDBRANCH   3  13
BRANCH   2  23
ATOM     23  N   UNL     1       1.274   3.696   0.158  0.00  0.00    -0.356 N 
ATOM     24  H   UNL     1       0.455   4.213   0.203  0.00  0.00    +0.142 HD
ATOM     25  H   UNL     1       2.130   4.149   0.094  0.00  0.00    +0.142 HD
ENDBRANCH   2  23
TORSDOF 6
