REMARK  Name = ZINC12523781
REMARK  6 active torsions:
REMARK  status: ('A' for Active; 'I' for Inactive)
REMARK    1  A    between atoms: C_1  and  C_2
REMARK    2  A    between atoms: C_4  and  C_8
REMARK    3  A    between atoms: N_10  and  N_11
REMARK    4  A    between atoms: C_12  and  C_13
REMARK    5  A    between atoms: C_14  and  N_27
REMARK    6  A    between atoms: C_16  and  C_17
REMARK                            x       y       z     vdW  Elec       q    Type
REMARK                         _______ _______ _______ _____ _____    ______ ____
ROOT
ATOM      1  C   UNL     1      -2.816   5.524   8.534  0.00  0.00    -0.006 C 
ATOM      2  C   UNL     1      -3.833   5.778   9.397  0.00  0.00    +0.038 C 
ATOM      3  C   UNL     1      -3.456   5.491  10.775  0.00  0.00    -0.025 C 
ATOM      4  C   UNL     1      -4.242   5.640  11.862  0.00  0.00    +0.014 C 
ATOM      5  C   UNL     1      -2.026   4.997  10.770  0.00  0.00    +0.042 C 
ATOM      6  C   UNL     1      -1.613   5.015   9.289  0.00  0.00    +0.043 C 
ENDROOT
BRANCH   4   7
ATOM      7  C   UNL     1      -5.693   5.822  11.701  0.00  0.00    -0.006 A 
ATOM      8  C   UNL     1      -6.410   5.008  10.818  0.00  0.00    +0.011 A 
ATOM      9  C   UNL     1      -7.770   5.181  10.676  0.00  0.00    +0.020 A 
ATOM     10  C   UNL     1      -8.426   6.166  11.397  0.00  0.00    +0.042 A 
ATOM     11  C   UNL     1      -7.723   6.980  12.270  0.00  0.00    +0.040 A 
ATOM     12  C   UNL     1      -6.362   6.815  12.427  0.00  0.00    +0.049 A 
ATOM     13 CL   UNL     1      -5.482   7.836  13.521  0.00  0.00    -0.083 Cl
ATOM     14 CL   UNL     1     -10.138   6.380  11.207  0.00  0.00    -0.083 Cl
ENDBRANCH   4   7
BRANCH   2  15
ATOM     15  N   UNL     1      -5.081   6.254   9.012  0.00  0.00    -0.325 N 
ATOM     16  C   UNL     1      -5.585   7.545   9.506  0.00  0.00    +0.133 C 
ATOM     17  C   UNL     1      -6.060   8.368   8.298  0.00  0.00    +0.178 C 
ATOM     18  O   UNL     1      -6.973   7.584   7.526  0.00  0.00    -0.377 OA
ATOM     19  C   UNL     1      -6.400   6.399   6.968  0.00  0.00    +0.178 C 
ATOM     20  C   UNL     1      -5.941   5.477   8.104  0.00  0.00    +0.133 C 
ENDBRANCH   2  15
BRANCH   1  22
ATOM     21  N   UNL     1      -1.809   5.522   6.408  0.00  0.00    -0.188 NA
ATOM     22  C   UNL     1      -2.877   5.705   7.137  0.00  0.00    +0.135 C 
BRANCH  21  25
ATOM     23  C   UNL     1      -0.768   5.512   4.267  0.00  0.00    +0.281 C 
ATOM     24  O   UNL     1       0.280   5.187   4.794  0.00  0.00    -0.267 OA
ATOM     25  N   UNL     1      -1.870   5.701   5.020  0.00  0.00    -0.202 N 
ATOM     26  H   UNL     1      -2.705   5.961   4.601  0.00  0.00    +0.178 HD
BRANCH  23  30
ATOM     27  C   UNL     1       0.380   5.806  -0.664  0.00  0.00    +0.067 C 
ATOM     28  C   UNL     1      -0.347   5.833   0.656  0.00  0.00    +0.060 A 
ATOM     29  C   UNL     1       0.206   5.546   1.906  0.00  0.00    +0.057 A 
ATOM     30  C   UNL     1      -0.832   5.700   2.810  0.00  0.00    +0.122 A 
ATOM     31  N   UNL     1      -1.926   6.063   2.077  0.00  0.00    -0.272 N 
ATOM     32  H   UNL     1      -2.836   6.244   2.450  0.00  0.00    +0.189 HD
ATOM     33  N   UNL     1      -1.608   6.136   0.835  0.00  0.00    -0.178 NA
ENDBRANCH  23  30
ENDBRANCH  21  25
ENDBRANCH   1  22
TORSDOF 5
