REMARK  Name = ZINC61444105
REMARK  7 active torsions:
REMARK  status: ('A' for Active; 'I' for Inactive)
REMARK    1  A    between atoms: C_1  and  C_2
REMARK    2  A    between atoms: C_5  and  C_16
REMARK    3  A    between atoms: C_7  and  N_8
REMARK    4  A    between atoms: C_9  and  C_11
REMARK    5  A    between atoms: C_16  and  O_18
REMARK    6  A    between atoms: O_18  and  C_19
REMARK    7  A    between atoms: C_22  and  C_26
REMARK                            x       y       z     vdW  Elec       q    Type
REMARK                         _______ _______ _______ _____ _____    ______ ____
ROOT
ATOM      1  C   UNL     1       0.000   1.509  -0.006  0.00  0.00    +0.045 C 
ATOM      2  C   UNL     1      -0.012   0.003  -0.056  0.00  0.00    -0.029 A 
ATOM      3  C   UNL     1      -0.036  -0.645  -1.277  0.00  0.00    +0.006 A 
ATOM      4  C   UNL     1      -0.047  -2.023  -1.332  0.00  0.00    +0.015 A 
ATOM      5  C   UNL     1      -0.033  -2.769  -0.151  0.00  0.00    +0.061 A 
ATOM      6  C   UNL     1      -0.009  -2.115   1.081  0.00  0.00    +0.038 A 
ATOM      7  C   UNL     1       0.007  -0.729   1.125  0.00  0.00    +0.037 A 
ENDROOT
BRANCH   7   8
ATOM      8  N   UNL     1       0.038  -0.069   2.357  0.00  0.00    -0.279 N 
ATOM      9  C   UNL     1       0.543  -0.689   3.442  0.00  0.00    +0.284 C 
ATOM     10  O   UNL     1       1.063  -1.783   3.330  0.00  0.00    -0.266 OA
ATOM     11  H   UNL     1      -0.304   0.836   2.431  0.00  0.00    +0.155 HD
BRANCH   9  12
ATOM     12  C   UNL     1       0.465  -0.045   4.757  0.00  0.00    +0.189 A 
ATOM     13  C   UNL     1       0.939  -0.558   5.931  0.00  0.00    +0.054 A 
ATOM     14  C   UNL     1       0.652   0.387   6.928  0.00  0.00    +0.042 A 
ATOM     15  C   UNL     1       0.024   1.422   6.328  0.00  0.00    +0.196 A 
ATOM     16  O   UNL     1      -0.083   1.160   5.019  0.00  0.00    -0.458 OA
ENDBRANCH   9  12
ENDBRANCH   7   8
BRANCH   5  17
ATOM     17  C   UNL     1      -0.045  -4.245  -0.206  0.00  0.00    +0.345 C 
ATOM     18  O   UNL     1      -0.033  -4.892   0.822  0.00  0.00    -0.245 OA
BRANCH  17  19
ATOM     19  O   UNL     1      -0.069  -4.875  -1.397  0.00  0.00    -0.421 OA
BRANCH  19  20
ATOM     20  C   UNL     1      -0.185  -6.228  -1.401  0.00  0.00    +0.150 A 
ATOM     21  C   UNL     1       0.943  -7.019  -1.581  0.00  0.00    +0.049 A 
ATOM     22  C   UNL     1       0.831  -8.392  -1.585  0.00  0.00    +0.022 A 
ATOM     23  C   UNL     1      -0.419  -8.990  -1.408  0.00  0.00    +0.053 A 
ATOM     24  C   UNL     1      -1.552  -8.191  -1.228  0.00  0.00    +0.042 A 
ATOM     25  C   UNL     1      -1.430  -6.818  -1.220  0.00  0.00    +0.084 A 
ATOM     26 CL   UNL     1      -2.835  -5.825  -0.989  0.00  0.00    -0.080 Cl
BRANCH  23  27
ATOM     27  C   UNL     1      -0.540 -10.416  -1.412  0.00  0.00    +0.099 C 
ATOM     28  N   UNL     1      -0.636 -11.549  -1.416  0.00  0.00    -0.191 NA
ENDBRANCH  23  27
ENDBRANCH  19  20
ENDBRANCH  17  19
ENDBRANCH   5  17
TORSDOF 6
