REMARK  Name = ZINC15551546
REMARK  2 active torsions:
REMARK  status: ('A' for Active; 'I' for Inactive)
REMARK    1  A    between atoms: N_9  and  C_12
REMARK    2  A    between atoms: C_12  and  C_13
REMARK                            x       y       z     vdW  Elec       q    Type
REMARK                         _______ _______ _______ _____ _____    ______ ____
ROOT
ATOM      1  C   UNL     1      -2.326   4.353   0.047  0.00  0.00    +0.035 A 
ATOM      2  C   UNL     1      -2.232   5.729   0.053  0.00  0.00    +0.043 A 
ATOM      3  C   UNL     1      -0.991   6.352   0.044  0.00  0.00    +0.042 A 
ATOM      4  C   UNL     1       0.171   5.611   0.029  0.00  0.00    +0.068 A 
ATOM      5  C   UNL     1       0.101   4.215   0.022  0.00  0.00    +0.096 A 
ATOM      6  C   UNL     1      -1.163   3.585   0.032  0.00  0.00    +0.068 A 
ATOM      7  C   UNL     1      -1.202   2.115   0.019  0.00  0.00    +0.262 A 
ATOM      8  O   UNL     1      -2.259   1.511   0.021  0.00  0.00    -0.267 OA
ATOM      9  N   UNL     1      -0.018   1.461   0.010  0.00  0.00    -0.291 N 
ATOM     10  C   UNL     1       1.153   2.150   0.003  0.00  0.00    +0.203 A 
ATOM     11  N   UNL     1       1.219   3.447   0.008  0.00  0.00    -0.235 NA
ATOM     12 CL   UNL     1       1.714   6.406   0.018  0.00  0.00    -0.081 Cl
ATOM     13 CL   UNL     1      -3.678   6.690   0.071  0.00  0.00    -0.083 Cl
ENDROOT
BRANCH   9  14
ATOM     14  C   UNL     1       0.002  -0.004   0.002  0.00  0.00    +0.202 C 
BRANCH  14  15
ATOM     15  C   UNL     1       0.022  -0.514   1.420  0.00  0.00    +0.156 A 
ATOM     16  N   UNL     1       1.177  -0.727   2.027  0.00  0.00    -0.198 NA
ATOM     17  C   UNL     1       1.199  -1.173   3.281  0.00  0.00    +0.217 A 
ATOM     18  N   UNL     1       0.058  -1.413   3.919  0.00  0.00    -0.181 NA
ATOM     19  C   UNL     1      -1.100  -1.203   3.303  0.00  0.00    +0.217 A 
ATOM     20  N   UNL     1      -1.114  -0.752   2.051  0.00  0.00    -0.198 NA
ATOM     21  N   UNL     1      -2.287  -1.453   3.961  0.00  0.00    -0.327 N 
ATOM     22  N   UNL     1       2.405  -1.389   3.916  0.00  0.00    -0.327 N 
ATOM     23  H   UNL     1      -3.133  -1.299   3.511  0.00  0.00    +0.145 HD
ATOM     24  H   UNL     1      -2.276  -1.781   4.874  0.00  0.00    +0.145 HD
ATOM     25  H   UNL     1       2.420  -1.718   4.829  0.00  0.00    +0.145 HD
ATOM     26  H   UNL     1       3.237  -1.213   3.450  0.00  0.00    +0.145 HD
ENDBRANCH  14  15
ENDBRANCH   9  14
TORSDOF 2
