REMARK  Name = ZINC50117441
REMARK  12 active torsions:
REMARK  status: ('A' for Active; 'I' for Inactive)
REMARK    1  A    between atoms: C_1  and  C_2
REMARK    2  A    between atoms: C_2  and  C_3
REMARK    3  A    between atoms: C_2  and  C_4
REMARK    4  A    between atoms: C_4  and  N_5
REMARK    5  A    between atoms: C_6  and  C_8
REMARK    6  A    between atoms: C_8  and  N_9
REMARK    7  A    between atoms: N_12  and  C_13
REMARK    8  A    between atoms: C_13  and  C_14
REMARK    9  A    between atoms: C_14  and  C_16
REMARK   10  A    between atoms: C_14  and  N_19
REMARK   11  A    between atoms: C_16  and  C_17
REMARK   12  A    between atoms: C_16  and  C_18
REMARK                            x       y       z     vdW  Elec       q    Type
REMARK                         _______ _______ _______ _____ _____    ______ ____
ROOT
ATOM      1  N   UNL     1      -2.446  -6.330  -0.683  0.00  0.00    -0.291 N 
ATOM      2  C   UNL     1      -3.170  -7.447  -0.473  0.00  0.00    +0.300 C 
ATOM      3  O   UNL     1      -2.619  -8.473  -0.125  0.00  0.00    -0.253 OA
ATOM      4  N   UNL     1      -4.506  -7.427  -0.650  0.00  0.00    -0.301 N 
ATOM      5  H   UNL     1      -2.886  -5.512  -0.961  0.00  0.00    +0.151 HD
ATOM      6  H   UNL     1      -4.947  -6.609  -0.928  0.00  0.00    +0.150 HD
ENDROOT
BRANCH   1   7
ATOM      7  C   UNL     1      -0.994  -6.353  -0.490  0.00  0.00    +0.201 C 
BRANCH   7   9
ATOM      8  N   UNL     1       0.898  -4.770  -0.676  0.00  0.00    -0.314 N 
ATOM      9  C   UNL     1      -0.427  -4.988  -0.787  0.00  0.00    +0.230 C 
ATOM     10  O   UNL     1      -1.164  -4.086  -1.125  0.00  0.00    -0.274 OA
ATOM     11  H   UNL     1       1.487  -5.492  -0.405  0.00  0.00    +0.149 HD
BRANCH   8  12
ATOM     12  C   UNL     1       1.449  -3.443  -0.964  0.00  0.00    +0.107 C 
BRANCH  12  14
ATOM     13  C   UNL     1       3.556  -2.119  -1.183  0.00  0.00    +0.009 C 
ATOM     14  C   UNL     1       2.966  -3.466  -0.763  0.00  0.00    -0.000 C 
ATOM     15  C   UNL     1       3.281  -3.724   0.712  0.00  0.00    +0.009 C 
ENDBRANCH  12  14
ENDBRANCH   8  12
ENDBRANCH   7   9
ENDBRANCH   1   7
BRANCH   4  16
ATOM     16  C   UNL     1      -5.294  -8.642  -0.423  0.00  0.00    +0.091 C 
BRANCH  16  17
ATOM     17  C   UNL     1      -6.782  -8.318  -0.565  0.00  0.00    -0.048 C 
BRANCH  17  18
ATOM     18  N   UNL     1      -7.151  -7.273   0.400  0.00  0.00    +0.383 N 
ATOM     19  C   UNL     1      -6.658  -7.666   1.734  0.00  0.00    -0.078 C 
ATOM     20  C   UNL     1      -6.479  -6.416   2.559  0.00  0.00    -0.019 C 
ATOM     21  C   UNL     1      -7.709  -6.145   3.445  0.00  0.00    -0.002 C 
ATOM     22  C   UNL     1      -9.027  -6.427   2.696  0.00  0.00    -0.002 C 
ATOM     23  C   UNL     1      -8.994  -5.936   1.271  0.00  0.00    -0.019 C 
ATOM     24  C   UNL     1      -8.534  -7.087   0.352  0.00  0.00    -0.078 C 
ATOM     25  H   UNL     1      -6.699  -6.412   0.131  0.00  0.00    -0.081 HD
ENDBRANCH  17  18
BRANCH  17  26
ATOM     26  C   UNL     1      -7.607  -9.578  -0.291  0.00  0.00    -0.029 C 
ATOM     27  C   UNL     1      -7.338 -10.611  -1.387  0.00  0.00    +0.005 C 
ATOM     28  C   UNL     1      -7.212 -10.160   1.067  0.00  0.00    +0.005 C 
ENDBRANCH  17  26
ENDBRANCH  16  17
ENDBRANCH   4  16
TORSDOF 8
