REMARK  Name = ZINC56946803
REMARK  10 active torsions:
REMARK  status: ('A' for Active; 'I' for Inactive)
REMARK    1  A    between atoms: C_1  and  C_2
REMARK    2  A    between atoms: C_2  and  N_3
REMARK    3  A    between atoms: C_4  and  C_6
REMARK    4  A    between atoms: C_6  and  N_7
REMARK    5  A    between atoms: N_15  and  C_16
REMARK    6  A    between atoms: C_16  and  C_18
REMARK    7  A    between atoms: C_16  and  C_19
REMARK    8  A    between atoms: C_19  and  N_20
REMARK    9  A    between atoms: C_22  and  C_29
REMARK   10  A    between atoms: C_25  and  C_28
REMARK                            x       y       z     vdW  Elec       q    Type
REMARK                         _______ _______ _______ _____ _____    ______ ____
ROOT
ATOM      1  N   UNL     1       2.145  -5.053  -1.294  0.00  0.00    -0.291 NA
ATOM      2  C   UNL     1       3.108  -5.748  -2.159  0.00  0.00    +0.104 C 
ATOM      3  C   UNL     1       2.568  -5.786  -3.592  0.00  0.00    +0.124 C 
ATOM      4  N   UNL     1       1.220  -6.372  -3.568  0.00  0.00    -0.283 N 
ATOM      5  C   UNL     1       0.236  -5.816  -2.625  0.00  0.00    +0.124 C 
ATOM      6  C   UNL     1       0.868  -5.777  -1.230  0.00  0.00    +0.104 C 
ATOM      7  C   UNL     1       0.893  -7.390  -4.388  0.00  0.00    +0.302 C 
ATOM      8  O   UNL     1      -0.195  -7.925  -4.289  0.00  0.00    -0.253 OA
ATOM      9  N   UNL     1       1.771  -7.816  -5.317  0.00  0.00    -0.298 N 
ATOM     10  H   UNL     1       2.664  -7.439  -5.348  0.00  0.00    +0.150 HD
ENDROOT
BRANCH   9  11
ATOM     11  C   UNL     1       1.377  -8.848  -6.279  0.00  0.00    +0.055 C 
ATOM     12  C   UNL     1       1.588 -10.231  -5.658  0.00  0.00    +0.026 C 
BRANCH  11  13
ATOM     13  C   UNL     1       2.232  -8.721  -7.542  0.00  0.00    -0.057 C 
BRANCH  13  14
ATOM     14  N   UNL     1       2.122  -7.355  -8.071  0.00  0.00    +0.381 N 
ATOM     15  C   UNL     1       0.741  -7.107  -8.500  0.00  0.00    -0.076 C 
ATOM     16  C   UNL     1       0.603  -5.659  -8.976  0.00  0.00    -0.031 C 
ATOM     17  C   UNL     1       1.554  -5.422 -10.153  0.00  0.00    +0.003 C 
ATOM     18  C   UNL     1       2.983  -5.755  -9.716  0.00  0.00    -0.031 C 
ATOM     19  C   UNL     1       3.033  -7.199  -9.211  0.00  0.00    -0.076 C 
ATOM     20  C   UNL     1       3.932  -5.596 -10.905  0.00  0.00    +0.005 C 
ATOM     21  C   UNL     1      -0.838  -5.404  -9.424  0.00  0.00    +0.005 C 
ATOM     22  H   UNL     1       2.372  -6.695  -7.350  0.00  0.00    -0.082 HD
ENDBRANCH  13  14
ENDBRANCH  11  13
ENDBRANCH   9  11
BRANCH   1  23
ATOM     23  C   UNL     1       2.700  -4.843   0.050  0.00  0.00    +0.180 C 
BRANCH  23  25
ATOM     24  N   UNL     1       4.538  -3.555   1.088  0.00  0.00    -0.315 N 
ATOM     25  C   UNL     1       3.868  -3.896  -0.031  0.00  0.00    +0.227 C 
ATOM     26  O   UNL     1       4.206  -3.440  -1.103  0.00  0.00    -0.274 OA
ATOM     27  H   UNL     1       4.268  -3.919   1.945  0.00  0.00    +0.149 HD
BRANCH  24  29
ATOM     28  C   UNL     1       6.252  -2.415   2.409  0.00  0.00    +0.024 C 
ATOM     29  C   UNL     1       5.675  -2.633   1.009  0.00  0.00    +0.101 C 
ENDBRANCH  24  29
ENDBRANCH  23  25
ENDBRANCH   1  23
TORSDOF 6
