REMARK  Name = ZINC15940679
REMARK  12 active torsions:
REMARK  status: ('A' for Active; 'I' for Inactive)
REMARK    1  A    between atoms: C_1  and  C_2
REMARK    2  A    between atoms: C_2  and  C_34
REMARK    3  A    between atoms: N_5  and  C_9
REMARK    4  A    between atoms: C_9  and  C_10
REMARK    5  A    between atoms: N_12  and  C_13
REMARK    6  A    between atoms: N_12  and  C_20
REMARK    7  A    between atoms: C_13  and  C_14
REMARK    8  A    between atoms: C_21  and  N_33
REMARK    9  A    between atoms: N_22  and  C_29
REMARK   10  A    between atoms: C_29  and  C_30
REMARK   11  A    between atoms: C_30  and  O_31
REMARK   12  A    between atoms: O_31  and  C_32
REMARK                            x       y       z     vdW  Elec       q    Type
REMARK                         _______ _______ _______ _____ _____    ______ ____
ROOT
ATOM      1  C   UNL     1      -2.759  -3.523   0.879  0.00  0.00    +0.238 C 
ATOM      2  O   UNL     1      -2.218  -4.050  -0.070  0.00  0.00    -0.273 OA
ATOM      3  N   UNL     1      -3.515  -4.259   1.720  0.00  0.00    -0.259 N 
ENDROOT
BRANCH   3   4
ATOM      4  C   UNL     1      -3.595  -5.658   1.554  0.00  0.00    +0.140 A 
ATOM      5  C   UNL     1      -4.783  -6.255   1.186  0.00  0.00    +0.127 A 
ATOM      6  N   UNL     1      -4.830  -7.621   1.032  0.00  0.00    -0.278 N 
ATOM      7  C   UNL     1      -3.729  -8.367   1.239  0.00  0.00    +0.331 A 
ATOM      8  O   UNL     1      -3.791  -9.573   1.098  0.00  0.00    -0.246 OA
ATOM      9  N   UNL     1      -2.562  -7.803   1.598  0.00  0.00    -0.273 N 
ATOM     10  H   UNL     1      -1.783  -8.363   1.741  0.00  0.00    +0.173 HD
ATOM     11  C   UNL     1      -2.462  -6.469   1.757  0.00  0.00    +0.277 A 
ATOM     12  O   UNL     1      -1.398  -5.968   2.079  0.00  0.00    -0.266 OA
BRANCH   5  13
ATOM     13  N   UNL     1      -5.907  -5.493   0.975  0.00  0.00    -0.343 N 
ATOM     14  H   UNL     1      -5.848  -4.525   0.993  0.00  0.00    +0.144 HD
ATOM     15  H   UNL     1      -6.760  -5.923   0.807  0.00  0.00    +0.144 HD
ENDBRANCH   5  13
BRANCH   6  16
ATOM     16  C   UNL     1      -6.085  -8.267   0.641  0.00  0.00    +0.156 C 
BRANCH  16  17
ATOM     17  C   UNL     1      -6.163  -8.348  -0.885  0.00  0.00    +0.181 C 
BRANCH  17  18
ATOM     18  O   UNL     1      -5.129  -9.206  -1.370  0.00  0.00    -0.381 OA
ATOM     19  C   UNL     1      -5.113  -9.351  -2.792  0.00  0.00    +0.194 C 
ENDBRANCH  17  18
ENDBRANCH  16  17
ENDBRANCH   6  16
ENDBRANCH   3   4
BRANCH   1  20
ATOM     20  C   UNL     1      -2.586  -2.045   1.120  0.00  0.00    +0.214 C 
BRANCH  20  25
ATOM     21  C   UNL     1      -1.148   1.020  -2.136  0.00  0.00    +0.047 C 
ATOM     22  C   UNL     1      -1.064  -0.488  -1.889  0.00  0.00    +0.135 C 
ATOM     23  C   UNL     1      -2.264  -0.966  -1.096  0.00  0.00    +0.251 C 
ATOM     24  O   UNL     1      -3.429  -0.909  -1.426  0.00  0.00    -0.272 OA
ATOM     25  N   UNL     1      -1.767  -1.469   0.051  0.00  0.00    -0.215 N 
ATOM     26  C   UNL     1      -0.433  -1.375   0.093  0.00  0.00    +0.310 C 
ATOM     27  O   UNL     1       0.242  -1.762   1.027  0.00  0.00    -0.252 OA
ATOM     28  N   UNL     1       0.078  -0.806  -1.014  0.00  0.00    -0.281 N 
ATOM     29  H   UNL     1       1.015  -0.639  -1.200  0.00  0.00    +0.152 HD
BRANCH  22  30
ATOM     30  C   UNL     1      -0.955  -1.233  -3.194  0.00  0.00    -0.016 A 
ATOM     31  C   UNL     1      -2.099  -1.658  -3.845  0.00  0.00    +0.006 A 
ATOM     32  C   UNL     1      -1.999  -2.341  -5.042  0.00  0.00    +0.000 A 
ATOM     33  C   UNL     1      -0.756  -2.599  -5.590  0.00  0.00    +0.000 A 
ATOM     34  C   UNL     1       0.387  -2.173  -4.940  0.00  0.00    +0.000 A 
ATOM     35  C   UNL     1       0.287  -1.486  -3.745  0.00  0.00    +0.006 A 
ENDBRANCH  22  30
ENDBRANCH  20  25
ENDBRANCH   1  20
BRANCH   3  36
ATOM     36  C   UNL     1      -4.253  -3.607   2.804  0.00  0.00    +0.149 C 
BRANCH  36  37
ATOM     37  C   UNL     1      -3.442  -3.670   4.073  0.00  0.00    -0.030 A 
ATOM     38  C   UNL     1      -3.509  -4.790   4.881  0.00  0.00    +0.005 A 
ATOM     39  C   UNL     1      -2.766  -4.848   6.045  0.00  0.00    +0.000 A 
ATOM     40  C   UNL     1      -1.955  -3.786   6.400  0.00  0.00    +0.000 A 
ATOM     41  C   UNL     1      -1.887  -2.667   5.592  0.00  0.00    +0.000 A 
ATOM     42  C   UNL     1      -2.627  -2.611   4.426  0.00  0.00    +0.005 A 
ENDBRANCH  36  37
ENDBRANCH   3  36
TORSDOF 10
