REMARK  Name = ZINC42143869
REMARK  3 active torsions:
REMARK  status: ('A' for Active; 'I' for Inactive)
REMARK    1  A    between atoms: C_4  and  S_7
REMARK    2  A    between atoms: S_7  and  C_8
REMARK    3  A    between atoms: C_13  and  N_17
REMARK                            x       y       z     vdW  Elec       q    Type
REMARK                         _______ _______ _______ _____ _____    ______ ____
ROOT
ATOM      1  C   UNL     1       3.345  -2.528  -0.043  0.00  0.00    +0.266 A 
ATOM      2  N   UNL     1       2.109  -2.954  -0.040  0.00  0.00    -0.203 NA
ATOM      3  C   UNL     1       2.116  -4.316  -0.045  0.00  0.00    +0.111 A 
ATOM      4  C   UNL     1       1.111  -5.284  -0.044  0.00  0.00    +0.033 A 
ATOM      5  C   UNL     1       1.445  -6.620  -0.050  0.00  0.00    +0.025 A 
ATOM      6  C   UNL     1       2.782  -7.010  -0.057  0.00  0.00    +0.028 A 
ATOM      7  C   UNL     1       3.788  -6.057  -0.059  0.00  0.00    +0.071 A 
ATOM      8  C   UNL     1       3.463  -4.710  -0.052  0.00  0.00    +0.158 A 
ATOM      9  O   UNL     1       4.194  -3.572  -0.057  0.00  0.00    -0.430 OA
ENDROOT
BRANCH   6  10
ATOM     10  N   UNL     1       3.110  -8.370  -0.063  0.00  0.00    -0.358 N 
ATOM     11  H   UNL     1       2.408  -9.038  -0.061  0.00  0.00    +0.142 HD
ATOM     12  H   UNL     1       4.041  -8.644  -0.068  0.00  0.00    +0.142 HD
ENDBRANCH   6  10
BRANCH   1  13
ATOM     13  S   UNL     1       3.829  -0.834  -0.039  0.00  0.00    +0.009 S 
BRANCH  13  17
ATOM     14  C   UNL     1      -0.017   1.382   0.010  0.00  0.00    +0.039 A 
ATOM     15  C   UNL     1       1.192   2.061   0.002  0.00  0.00    +0.115 A 
ATOM     16  N   UNL     1       2.320   1.371  -0.013  0.00  0.00    -0.230 NA
ATOM     17  C   UNL     1       2.303   0.046  -0.020  0.00  0.00    +0.197 A 
ATOM     18  N   UNL     1       1.165  -0.633  -0.013  0.00  0.00    -0.230 NA
ATOM     19  C   UNL     1       0.002  -0.004   0.002  0.00  0.00    +0.115 A 
ENDBRANCH  13  17
ENDBRANCH   1  13
TORSDOF 3
