REMARK  Name = ZINC17727917
REMARK  5 active torsions:
REMARK  status: ('A' for Active; 'I' for Inactive)
REMARK    1  A    between atoms: C_3  and  C_11
REMARK    2  A    between atoms: C_5  and  N_7
REMARK    3  A    between atoms: C_11  and  O_13
REMARK    4  A    between atoms: O_13  and  C_14
REMARK    5  A    between atoms: C_14  and  C_15
REMARK                            x       y       z     vdW  Elec       q    Type
REMARK                         _______ _______ _______ _____ _____    ______ ____
ROOT
ATOM      1  C   UNL     1      -2.485   1.013  -0.364  0.00  0.00    +0.340 C 
ATOM      2  O   UNL     1      -3.532   1.611  -0.509  0.00  0.00    -0.245 OA
ENDROOT
BRANCH   1   5
ATOM      3  C   UNL     1       1.154   1.778   0.164  0.00  0.00    +0.003 A 
ATOM      4  C   UNL     1      -0.021   1.076  -0.007  0.00  0.00    +0.015 A 
ATOM      5  C   UNL     1      -1.226   1.762  -0.174  0.00  0.00    +0.061 A 
ATOM      6  C   UNL     1      -1.237   3.157  -0.157  0.00  0.00    +0.038 A 
ATOM      7  C   UNL     1      -0.051   3.853   0.016  0.00  0.00    +0.036 A 
ATOM      8  C   UNL     1       1.144   3.160   0.176  0.00  0.00    +0.023 A 
BRANCH   7   9
ATOM      9  N   UNL     1      -0.056   5.252   0.028  0.00  0.00    -0.270 N 
ATOM     10  C   UNL     1      -1.113   5.918   0.534  0.00  0.00    +0.301 C 
ATOM     11  O   UNL     1      -2.018   5.306   1.067  0.00  0.00    -0.253 OA
ATOM     12  N   UNL     1      -1.166   7.262   0.449  0.00  0.00    -0.313 N 
ATOM     13  H   UNL     1       0.702   5.743  -0.328  0.00  0.00    +0.156 HD
ATOM     14  H   UNL     1      -0.444   7.750   0.024  0.00  0.00    +0.146 HD
ATOM     15  H   UNL     1      -1.927   7.741   0.813  0.00  0.00    +0.146 HD
ENDBRANCH   7   9
ENDBRANCH   1   5
BRANCH   1  16
ATOM     16  O   UNL     1      -2.472  -0.334  -0.376  0.00  0.00    -0.456 OA
BRANCH  16  17
ATOM     17  C   UNL     1      -3.747  -1.004  -0.567  0.00  0.00    +0.268 C 
BRANCH  17  18
ATOM     18  C   UNL     1      -3.537  -2.496  -0.552  0.00  0.00    -0.005 A 
ATOM     19  C   UNL     1      -3.275  -3.168  -1.733  0.00  0.00    +0.056 A 
ATOM     20  C   UNL     1      -3.078  -4.538  -1.715  0.00  0.00    +0.164 A 
ATOM     21  C   UNL     1      -3.155  -5.236  -0.518  0.00  0.00    +0.180 A 
ATOM     22  C   UNL     1      -3.422  -4.562   0.662  0.00  0.00    +0.087 A 
ATOM     23  C   UNL     1      -3.612  -3.190   0.641  0.00  0.00    +0.031 A 
ATOM     24 CL   UNL     1      -3.517  -5.433   2.161  0.00  0.00    -0.080 Cl
ATOM     25  O   UNL     1      -2.966  -6.588  -0.512  0.00  0.00    -0.487 OA
ATOM     26  C   UNL     1      -1.642  -7.035  -0.808  0.00  0.00    +0.232 C 
ATOM     27  C   UNL     1      -1.426  -7.123  -2.311  0.00  0.00    +0.082 C 
ATOM     28  C   UNL     1      -1.501  -5.763  -2.988  0.00  0.00    +0.232 C 
ATOM     29  O   UNL     1      -2.814  -5.211  -2.872  0.00  0.00    -0.488 OA
ENDBRANCH  17  18
ENDBRANCH  16  17
ENDBRANCH   1  16
TORSDOF 5
