REMARK  Name = ZINC18168746
REMARK  6 active torsions:
REMARK  status: ('A' for Active; 'I' for Inactive)
REMARK    1  A    between atoms: C_1  and  C_2
REMARK    2  A    between atoms: C_2  and  C_3
REMARK    3  A    between atoms: C_3  and  C_4
REMARK    4  A    between atoms: C_4  and  C_5
REMARK    5  A    between atoms: C_5  and  N_6
REMARK    6  A    between atoms: C_15  and  C_28
REMARK                            x       y       z     vdW  Elec       q    Type
REMARK                         _______ _______ _______ _____ _____    ______ ____
ROOT
ATOM      1  N   UNL     1       2.466   1.203  -2.629  0.00  0.00    -0.225 N 
ATOM      2  C   UNL     1       1.296   1.857  -2.596  0.00  0.00    +0.240 C 
ATOM      3  O   UNL     1       1.296   3.067  -2.654  0.00  0.00    -0.274 OA
ATOM      4  C   UNL     1      -0.015   1.131  -2.490  0.00  0.00    +0.146 C 
ATOM      5  C   UNL     1      -0.889   1.474  -3.700  0.00  0.00    +0.066 C 
ATOM      6  C   UNL     1      -1.362   2.902  -3.587  0.00  0.00    -0.007 A 
ATOM      7  C   UNL     1      -1.861   3.502  -4.709  0.00  0.00    +0.017 A 
ATOM      8  C   UNL     1      -2.308   4.834  -4.622  0.00  0.00    -0.001 A 
ATOM      9  C   UNL     1      -2.831   5.507  -5.737  0.00  0.00    +0.013 A 
ATOM     10  C   UNL     1      -3.249   6.797  -5.610  0.00  0.00    -0.050 A 
ATOM     11  C   UNL     1      -3.164   7.457  -4.386  0.00  0.00    +0.005 A 
ATOM     12  C   UNL     1      -2.663   6.834  -3.284  0.00  0.00    +0.026 A 
ATOM     13  C   UNL     1      -2.224   5.502  -3.376  0.00  0.00    +0.048 A 
ATOM     14  N   UNL     1      -1.731   4.863  -2.313  0.00  0.00    -0.343 N 
ATOM     15  C   UNL     1      -1.304   3.608  -2.381  0.00  0.00    +0.103 A 
ATOM     16  N   UNL     1      -0.802   3.055  -1.214  0.00  0.00    -0.312 N 
ATOM     17  C   UNL     1      -0.755   1.594  -1.230  0.00  0.00    +0.099 C 
ATOM     18  C   UNL     1      -0.013   1.086   0.008  0.00  0.00    +0.024 C 
ATOM     19  C   UNL     1      -0.732   1.581   1.266  0.00  0.00    +0.003 C 
ATOM     20  C   UNL     1      -0.805   3.110   1.234  0.00  0.00    +0.019 C 
ATOM     21  C   UNL     1      -1.527   3.556  -0.039  0.00  0.00    +0.107 C 
ATOM     22  C   UNL     1      -3.810   7.518  -6.807  0.00  0.00    +0.044 C 
ATOM     23  C   UNL     1       0.202  -0.354  -2.430  0.00  0.00    +0.238 C 
ATOM     24  O   UNL     1      -0.760  -1.086  -2.341  0.00  0.00    -0.274 OA
ATOM     25  N   UNL     1       1.429  -0.892  -2.470  0.00  0.00    -0.239 N 
ATOM     26  C   UNL     1       2.532  -0.136  -2.568  0.00  0.00    +0.315 C 
ATOM     27  O   UNL     1       3.620  -0.677  -2.602  0.00  0.00    -0.252 OA
ATOM     28  H   UNL     1       1.552  -1.984  -2.423  0.00  0.00    +0.159 HD
ATOM     29  H   UNL     1      -1.669   5.376  -1.342  0.00  0.00    +0.167 HD
ENDROOT
BRANCH   1  30
ATOM     30  C   UNL     1       3.708   1.972  -2.735  0.00  0.00    +0.118 C 
BRANCH  30  31
ATOM     31  C   UNL     1       4.061   2.171  -4.210  0.00  0.00    +0.019 C 
BRANCH  31  32
ATOM     32  C   UNL     1       5.358   2.975  -4.320  0.00  0.00    +0.001 C 
BRANCH  32  34
ATOM     33  C   UNL     1       7.008   3.978  -5.906  0.00  0.00    +0.004 C 
ATOM     34  C   UNL     1       5.711   3.174  -5.796  0.00  0.00    -0.003 C 
ENDBRANCH  32  34
ENDBRANCH  31  32
ENDBRANCH  30  31
ENDBRANCH   1  30
TORSDOF 4
