REMARK  Name = ZINC40009787
REMARK  9 active torsions:
REMARK  status: ('A' for Active; 'I' for Inactive)
REMARK    1  A    between atoms: C_1  and  C_2
REMARK    2  A    between atoms: C_2  and  O_3
REMARK    3  A    between atoms: O_3  and  C_4
REMARK    4  A    between atoms: C_4  and  C_6
REMARK    5  A    between atoms: C_8  and  N_19
REMARK    6  A    between atoms: C_15  and  C_18
REMARK    7  A    between atoms: C_20  and  C_22
REMARK    8  A    between atoms: C_22  and  S_23
REMARK    9  A    between atoms: S_23  and  C_24
REMARK                            x       y       z     vdW  Elec       q    Type
REMARK                         _______ _______ _______ _____ _____    ______ ____
ROOT
ATOM      1  C   UNL     1       1.468  -2.353  -2.550  0.00  0.00    +0.155 C 
ATOM      2  C   UNL     1       2.888  -1.745  -2.648  0.00  0.00    +0.153 C 
ATOM      3  S   UNL     1       3.771  -3.207  -3.338  0.00  0.00    -0.106 S 
ATOM      4  C   UNL     1       2.630  -4.467  -2.819  0.00  0.00    -0.012 C 
ATOM      5  C   UNL     1       1.516  -3.857  -2.441  0.00  0.00    -0.044 C 
ATOM      6  C   UNL     1       0.323  -4.654  -1.917  0.00  0.00    +0.033 C 
ATOM      7  C   UNL     1       0.795  -6.045  -1.497  0.00  0.00    +0.008 C 
ATOM      8  C   UNL     1       1.574  -6.689  -2.648  0.00  0.00    -0.009 C 
ATOM      9  C   UNL     1       2.899  -5.946  -2.813  0.00  0.00    +0.045 C 
ATOM     10  C   UNL     1       1.840  -8.162  -2.329  0.00  0.00    +0.008 C 
ENDROOT
BRANCH   2  11
ATOM     11  N   UNL     1       3.406  -1.376  -1.328  0.00  0.00    -0.301 N 
ATOM     12  C   UNL     1       4.672  -1.693  -0.989  0.00  0.00    +0.224 C 
ATOM     13  O   UNL     1       5.381  -2.283  -1.776  0.00  0.00    -0.275 OA
ATOM     14  H   UNL     1       2.839  -0.904  -0.699  0.00  0.00    +0.150 HD
BRANCH  12  15
ATOM     15  C   UNL     1       5.206  -1.313   0.368  0.00  0.00    +0.173 C 
BRANCH  15  16
ATOM     16  S   UNL     1       6.924  -1.873   0.520  0.00  0.00    -0.075 S 
BRANCH  16  17
ATOM     17  C   UNL     1       7.398  -1.361   2.139  0.00  0.00    +0.210 A 
ATOM     18  N   UNL     1       6.630  -0.727   2.993  0.00  0.00    -0.144 NA
ATOM     19  H   UNL     1       7.107  -0.069   4.963  0.00  0.00    +0.192 HD
ATOM     20  N   UNL     1       7.395  -0.514   4.151  0.00  0.00    -0.246 N 
ATOM     21  C   UNL     1       8.610  -1.049   3.910  0.00  0.00    +0.209 A 
ATOM     22  N   UNL     1       8.597  -1.560   2.698  0.00  0.00    -0.188 NA
ATOM     23  N   UNL     1       9.680  -1.063   4.787  0.00  0.00    -0.328 N 
ATOM     24  H   UNL     1       9.592  -0.662   5.665  0.00  0.00    +0.145 HD
ATOM     25  H   UNL     1      10.518  -1.474   4.522  0.00  0.00    +0.145 HD
ENDBRANCH  16  17
ENDBRANCH  15  16
ENDBRANCH  12  15
ENDBRANCH   2  11
BRANCH   1  26
ATOM     26  C   UNL     1       0.775  -1.794  -1.334  0.00  0.00    +0.317 C 
ATOM     27  O   UNL     1       0.941  -2.309  -0.254  0.00  0.00    -0.250 OA
BRANCH  26  28
ATOM     28  O   UNL     1      -0.025  -0.722  -1.452  0.00  0.00    -0.464 OA
BRANCH  28  30
ATOM     29  C   UNL     1      -1.516   0.972  -0.587  0.00  0.00    +0.048 C 
ATOM     30  C   UNL     1      -0.649  -0.245  -0.258  0.00  0.00    +0.229 C 
ENDBRANCH  28  30
ENDBRANCH  26  28
ENDBRANCH   1  26
TORSDOF 7
