REMARK  Name = ZINC38597572
REMARK  6 active torsions:
REMARK  status: ('A' for Active; 'I' for Inactive)
REMARK    1  A    between atoms: C_9  and  C_12
REMARK    2  A    between atoms: N_14  and  C_15
REMARK    3  A    between atoms: C_15  and  C_16
REMARK    4  A    between atoms: C_16  and  C_18
REMARK    5  A    between atoms: C_16  and  N_23
REMARK    6  A    between atoms: N_26  and  C_29
REMARK                            x       y       z     vdW  Elec       q    Type
REMARK                         _______ _______ _______ _____ _____    ______ ____
ROOT
ATOM      1  C   UNL     1       6.431  -5.874   0.141  0.00  0.00    +0.017 C 
ENDROOT
BRANCH   1   2
ATOM      2  N   UNL     1       6.190  -6.250   1.540  0.00  0.00    +0.389 N 
ATOM      3  C   UNL     1       7.294  -5.758   2.374  0.00  0.00    -0.059 C 
ATOM      4  C   UNL     1       6.989  -6.048   3.847  0.00  0.00    +0.086 C 
ATOM      5  N   UNL     1       6.713  -7.486   3.991  0.00  0.00    -0.333 N 
ATOM      6  C   UNL     1       5.734  -8.099   3.081  0.00  0.00    +0.086 C 
ATOM      7  C   UNL     1       6.098  -7.712   1.644  0.00  0.00    -0.059 C 
ATOM      8  H   UNL     1       5.325  -5.836   1.854  0.00  0.00    -0.081 HD
BRANCH   5   9
ATOM      9  C   UNL     1       7.363  -8.249   4.967  0.00  0.00    +0.030 A 
ATOM     10  C   UNL     1       8.191  -7.631   5.895  0.00  0.00    +0.026 A 
ATOM     11  C   UNL     1       8.832  -8.386   6.858  0.00  0.00    +0.040 A 
ATOM     12  C   UNL     1       8.649  -9.758   6.898  0.00  0.00    +0.124 A 
ATOM     13  C   UNL     1       7.823 -10.376   5.974  0.00  0.00    +0.040 A 
ATOM     14  C   UNL     1       7.177  -9.624   5.013  0.00  0.00    +0.026 A 
ATOM     15  F   UNL     1       9.276 -10.495   7.841  0.00  0.00    -0.205 F 
ENDBRANCH   5   9
ENDBRANCH   1   2
BRANCH   1  16
ATOM     16  C   UNL     1       7.671  -6.568  -0.360  0.00  0.00    +0.093 A 
ATOM     17  C   UNL     1       7.776  -7.260  -1.509  0.00  0.00    +0.043 A 
ATOM     18  C   UNL     1       9.104  -7.738  -1.579  0.00  0.00    +0.041 A 
ATOM     19  C   UNL     1       9.732  -7.310  -0.470  0.00  0.00    +0.195 A 
ATOM     20  O   UNL     1       8.861  -6.597   0.263  0.00  0.00    -0.469 OA
ENDBRANCH   1  16
BRANCH   1  21
ATOM     21  C   UNL     1       6.622  -4.359   0.045  0.00  0.00    +0.096 C 
BRANCH  21  24
ATOM     22  C   UNL     1       5.436  -2.340   0.723  0.00  0.00    +0.257 C 
ATOM     23  O   UNL     1       6.399  -1.692   0.372  0.00  0.00    -0.272 OA
ATOM     24  N   UNL     1       5.447  -3.683   0.601  0.00  0.00    -0.313 N 
ATOM     25  H   UNL     1       4.676  -4.201   0.882  0.00  0.00    +0.149 HD
BRANCH  22  34
ATOM     26  C   UNL     1       1.240   2.228   2.070  0.00  0.00    +0.004 A 
ATOM     27  C   UNL     1       2.522   2.682   2.316  0.00  0.00    +0.004 A 
ATOM     28  C   UNL     1       3.605   1.853   2.094  0.00  0.00    +0.049 A 
ATOM     29  C   UNL     1       3.408   0.563   1.623  0.00  0.00    +0.163 A 
ATOM     30  C   UNL     1       2.119   0.106   1.379  0.00  0.00    +0.162 A 
ATOM     31  C   UNL     1       1.036   0.944   1.602  0.00  0.00    +0.049 A 
ATOM     32  O   UNL     1       1.902  -1.159   0.924  0.00  0.00    -0.484 OA
ATOM     33  C   UNL     1       3.027  -1.841   0.359  0.00  0.00    +0.283 C 
ATOM     34  C   UNL     1       4.228  -1.645   1.295  0.00  0.00    +0.296 C 
ATOM     35  O   UNL     1       4.485  -0.241   1.406  0.00  0.00    -0.473 OA
ENDBRANCH  22  34
ENDBRANCH  21  24
ENDBRANCH   1  21
TORSDOF 6
