REMARK  Name = ZINC14547912
REMARK  4 active torsions:
REMARK  status: ('A' for Active; 'I' for Inactive)
REMARK    1  A    between atoms: C_9  and  O_37
REMARK    2  A    between atoms: C_10  and  C_11
REMARK    3  A    between atoms: C_22  and  S_27
REMARK    4  A    between atoms: S_27  and  N_30
REMARK                            x       y       z     vdW  Elec       q    Type
REMARK                         _______ _______ _______ _____ _____    ______ ____
ROOT
ATOM      1  C   UNL     1       2.555  -0.358   0.046  0.00  0.00    +0.109 C 
ATOM      2  C   UNL     1       3.135  -0.812   1.388  0.00  0.00    +0.029 C 
ATOM      3  C   UNL     1       2.389  -0.024   2.505  0.00  0.00    +0.033 C 
ATOM      4  C   UNL     1       3.117   1.306   2.541  0.00  0.00    -0.030 C 
ATOM      5  C   UNL     1       4.316   1.188   2.026  0.00  0.00    -0.023 C 
ATOM      6  C   UNL     1       4.552  -0.233   1.571  0.00  0.00    +0.049 C 
ATOM      7  C   UNL     1       5.367  -0.279   0.318  0.00  0.00    -0.018 A 
ATOM      8  C   UNL     1       6.730  -0.029   0.400  0.00  0.00    +0.034 A 
ATOM      9  C   UNL     1       7.519  -0.065  -0.731  0.00  0.00    +0.106 A 
ATOM     10  C   UNL     1       6.960  -0.351  -1.964  0.00  0.00    +0.030 A 
ATOM     11  C   UNL     1       5.605  -0.600  -2.058  0.00  0.00    +0.025 A 
ATOM     12  C   UNL     1       4.810  -0.563  -0.920  0.00  0.00    +0.031 A 
ATOM     13  N   UNL     1       3.438  -0.816  -1.032  0.00  0.00    -0.336 N 
ATOM     14  H   UNL     1       3.081  -1.282  -1.804  0.00  0.00    +0.147 HD
ENDROOT
BRANCH   1  24
ATOM     15  C   UNL     1      -0.884   3.116   1.560  0.00  0.00    +0.001 A 
ATOM     16  C   UNL     1      -0.817   1.724   1.589  0.00  0.00    +0.001 A 
ATOM     17  C   UNL     1       0.266   1.064   1.098  0.00  0.00    +0.009 A 
ATOM     18  C   UNL     1       1.331   1.793   0.541  0.00  0.00    -0.009 A 
ATOM     19  C   UNL     1       1.261   3.208   0.506  0.00  0.00    -0.017 A 
ATOM     20  C   UNL     1       0.128   3.855   1.029  0.00  0.00    +0.008 A 
ATOM     21  C   UNL     1       2.325   3.939  -0.051  0.00  0.00    +0.012 A 
ATOM     22  C   UNL     1       3.407   3.283  -0.549  0.00  0.00    +0.046 A 
ATOM     23  C   UNL     1       3.478   1.887  -0.516  0.00  0.00    +0.122 A 
ATOM     24  C   UNL     1       2.462   1.145   0.018  0.00  0.00    +0.022 A 
BRANCH  23  25
ATOM     25  O   UNL     1       4.572   1.259  -1.021  0.00  0.00    -0.506 OA
ATOM     26  H   UNL     1       4.550   1.141  -1.981  0.00  0.00    +0.292 HD
ENDBRANCH  23  25
ENDBRANCH   1  24
BRANCH   9  27
ATOM     27  S   UNL     1       9.247   0.255  -0.606  0.00  0.00    +0.061 S 
ATOM     28  O   UNL     1       9.619  -0.041   0.734  0.00  0.00    -0.153 OA
ATOM     29  O   UNL     1       9.859  -0.375  -1.723  0.00  0.00    -0.153 OA
BRANCH  27  30
ATOM     30  N   UNL     1       9.459   1.885  -0.807  0.00  0.00    -0.177 NA
ATOM     31  C   UNL     1       9.677   2.396  -2.142  0.00  0.00    +0.109 C 
ATOM     32  C   UNL     1      11.185   2.396  -2.466  0.00  0.00    +0.017 C 
ATOM     33  C   UNL     1      11.873   3.440  -1.690  0.00  0.00    +0.001 C 
ATOM     34  C   UNL     1      11.809   3.245  -0.179  0.00  0.00    +0.001 C 
ATOM     35  C   UNL     1      10.524   3.833   0.348  0.00  0.00    +0.017 C 
ATOM     36  C   UNL     1       9.425   2.755   0.385  0.00  0.00    +0.109 C 
ENDBRANCH  27  30
ENDBRANCH   9  27
TORSDOF 4
