REMARK  Name = ZINC18219556
REMARK  2 active torsions:
REMARK  status: ('A' for Active; 'I' for Inactive)
REMARK    1  A    between atoms: C_4  and  N_7
REMARK    2  A    between atoms: C_12  and  C_30
REMARK                            x       y       z     vdW  Elec       q    Type
REMARK                         _______ _______ _______ _____ _____    ______ ____
ROOT
ATOM      1  N   UNL     1       3.582  -0.963   0.070  0.00  0.00    -0.210 N 
ATOM      2  C   UNL     1       4.738  -0.236   0.024  0.00  0.00    +0.233 C 
ATOM      3  O   UNL     1       4.876   0.937   0.295  0.00  0.00    -0.274 OA
ATOM      4  C   UNL     1       5.804  -1.194  -0.433  0.00  0.00    +0.125 C 
ATOM      5  C   UNL     1       7.165  -1.197   0.274  0.00  0.00    +0.163 C 
ATOM      6  O   UNL     1       7.541  -2.607   0.259  0.00  0.00    -0.348 OA
ATOM      7  C   UNL     1       6.327  -3.413   0.234  0.00  0.00    +0.206 C 
ATOM      8  C   UNL     1       5.219  -2.453   0.331  0.00  0.00    +0.138 C 
ATOM      9  C   UNL     1       3.808  -2.318   0.067  0.00  0.00    +0.234 C 
ATOM     10  O   UNL     1       3.001  -3.203  -0.118  0.00  0.00    -0.274 OA
ATOM     11  C   UNL     1       6.306  -4.226  -1.036  0.00  0.00    +0.204 C 
ATOM     12  O   UNL     1       6.266  -3.791  -2.168  0.00  0.00    -0.288 OA
ATOM     13  C   UNL     1       6.344  -5.647  -0.646  0.00  0.00    +0.031 A 
ATOM     14  C   UNL     1       6.341  -6.806  -1.426  0.00  0.00    +0.012 A 
ATOM     15  C   UNL     1       6.383  -8.048  -0.821  0.00  0.00    +0.001 A 
ATOM     16  C   UNL     1       6.428  -8.155   0.558  0.00  0.00    +0.001 A 
ATOM     17  C   UNL     1       6.431  -7.021   1.347  0.00  0.00    +0.012 A 
ATOM     18  C   UNL     1       6.390  -5.756   0.757  0.00  0.00    +0.031 A 
ATOM     19  C   UNL     1       6.383  -4.412   1.363  0.00  0.00    +0.204 C 
ATOM     20  O   UNL     1       6.416  -4.157   2.548  0.00  0.00    -0.288 OA
ENDROOT
BRANCH   5  21
ATOM     21  C   UNL     1       7.033  -0.692   1.688  0.00  0.00    -0.018 A 
ATOM     22  C   UNL     1       7.187  -1.563   2.750  0.00  0.00    +0.009 A 
ATOM     23  C   UNL     1       7.066  -1.101   4.046  0.00  0.00    +0.039 A 
ATOM     24  C   UNL     1       6.790   0.236   4.282  0.00  0.00    +0.123 A 
ATOM     25  C   UNL     1       6.637   1.108   3.217  0.00  0.00    +0.039 A 
ATOM     26  C   UNL     1       6.763   0.644   1.921  0.00  0.00    +0.009 A 
ATOM     27  F   UNL     1       6.672   0.689   5.549  0.00  0.00    -0.205 F 
ENDBRANCH   5  21
BRANCH   1  31
ATOM     28  C   UNL     1      -0.217   0.746   0.217  0.00  0.00    +0.000 A 
ATOM     29  C   UNL     1       0.902   1.556   0.167  0.00  0.00    +0.002 A 
ATOM     30  C   UNL     1       2.162   0.993   0.119  0.00  0.00    +0.024 A 
ATOM     31  C   UNL     1       2.304  -0.388   0.120  0.00  0.00    +0.044 A 
ATOM     32  C   UNL     1       1.178  -1.199   0.170  0.00  0.00    +0.024 A 
ATOM     33  C   UNL     1      -0.079  -0.629   0.218  0.00  0.00    +0.002 A 
ENDBRANCH   1  31
TORSDOF 2
