REMARK  Name = ZINC66677555
REMARK  7 active torsions:
REMARK  status: ('A' for Active; 'I' for Inactive)
REMARK    1  A    between atoms: C_1  and  C_2
REMARK    2  A    between atoms: C_2  and  C_3
REMARK    3  A    between atoms: C_2  and  C_4
REMARK    4  A    between atoms: C_2  and  N_19
REMARK    5  A    between atoms: N_6  and  C_7
REMARK    6  A    between atoms: C_10  and  N_14
REMARK    7  A    between atoms: N_22  and  C_23
REMARK                            x       y       z     vdW  Elec       q    Type
REMARK                         _______ _______ _______ _____ _____    ______ ____
ROOT
ATOM      1  C   UNL     1      -1.416  -0.517   0.014  0.00  0.00    +0.240 C 
ATOM      2  O   UNL     1      -1.943  -0.821   1.063  0.00  0.00    -0.273 OA
ATOM      3  N   UNL     1      -2.090  -0.657  -1.144  0.00  0.00    -0.284 N 
ATOM      4  H   UNL     1      -1.693  -0.355  -1.976  0.00  0.00    +0.155 HD
ENDROOT
BRANCH   3   5
ATOM      5  C   UNL     1      -3.364  -1.239  -1.147  0.00  0.00    +0.035 A 
ATOM      6  C   UNL     1      -3.760  -2.039  -2.211  0.00  0.00    +0.025 A 
ATOM      7  C   UNL     1      -5.015  -2.613  -2.214  0.00  0.00    +0.031 A 
ATOM      8  C   UNL     1      -5.883  -2.390  -1.153  0.00  0.00    +0.084 A 
ATOM      9  C   UNL     1      -5.488  -1.589  -0.089  0.00  0.00    +0.068 A 
ATOM     10  C   UNL     1      -4.229  -1.020  -0.083  0.00  0.00    +0.045 A 
ATOM     11 CL   UNL     1      -6.573  -1.310   1.237  0.00  0.00    -0.081 Cl
BRANCH   8  12
ATOM     12  N   UNL     1      -7.160  -2.972  -1.157  0.00  0.00    -0.238 N 
ATOM     13  C   UNL     1      -7.440  -4.273  -1.395  0.00  0.00    +0.114 A 
ATOM     14  C   UNL     1      -8.781  -4.428  -1.307  0.00  0.00    +0.041 A 
ATOM     15  C   UNL     1      -9.340  -3.181  -1.006  0.00  0.00    +0.135 A 
ATOM     16  N   UNL     1      -8.369  -2.309  -0.910  0.00  0.00    -0.175 NA
ENDBRANCH   8  12
ENDBRANCH   3   5
BRANCH   1  18
ATOM     17  C   UNL     1      -0.042   1.548   0.011  0.00  0.00    +0.041 C 
ATOM     18  C   UNL     1      -0.007   0.018   0.006  0.00  0.00    +0.107 C 
ATOM     19  C   UNL     1       0.735  -0.479   1.248  0.00  0.00    +0.041 C 
BRANCH  18  20
ATOM     20  N   UNL     1       0.686  -0.450  -1.197  0.00  0.00    -0.286 N 
ATOM     21  C   UNL     1       1.967  -0.094  -1.419  0.00  0.00    +0.300 C 
ATOM     22  O   UNL     1       2.547   0.616  -0.620  0.00  0.00    -0.253 OA
ATOM     23  N   UNL     1       2.605  -0.525  -2.525  0.00  0.00    -0.302 N 
ATOM     24  C   UNL     1       3.997  -0.138  -2.766  0.00  0.00    +0.129 C 
ATOM     25  H   UNL     1       0.223  -1.016  -1.834  0.00  0.00    +0.151 HD
ATOM     26  H   UNL     1       2.142  -1.091  -3.162  0.00  0.00    +0.150 HD
ENDBRANCH  18  20
ENDBRANCH   1  18
TORSDOF 4
