REMARK  Name = ZINC04426851
REMARK  8 active torsions:
REMARK  status: ('A' for Active; 'I' for Inactive)
REMARK    1  A    between atoms: C_1  and  C_2
REMARK    2  A    between atoms: C_4  and  O_32
REMARK    3  A    between atoms: C_12  and  O_20
REMARK    4  A    between atoms: C_14  and  C_15
REMARK    5  A    between atoms: C_14  and  O_19
REMARK    6  A    between atoms: C_15  and  C_17
REMARK    7  A    between atoms: C_17  and  O_18
REMARK    8  A    between atoms: C_29  and  C_30
REMARK                            x       y       z     vdW  Elec       q    Type
REMARK                         _______ _______ _______ _____ _____    ______ ____
ROOT
ATOM      1  C   UNL     1       1.011  -5.653   1.108  0.00  0.00    +0.015 C 
ATOM      2  C   UNL     1       2.036  -4.580   0.627  0.00  0.00    +0.012 C 
ATOM      3  C   UNL     1       1.551  -4.157  -0.727  0.00  0.00    +0.044 C 
ATOM      4  C   UNL     1       1.870  -2.731  -1.160  0.00  0.00    +0.154 C 
ATOM      5  C   UNL     1       1.539  -1.753  -0.047  0.00  0.00    +0.153 C 
ATOM      6  C   UNL     1       2.335  -2.094   1.210  0.00  0.00    +0.034 C 
ATOM      7  C   UNL     1       2.021  -3.494   1.705  0.00  0.00    +0.007 C 
ATOM      8  C   UNL     1       3.127  -3.923   2.705  0.00  0.00    +0.039 C 
ATOM      9  C   UNL     1       4.183  -4.632   1.834  0.00  0.00    +0.154 C 
ATOM     10  C   UNL     1       3.395  -5.277   0.674  0.00  0.00    +0.157 C 
ATOM     11  C   UNL     1       3.822  -1.865   1.004  0.00  0.00    +0.011 C 
ATOM     12  C   UNL     1       4.115  -0.402   0.701  0.00  0.00    +0.032 C 
ATOM     13  C   UNL     1       2.942   0.343   0.136  0.00  0.00    -0.053 C 
ATOM     14  C   UNL     1       3.030   1.689   0.131  0.00  0.00    +0.051 C 
ATOM     15  C   UNL     1       1.863   2.482  -0.308  0.00  0.00    +0.179 C 
ATOM     16  O   UNL     1       1.990   3.628  -0.728  0.00  0.00    -0.288 OA
ATOM     17  C   UNL     1       0.532   1.839  -0.223  0.00  0.00    +0.047 C 
ATOM     18  C   UNL     1       0.472   0.504  -0.088  0.00  0.00    -0.009 C 
ATOM     19  C   UNL     1       1.710  -0.299  -0.403  0.00  0.00    +0.044 C 
ATOM     20  C   UNL     1       1.837  -0.188  -1.919  0.00  0.00    +0.023 C 
ATOM     21  F   UNL     1       0.174  -1.937   0.283  0.00  0.00    -0.238 F 
ENDROOT
BRANCH  10  22
ATOM     22  C   UNL     1       4.177  -5.169  -0.602  0.00  0.00    +0.193 C 
ATOM     23  O   UNL     1       4.959  -4.262  -0.756  0.00  0.00    -0.292 OA
BRANCH  22  24
ATOM     24  C   UNL     1       3.986  -6.193  -1.692  0.00  0.00    +0.233 C 
BRANCH  24  25
ATOM     25  O   UNL     1       4.835  -5.876  -2.797  0.00  0.00    -0.387 OA
ATOM     26  H   UNL     1       4.765  -6.494  -3.537  0.00  0.00    +0.210 HD
ENDBRANCH  24  25
ENDBRANCH  22  24
ENDBRANCH  10  22
BRANCH  10  27
ATOM     27  O   UNL     1       3.193  -6.671   0.977  0.00  0.00    -0.378 OA
ATOM     28  H   UNL     1       4.011  -7.185   1.025  0.00  0.00    +0.211 HD
ENDBRANCH  10  27
BRANCH   9  29
ATOM     29  O   UNL     1       4.846  -5.647   2.594  0.00  0.00    -0.388 OA
ATOM     30  H   UNL     1       5.360  -5.307   3.339  0.00  0.00    +0.210 HD
ENDBRANCH   9  29
BRANCH   4  31
ATOM     31  O   UNL     1       3.212  -2.628  -1.617  0.00  0.00    -0.389 OA
ATOM     32  H   UNL     1       3.391  -3.125  -2.426  0.00  0.00    +0.210 HD
ENDBRANCH   4  31
TORSDOF 6
