REMARK  Name = ZINC21742203
REMARK  6 active torsions:
REMARK  status: ('A' for Active; 'I' for Inactive)
REMARK    1  A    between atoms: C_1  and  C_2
REMARK    2  A    between atoms: C_4  and  O_5
REMARK    3  A    between atoms: C_14  and  C_16
REMARK    4  A    between atoms: C_21  and  O_22
REMARK    5  A    between atoms: O_22  and  C_23
REMARK    6  A    between atoms: C_23  and  C_24
REMARK                            x       y       z     vdW  Elec       q    Type
REMARK                         _______ _______ _______ _____ _____    ______ ____
ROOT
ATOM      1  C   UNL     1      -3.746   1.605   0.657  0.00  0.00    +0.045 C 
ATOM      2  C   UNL     1      -2.511   1.047  -0.003  0.00  0.00    -0.033 A 
ATOM      3  C   UNL     1      -2.537  -0.163  -0.622  0.00  0.00    +0.091 A 
ATOM      4  C   UNL     1      -1.369  -0.663  -1.232  0.00  0.00    +0.285 A 
ATOM      5  O   UNL     1      -0.217   0.026  -1.221  0.00  0.00    -0.425 OA
ATOM      6  C   UNL     1      -0.123   1.233  -0.624  0.00  0.00    +0.141 A 
ATOM      7  C   UNL     1      -1.250   1.790   0.010  0.00  0.00    +0.021 A 
ATOM      8  C   UNL     1      -1.159   3.044   0.626  0.00  0.00    +0.013 A 
ATOM      9  C   UNL     1       0.026   3.719   0.620  0.00  0.00    +0.024 A 
ATOM     10  C   UNL     1       1.148   3.170  -0.002  0.00  0.00    +0.037 A 
ATOM     11  C   UNL     1       1.074   1.931  -0.622  0.00  0.00    +0.070 A 
ATOM     12  N   UNL     1       2.353   3.872  -0.001  0.00  0.00    -0.281 N 
ATOM     13  C   UNL     1       3.521   3.206   0.087  0.00  0.00    +0.252 C 
ATOM     14  O   UNL     1       3.529   1.990   0.082  0.00  0.00    -0.270 OA
ATOM     15  H   UNL     1       2.349   4.970  -0.071  0.00  0.00    +0.155 HD
ENDROOT
BRANCH  13  16
ATOM     16  C   UNL     1       4.789   3.951   0.190  0.00  0.00    +0.079 A 
ATOM     17  C   UNL     1       4.785   5.349   0.191  0.00  0.00    +0.017 A 
ATOM     18  C   UNL     1       5.973   6.039   0.292  0.00  0.00    +0.001 A 
ATOM     19  C   UNL     1       7.174   5.355   0.383  0.00  0.00    +0.004 A 
ATOM     20  C   UNL     1       7.193   3.974   0.378  0.00  0.00    +0.046 A 
ATOM     21  C   UNL     1       6.006   3.263   0.282  0.00  0.00    +0.133 A 
BRANCH  21  22
ATOM     22  O   UNL     1       6.024   1.906   0.276  0.00  0.00    -0.482 OA
BRANCH  22  23
ATOM     23  C   UNL     1       7.301   1.274   0.373  0.00  0.00    +0.324 C 
BRANCH  23  24
ATOM     24  C   UNL     1       7.124  -0.223   0.351  0.00  0.00    +0.248 C 
ATOM     25  O   UNL     1       6.012  -0.700   0.262  0.00  0.00    -0.272 OA
ATOM     26  N   UNL     1       8.200  -1.030   0.431  0.00  0.00    -0.327 N 
ATOM     27  H   UNL     1       8.070  -2.123   0.416  0.00  0.00    +0.145 HD
ATOM     28  H   UNL     1       9.207  -0.597   0.512  0.00  0.00    +0.145 HD
ENDBRANCH  23  24
ENDBRANCH  22  23
ENDBRANCH  21  22
ENDBRANCH  13  16
BRANCH   4  29
ATOM     29  O   UNL     1      -1.406  -1.749  -1.783  0.00  0.00    -0.480 OA
ATOM     30  H   UNL     1      -0.502  -2.153  -2.263  0.00  0.00    +0.295 HD
ENDBRANCH   4  29
TORSDOF 5
