REMARK  Name = ZINC51131290
REMARK  4 active torsions:
REMARK  status: ('A' for Active; 'I' for Inactive)
REMARK    1  A    between atoms: C_6  and  C_7
REMARK    2  A    between atoms: C_16  and  C_18
REMARK    3  A    between atoms: C_18  and  N_19
REMARK    4  A    between atoms: C_23  and  C_26
REMARK                            x       y       z     vdW  Elec       q    Type
REMARK                         _______ _______ _______ _____ _____    ______ ____
ROOT
ATOM      1  C   UNL     1      -1.266  -0.763   0.011  0.00  0.00    +0.022 A 
ATOM      2  C   UNL     1      -1.451  -2.115   0.011  0.00  0.00    +0.044 A 
ATOM      3  C   UNL     1      -2.745  -2.642   0.020  0.00  0.00    +0.086 A 
ATOM      4  C   UNL     1      -3.788  -1.697   0.029  0.00  0.00    +0.102 A 
ATOM      5  S   UNL     1      -2.939  -0.140   0.031  0.00  0.00    -0.081 S 
ATOM      6  C   UNL     1      -5.126  -2.092   0.040  0.00  0.00    +0.266 A 
ATOM      7  O   UNL     1      -6.023  -1.266   0.047  0.00  0.00    -0.267 OA
ATOM      8  N   UNL     1      -5.400  -3.418   0.041  0.00  0.00    -0.309 N 
ATOM      9  H   UNL     1      -6.320  -3.728   0.048  0.00  0.00    +0.170 HD
ATOM     10  C   UNL     1      -4.376  -4.311   0.032  0.00  0.00    +0.125 A 
ATOM     11  N   UNL     1      -3.130  -3.962   0.023  0.00  0.00    -0.232 NA
ENDROOT
BRANCH   1  17
ATOM     12  C   UNL     1      -0.017   1.391   0.010  0.00  0.00    +0.012 A 
ATOM     13  C   UNL     1       1.169   2.095   0.002  0.00  0.00    +0.039 A 
ATOM     14  C   UNL     1       2.379   1.418  -0.013  0.00  0.00    +0.123 A 
ATOM     15  C   UNL     1       2.403   0.033  -0.021  0.00  0.00    +0.039 A 
ATOM     16  C   UNL     1       1.223  -0.680  -0.013  0.00  0.00    +0.012 A 
ATOM     17  C   UNL     1       0.002  -0.004   0.002  0.00  0.00    -0.011 A 
ATOM     18  F   UNL     1       3.538   2.112  -0.022  0.00  0.00    -0.205 F 
ENDBRANCH   1  17
BRANCH  10  19
ATOM     19  C   UNL     1      -4.707  -5.782   0.034  0.00  0.00    +0.158 C 
BRANCH  19  20
ATOM     20  N   UNL     1      -3.464  -6.564   0.023  0.00  0.00    -0.290 NA
ATOM     21  C   UNL     1      -2.715  -6.379   1.275  0.00  0.00    +0.113 C 
ATOM     22  C   UNL     1      -1.401  -7.162   1.197  0.00  0.00    +0.176 C 
ATOM     23  O   UNL     1      -1.687  -8.539   0.935  0.00  0.00    -0.365 OA
ATOM     24  C   UNL     1      -2.416  -8.755  -0.276  0.00  0.00    +0.217 C 
ATOM     25  C   UNL     1      -3.739  -7.988  -0.214  0.00  0.00    +0.126 C 
BRANCH  24  26
ATOM     26  C   UNL     1      -2.693 -10.227  -0.441  0.00  0.00    +0.241 C 
ATOM     27  O   UNL     1      -2.386 -11.004   0.439  0.00  0.00    -0.273 OA
ATOM     28  N   UNL     1      -3.282 -10.680  -1.565  0.00  0.00    -0.327 N 
ATOM     29  H   UNL     1      -3.527 -10.059  -2.269  0.00  0.00    +0.145 HD
ATOM     30  H   UNL     1      -3.460 -11.628  -1.671  0.00  0.00    +0.145 HD
ENDBRANCH  24  26
ENDBRANCH  19  20
ENDBRANCH  10  19
TORSDOF 4
