REMARK  Name = ZINC63690769
REMARK  6 active torsions:
REMARK  status: ('A' for Active; 'I' for Inactive)
REMARK    1  A    between atoms: C_4  and  C_7
REMARK    2  A    between atoms: N_9  and  C_10
REMARK    3  A    between atoms: C_18  and  C_20
REMARK    4  A    between atoms: N_22  and  C_23
REMARK    5  A    between atoms: C_23  and  C_24
REMARK    6  A    between atoms: C_24  and  C_25
REMARK                            x       y       z     vdW  Elec       q    Type
REMARK                         _______ _______ _______ _____ _____    ______ ____
ROOT
ATOM      1  C   UNL     1       4.997  -2.744  -0.061  0.00  0.00    +0.220 C 
ATOM      2  N   UNL     1       4.800  -4.180  -0.355  0.00  0.00    -0.320 N 
ATOM      3  C   UNL     1       4.941  -5.049   0.688  0.00  0.00    +0.027 C 
ATOM      4  C   UNL     1       6.052  -4.611   1.651  0.00  0.00    +0.094 C 
ATOM      5  S   UNL     1       5.745  -2.795   1.625  0.00  0.00    -0.110 S 
ATOM      6  C   UNL     1       5.640  -5.205   3.006  0.00  0.00    +0.025 C 
ATOM      7  C   UNL     1       4.925  -6.501   2.553  0.00  0.00    +0.043 C 
ATOM      8  C   UNL     1       4.388  -6.186   1.177  0.00  0.00    +0.032 C 
ATOM      9  H   UNL     1       4.579  -4.490  -1.247  0.00  0.00    +0.148 HD
ENDROOT
BRANCH   1  12
ATOM     10  C   UNL     1       3.696  -0.685  -0.037  0.00  0.00    +0.246 C 
ATOM     11  O   UNL     1       4.738  -0.060  -0.044  0.00  0.00    -0.270 OA
ATOM     12  N   UNL     1       3.717  -2.032  -0.045  0.00  0.00    -0.284 N 
ATOM     13  H   UNL     1       2.885  -2.531  -0.039  0.00  0.00    +0.152 HD
BRANCH  10  17
ATOM     14  C   UNL     1      -0.017   1.379   0.010  0.00  0.00    +0.000 A 
ATOM     15  C   UNL     1       1.168   2.094   0.002  0.00  0.00    +0.001 A 
ATOM     16  C   UNL     1       2.377   1.429  -0.013  0.00  0.00    +0.013 A 
ATOM     17  C   UNL     1       2.403   0.034  -0.021  0.00  0.00    +0.037 A 
ATOM     18  C   UNL     1       1.204  -0.681  -0.013  0.00  0.00    +0.013 A 
ATOM     19  C   UNL     1       0.002  -0.004   0.002  0.00  0.00    +0.001 A 
ENDBRANCH  10  17
ENDBRANCH   1  12
BRANCH   8  20
ATOM     20  C   UNL     1       3.434  -6.973   0.490  0.00  0.00    +0.242 C 
ATOM     21  O   UNL     1       3.057  -6.641  -0.619  0.00  0.00    -0.270 OA
ATOM     22  N   UNL     1       2.943  -8.089   1.063  0.00  0.00    -0.311 N 
ATOM     23  H   UNL     1       3.243  -8.353   1.947  0.00  0.00    +0.149 HD
BRANCH  22  24
ATOM     24  C   UNL     1       1.955  -8.904   0.352  0.00  0.00    +0.109 C 
BRANCH  24  25
ATOM     25  C   UNL     1       1.565 -10.104   1.217  0.00  0.00    +0.052 C 
BRANCH  25  26
ATOM     26  C   UNL     1       0.549 -10.942   0.485  0.00  0.00    -0.040 C 
ATOM     27  C   UNL     1       0.792 -12.034  -0.275  0.00  0.00    -0.001 A 
ATOM     28  C   UNL     1       2.027 -12.741  -0.635  0.00  0.00    +0.010 A 
ATOM     29  C   UNL     1       1.951 -13.830  -1.433  0.00  0.00    +0.001 A 
ATOM     30  C   UNL     1       0.725 -14.300  -1.925  0.00  0.00    +0.002 A 
ATOM     31  C   UNL     1      -0.452 -13.704  -1.638  0.00  0.00    +0.026 A 
ATOM     32  C   UNL     1      -0.490 -12.550  -0.807  0.00  0.00    +0.043 A 
ATOM     33  N   UNL     1      -1.486 -11.806  -0.391  0.00  0.00    -0.380 N 
ATOM     34  C   UNL     1      -0.949 -10.736   0.457  0.00  0.00    +0.144 C 
ATOM     35  H   UNL     1      -2.422 -11.943  -0.605  0.00  0.00    +0.160 HD
ENDBRANCH  25  26
ENDBRANCH  24  25
ENDBRANCH  22  24
ENDBRANCH   8  20
TORSDOF 6
