REMARK  Name = ZINC10357377
REMARK  7 active torsions:
REMARK  status: ('A' for Active; 'I' for Inactive)
REMARK    1  A    between atoms: C_1  and  C_2
REMARK    2  A    between atoms: C_2  and  C_3
REMARK    3  A    between atoms: C_2  and  C_4
REMARK    4  A    between atoms: C_4  and  C_6
REMARK    5  A    between atoms: C_4  and  N_13
REMARK    6  A    between atoms: N_16  and  N_17
REMARK    7  A    between atoms: C_18  and  C_20
REMARK                            x       y       z     vdW  Elec       q    Type
REMARK                         _______ _______ _______ _____ _____    ______ ____
ROOT
ATOM      1  N   UNL     1      -0.854   3.038   1.217  0.00  0.00    -0.291 N 
ATOM      2  C   UNL     1       0.159   3.817   1.645  0.00  0.00    +0.316 C 
ATOM      3  O   UNL     1       1.178   3.308   2.072  0.00  0.00    -0.251 OA
ATOM      4  N   UNL     1       0.044   5.159   1.599  0.00  0.00    -0.218 N 
ATOM      5  H   UNL     1      -1.667   3.444   0.876  0.00  0.00    +0.151 HD
ATOM      6  H   UNL     1       0.773   5.719   1.907  0.00  0.00    +0.174 HD
ENDROOT
BRANCH   4   7
ATOM      7  N   UNL     1      -1.130   5.744   1.107  0.00  0.00    -0.228 N 
ATOM      8  C   UNL     1      -1.245   7.086   1.061  0.00  0.00    +0.280 C 
ATOM      9  O   UNL     1      -0.331   7.788   1.447  0.00  0.00    -0.267 OA
ATOM     10  H   UNL     1      -1.859   5.184   0.799  0.00  0.00    +0.173 HD
BRANCH   8  11
ATOM     11  C   UNL     1      -2.486   7.706   0.541  0.00  0.00    +0.145 A 
ATOM     12  C   UNL     1      -2.608   9.094   0.493  0.00  0.00    +0.143 A 
ATOM     13  N   UNL     1      -3.716   9.642   0.028  0.00  0.00    -0.259 NA
ATOM     14  C   UNL     1      -4.708   8.876  -0.391  0.00  0.00    +0.130 A 
ATOM     15  C   UNL     1      -4.590   7.494  -0.344  0.00  0.00    +0.131 A 
ATOM     16  N   UNL     1      -3.486   6.939   0.113  0.00  0.00    -0.247 NA
ENDBRANCH   8  11
ENDBRANCH   4   7
BRANCH   1  17
ATOM     17  C   UNL     1      -0.729   1.579   1.267  0.00  0.00    +0.107 C 
BRANCH  17  18
ATOM     18  C   UNL     1      -2.100   0.959   1.340  0.00  0.00    -0.027 A 
ATOM     19  C   UNL     1      -3.137   1.485   0.592  0.00  0.00    +0.007 A 
ATOM     20  C   UNL     1      -4.394   0.914   0.655  0.00  0.00    +0.020 A 
ATOM     21  C   UNL     1      -4.617  -0.178   1.474  0.00  0.00    +0.041 A 
ATOM     22  C   UNL     1      -3.580  -0.701   2.227  0.00  0.00    +0.020 A 
ATOM     23  C   UNL     1      -2.323  -0.132   2.159  0.00  0.00    +0.007 A 
ATOM     24 CL   UNL     1      -6.197  -0.892   1.559  0.00  0.00    -0.084 Cl
ENDBRANCH  17  18
BRANCH  17  26
ATOM     25  C   UNL     1       1.423   1.615  -0.003  0.00  0.00    +0.009 C 
ATOM     26  C   UNL     1      -0.013   1.086   0.008  0.00  0.00    +0.008 C 
ATOM     27  C   UNL     1      -0.753   1.593  -1.232  0.00  0.00    +0.009 C 
ENDBRANCH  17  26
ENDBRANCH   1  17
TORSDOF 5
