REMARK  Name = ZINC40645243
REMARK  8 active torsions:
REMARK  status: ('A' for Active; 'I' for Inactive)
REMARK    1  A    between atoms: C_1  and  C_2
REMARK    2  A    between atoms: C_2  and  C_27
REMARK    3  A    between atoms: C_4  and  N_10
REMARK    4  A    between atoms: C_6  and  C_8
REMARK    5  A    between atoms: C_6  and  C_9
REMARK    6  A    between atoms: C_12  and  N_24
REMARK    7  A    between atoms: C_13  and  O_17
REMARK    8  A    between atoms: O_17  and  C_18
REMARK                            x       y       z     vdW  Elec       q    Type
REMARK                         _______ _______ _______ _____ _____    ______ ____
ROOT
ATOM      1  N   UNL     1       2.570  -0.773  -2.671  0.00  0.00    -0.324 N 
ATOM      2  C   UNL     1       3.759  -0.273  -3.180  0.00  0.00    +0.156 A 
ATOM      3  C   UNL     1       4.288  -0.778  -4.365  0.00  0.00    +0.227 A 
ATOM      4  C   UNL     1       5.481  -0.243  -4.833  0.00  0.00    +0.256 A 
ATOM      5  N   UNL     1       6.072   0.726  -4.139  0.00  0.00    -0.199 NA
ATOM      6  C   UNL     1       5.540   1.178  -3.022  0.00  0.00    +0.227 A 
ATOM      7  N   UNL     1       4.408   0.701  -2.546  0.00  0.00    -0.218 NA
ATOM      8  H   UNL     1       2.103  -1.483  -3.139  0.00  0.00    +0.148 HD
ENDROOT
BRANCH   1  12
ATOM      9  C   UNL     1      -0.131   1.609  -0.136  0.00  0.00    -0.010 C 
ATOM     10  C   UNL     1      -0.090   0.077  -0.102  0.00  0.00    -0.072 C 
ATOM     11  C   UNL     1       0.506  -0.451  -1.403  0.00  0.00    +0.009 C 
ATOM     12  C   UNL     1       2.019  -0.229  -1.425  0.00  0.00    +0.069 C 
ATOM     13  C   UNL     1       2.627  -0.974  -0.236  0.00  0.00    +0.009 C 
ATOM     14  C   UNL     1       2.047  -0.449   1.073  0.00  0.00    -0.072 C 
ATOM     15  N   UNL     1       0.595  -0.407   1.083  0.00  0.00    +0.386 N 
ATOM     16  C   UNL     1       2.646   0.924   1.393  0.00  0.00    -0.010 C 
ATOM     17  C   UNL     1       2.497  -1.413   2.196  0.00  0.00    -0.010 C 
ATOM     18  C   UNL     1      -1.555  -0.413  -0.033  0.00  0.00    -0.010 C 
ATOM     19  H   UNL     1       0.296   0.162   1.881  0.00  0.00    -0.084 HD
ATOM     20  H   UNL     1       0.249  -1.349   1.290  0.00  0.00    -0.084 HD
ENDBRANCH   1  12
BRANCH   3  21
ATOM     21  N   UNL     1       3.598  -1.858  -5.106  0.00  0.00    +0.065 N 
ATOM     22  O   UNL     1       2.781  -1.583  -5.953  0.00  0.00    -0.126 OA
ATOM     23  O   UNL     1       3.852  -3.015  -4.863  0.00  0.00    -0.126 OA
ENDBRANCH   3  21
BRANCH   4  24
ATOM     24  O   UNL     1       6.037  -0.702  -5.982  0.00  0.00    -0.436 OA
BRANCH  24  25
ATOM     25  C   UNL     1       7.149  -0.076  -6.447  0.00  0.00    +0.130 A 
ATOM     26  C   UNL     1       8.382  -0.321  -5.859  0.00  0.00    +0.046 A 
ATOM     27  C   UNL     1       9.512   0.316  -6.334  0.00  0.00    +0.004 A 
ATOM     28  C   UNL     1       9.415   1.197  -7.395  0.00  0.00    +0.000 A 
ATOM     29  C   UNL     1       8.188   1.444  -7.982  0.00  0.00    +0.004 A 
ATOM     30  C   UNL     1       7.056   0.805  -7.515  0.00  0.00    +0.046 A 
ENDBRANCH  24  25
ENDBRANCH   4  24
TORSDOF 4
