REMARK  Name = ZINC17057548
REMARK  6 active torsions:
REMARK  status: ('A' for Active; 'I' for Inactive)
REMARK    1  A    between atoms: C_1  and  C_2
REMARK    2  A    between atoms: C_6  and  N_9
REMARK    3  A    between atoms: C_7  and  C_8
REMARK    4  A    between atoms: C_13  and  C_14
REMARK    5  A    between atoms: C_17  and  N_19
REMARK    6  A    between atoms: C_28  and  O_29
REMARK                            x       y       z     vdW  Elec       q    Type
REMARK                         _______ _______ _______ _____ _____    ______ ____
ROOT
ATOM      1  N   UNL     1       4.170   4.747  -0.225  0.00  0.00    -0.192 N 
ATOM      2  C   UNL     1       3.149   3.873  -0.116  0.00  0.00    +0.264 C 
ATOM      3  O   UNL     1       2.001   4.266  -0.013  0.00  0.00    -0.269 OA
ATOM      4  C   UNL     1       3.444   2.480  -0.123  0.00  0.00    +0.105 C 
ATOM      5  C   UNL     1       2.430   1.524  -0.013  0.00  0.00    +0.064 C 
ATOM      6  C   UNL     1       4.857   2.085  -0.245  0.00  0.00    +0.276 C 
ATOM      7  O   UNL     1       5.177   0.907  -0.253  0.00  0.00    -0.268 OA
ATOM      8  N   UNL     1       5.786   3.050  -0.354  0.00  0.00    -0.127 NA
ATOM      9  C   UNL     1       5.456   4.319  -0.341  0.00  0.00    +0.286 C 
ENDROOT
BRANCH   1  15
ATOM     10  C   UNL     1       3.122   8.866  -2.700  0.00  0.00    +0.044 C 
ATOM     11  C   UNL     1       3.390   8.143  -1.405  0.00  0.00    -0.046 A 
ATOM     12  C   UNL     1       3.371   8.838  -0.210  0.00  0.00    +0.004 A 
ATOM     13  C   UNL     1       3.617   8.178   0.980  0.00  0.00    +0.002 A 
ATOM     14  C   UNL     1       3.876   6.822   0.979  0.00  0.00    +0.024 A 
ATOM     15  C   UNL     1       3.901   6.122  -0.220  0.00  0.00    +0.049 A 
ATOM     16  C   UNL     1       3.655   6.788  -1.414  0.00  0.00    -0.026 A 
ATOM     17  C   UNL     1       3.675   6.031  -2.717  0.00  0.00    +0.046 C 
ENDBRANCH   1  15
BRANCH   5  18
ATOM     18  C   UNL     1       1.129   1.919   0.293  0.00  0.00    +0.131 A 
ATOM     19  C   UNL     1      -0.038   1.393  -0.258  0.00  0.00    +0.051 A 
ATOM     20  C   UNL     1      -1.099   2.077   0.322  0.00  0.00    +0.066 A 
ATOM     21  C   UNL     1      -0.559   2.988   1.210  0.00  0.00    +0.189 A 
ATOM     22  O   UNL     1       0.777   2.882   1.177  0.00  0.00    -0.442 OA
BRANCH  21  23
ATOM     23  N   UNL     1      -1.274   3.862   1.993  0.00  0.00    -0.301 N 
ATOM     24  C   UNL     1      -2.164   4.695   1.174  0.00  0.00    +0.108 C 
ATOM     25  C   UNL     1      -3.046   5.551   2.086  0.00  0.00    +0.019 C 
ATOM     26  C   UNL     1      -2.157   6.433   2.966  0.00  0.00    +0.003 C 
ATOM     27  C   UNL     1      -1.206   5.544   3.773  0.00  0.00    +0.019 C 
ATOM     28  C   UNL     1      -0.378   4.688   2.812  0.00  0.00    +0.108 C 
ENDBRANCH  21  23
ENDBRANCH   5  18
BRANCH   9  29
ATOM     29  O   UNL     1       6.435   5.240  -0.448  0.00  0.00    -0.483 OA
ATOM     30  H   UNL     1       7.340   4.911  -0.530  0.00  0.00    +0.295 HD
ENDBRANCH   9  29
TORSDOF 4
