REMARK  Name = ZINC01640264
REMARK  6 active torsions:
REMARK  status: ('A' for Active; 'I' for Inactive)
REMARK    1  A    between atoms: C_1  and  C_2
REMARK    2  A    between atoms: C_5  and  N_11
REMARK    3  A    between atoms: C_7  and  N_8
REMARK    4  A    between atoms: C_12  and  C_14
REMARK    5  A    between atoms: C_14  and  O_15
REMARK    6  A    between atoms: O_15  and  C_16
REMARK                            x       y       z     vdW  Elec       q    Type
REMARK                         _______ _______ _______ _____ _____    ______ ____
ROOT
ATOM      1  N   UNL     1      -2.438   3.599   0.052  0.00  0.00    -0.283 N 
ATOM      2  C   UNL     1      -3.531   2.893   0.402  0.00  0.00    +0.255 C 
ATOM      3  O   UNL     1      -3.441   1.704   0.625  0.00  0.00    -0.272 OA
ATOM      4  H   UNL     1      -2.521   4.535  -0.188  0.00  0.00    +0.155 HD
ENDROOT
BRANCH   1   9
ATOM      5  C   UNL     1       2.652   1.093  -0.015  0.00  0.00    +0.046 C 
ATOM      6  C   UNL     1       1.300   1.759   0.002  0.00  0.00    -0.020 A 
ATOM      7  C   UNL     1       1.187   3.082   0.389  0.00  0.00    +0.007 A 
ATOM      8  C   UNL     1      -0.051   3.693   0.412  0.00  0.00    +0.024 A 
ATOM      9  C   UNL     1      -1.182   2.981   0.036  0.00  0.00    +0.036 A 
ATOM     10  C   UNL     1      -1.066   1.653  -0.352  0.00  0.00    +0.056 A 
ATOM     11  C   UNL     1       0.175   1.046  -0.368  0.00  0.00    +0.131 A 
BRANCH  11  12
ATOM     12  N   UNL     1       0.300  -0.370  -0.781  0.00  0.00    +0.057 N 
ATOM     13  O   UNL     1      -0.664  -0.959  -1.238  0.00  0.00    -0.126 OA
ATOM     14  O   UNL     1       1.367  -0.946  -0.665  0.00  0.00    -0.126 OA
ENDBRANCH  11  12
ENDBRANCH   1   9
BRANCH   2  15
ATOM     15  C   UNL     1      -4.867   3.581   0.516  0.00  0.00    +0.325 C 
BRANCH  15  16
ATOM     16  O   UNL     1      -5.863   2.629   0.896  0.00  0.00    -0.481 OA
BRANCH  16  17
ATOM     17  C   UNL     1      -7.133   3.090   1.044  0.00  0.00    +0.141 A 
ATOM     18  C   UNL     1      -7.414   4.431   0.832  0.00  0.00    +0.068 A 
ATOM     19  C   UNL     1      -8.707   4.897   0.979  0.00  0.00    +0.063 A 
ATOM     20  C   UNL     1      -9.720   4.027   1.346  0.00  0.00    +0.061 A 
ATOM     21  C   UNL     1      -9.441   2.690   1.562  0.00  0.00    +0.045 A 
ATOM     22  C   UNL     1      -8.150   2.220   1.412  0.00  0.00    +0.084 A 
ATOM     23 CL   UNL     1      -7.800   0.541   1.684  0.00  0.00    -0.080 Cl
ATOM     24 CL   UNL     1     -11.342   4.616   1.536  0.00  0.00    -0.082 Cl
ATOM     25 CL   UNL     1      -9.061   6.576   0.709  0.00  0.00    -0.082 Cl
ENDBRANCH  16  17
ENDBRANCH  15  16
ENDBRANCH   2  15
TORSDOF 5
