REMARK  Name = ZINC04476308
REMARK  8 active torsions:
REMARK  status: ('A' for Active; 'I' for Inactive)
REMARK    1  A    between atoms: C_1  and  C_2
REMARK    2  A    between atoms: C_2  and  O_3
REMARK    3  A    between atoms: O_3  and  C_4
REMARK    4  A    between atoms: C_7  and  C_10
REMARK    5  A    between atoms: C_17  and  C_19
REMARK    6  A    between atoms: C_19  and  O_20
REMARK    7  A    between atoms: C_22  and  N_26
REMARK    8  A    between atoms: C_23  and  C_24
REMARK                            x       y       z     vdW  Elec       q    Type
REMARK                         _______ _______ _______ _____ _____    ______ ____
ROOT
ATOM      1  C   UNL     1      -2.513   0.977   0.019  0.00  0.00    +0.134 C 
ATOM      2  C   UNL     1      -3.302   1.322  -1.220  0.00  0.00    +0.164 A 
ATOM      3  C   UNL     1      -4.352   2.166  -1.145  0.00  0.00    +0.215 A 
ATOM      4  C   UNL     1      -5.079   2.475  -2.331  0.00  0.00    +0.228 A 
ATOM      5  O   UNL     1      -6.034   3.236  -2.305  0.00  0.00    -0.284 OA
ATOM      6  C   UNL     1      -4.655   1.872  -3.542  0.00  0.00    +0.098 A 
ATOM      7  C   UNL     1      -3.595   1.042  -3.513  0.00  0.00    +0.134 A 
ATOM      8  O   UNL     1      -2.937   0.773  -2.388  0.00  0.00    -0.457 OA
ATOM      9  O   UNL     1      -4.735   2.727   0.028  0.00  0.00    -0.434 OA
ATOM     10  C   UNL     1      -4.355   2.171   1.192  0.00  0.00    +0.199 C 
ATOM     11  C   UNL     1      -3.298   1.324   1.252  0.00  0.00    +0.101 C 
ENDROOT
BRANCH   1  15
ATOM     12  C   UNL     1       1.155   3.169   0.008  0.00  0.00    +0.121 A 
ATOM     13  C   UNL     1       1.175   1.782   0.000  0.00  0.00    +0.046 A 
ATOM     14  C   UNL     1      -0.013   1.076   0.008  0.00  0.00    +0.008 A 
ATOM     15  C   UNL     1      -1.220   1.750   0.017  0.00  0.00    -0.031 A 
ATOM     16  C   UNL     1      -1.242   3.133   0.031  0.00  0.00    +0.008 A 
ATOM     17  C   UNL     1      -0.057   3.844   0.023  0.00  0.00    +0.046 A 
BRANCH  12  18
ATOM     18  O   UNL     1       2.322   3.866   0.000  0.00  0.00    -0.492 OA
BRANCH  18  20
ATOM     19  C   UNL     1       3.630   5.898  -0.002  0.00  0.00    +0.048 C 
ATOM     20  C   UNL     1       2.225   5.292   0.009  0.00  0.00    +0.225 C 
ENDBRANCH  18  20
ENDBRANCH  12  18
ENDBRANCH   1  15
BRANCH  10  21
ATOM     21  N   UNL     1      -5.048   2.467   2.339  0.00  0.00    -0.328 N 
ATOM     22  H   UNL     1      -4.781   2.071   3.183  0.00  0.00    +0.145 HD
ATOM     23  H   UNL     1      -5.805   3.072   2.305  0.00  0.00    +0.145 HD
ENDBRANCH  10  21
BRANCH  11  24
ATOM     24  C   UNL     1      -2.924   0.751   2.510  0.00  0.00    +0.101 C 
ATOM     25  N   UNL     1      -2.627   0.296   3.508  0.00  0.00    -0.191 NA
ENDBRANCH  11  24
BRANCH   7  26
ATOM     26  C   UNL     1      -3.140   0.395  -4.796  0.00  0.00    +0.230 C 
BRANCH  26  27
ATOM     27  O   UNL     1      -2.175   1.233  -5.434  0.00  0.00    -0.387 OA
ATOM     28  H   UNL     1      -1.837   0.878  -6.268  0.00  0.00    +0.210 HD
ENDBRANCH  26  27
ENDBRANCH   7  26
TORSDOF 7
