REMARK  Name = ZINC05840564
REMARK  8 active torsions:
REMARK  status: ('A' for Active; 'I' for Inactive)
REMARK    1  A    between atoms: C_1  and  C_2
REMARK    2  A    between atoms: C_2  and  O_3
REMARK    3  A    between atoms: O_3  and  C_4
REMARK    4  A    between atoms: C_7  and  N_10
REMARK    5  A    between atoms: N_10  and  C_11
REMARK    6  A    between atoms: C_11  and  C_13
REMARK    7  A    between atoms: N_20  and  C_23
REMARK    8  A    between atoms: C_26  and  C_29
REMARK                            x       y       z     vdW  Elec       q    Type
REMARK                         _______ _______ _______ _____ _____    ______ ____
ROOT
ATOM      1  C   UNL     1       1.246  -6.314  -0.266  0.00  0.00    +0.205 C 
ATOM      2  C   UNL     1       0.652  -6.796  -1.576  0.00  0.00    +0.238 C 
ATOM      3  O   UNL     1       1.094  -6.422  -2.642  0.00  0.00    -0.274 OA
ATOM      4  N   UNL     1      -0.386  -7.656  -1.512  0.00  0.00    -0.238 N 
ATOM      5  C   UNL     1      -0.884  -8.079  -0.344  0.00  0.00    +0.319 C 
ATOM      6  O   UNL     1      -1.819  -8.854  -0.378  0.00  0.00    -0.251 OA
ATOM      7  N   UNL     1      -0.428  -7.710   0.859  0.00  0.00    -0.193 N 
ATOM      8  C   UNL     1       0.606  -6.854   0.999  0.00  0.00    +0.245 C 
ATOM      9  O   UNL     1       1.008  -6.528   2.095  0.00  0.00    -0.274 OA
ATOM     10  H   UNL     1      -0.782  -7.978  -2.336  0.00  0.00    +0.159 HD
ENDROOT
BRANCH   7  11
ATOM     11  C   UNL     1      -1.043  -8.228   2.007  0.00  0.00    +0.045 A 
ATOM     12  C   UNL     1      -0.358  -9.123   2.819  0.00  0.00    +0.024 A 
ATOM     13  C   UNL     1      -0.964  -9.627   3.953  0.00  0.00    +0.005 A 
ATOM     14  C   UNL     1      -2.255  -9.251   4.274  0.00  0.00    -0.050 A 
ATOM     15  C   UNL     1      -2.942  -8.365   3.464  0.00  0.00    +0.005 A 
ATOM     16  C   UNL     1      -2.339  -7.853   2.332  0.00  0.00    +0.024 A 
ATOM     17  C   UNL     1      -2.916  -9.807   5.509  0.00  0.00    +0.044 C 
ENDBRANCH   7  11
BRANCH   1  18
ATOM     18  C   UNL     1       1.152  -4.810  -0.234  0.00  0.00    +0.022 C 
ATOM     19  C   UNL     1       2.251  -4.079  -0.264  0.00  0.00    +0.030 C 
BRANCH  18  20
ATOM     20  N   UNL     1      -0.091  -4.193  -0.173  0.00  0.00    -0.317 N 
ATOM     21  H   UNL     1      -0.892  -4.727  -0.053  0.00  0.00    +0.152 HD
BRANCH  20  25
ATOM     22  C   UNL     1      -0.379  -0.048  -0.505  0.00  0.00    +0.121 A 
ATOM     23  C   UNL     1       0.475  -0.752  -1.341  0.00  0.00    +0.047 A 
ATOM     24  C   UNL     1       0.575  -2.125  -1.228  0.00  0.00    +0.027 A 
ATOM     25  C   UNL     1      -0.188  -2.801  -0.284  0.00  0.00    +0.031 A 
ATOM     26  C   UNL     1      -1.047  -2.095   0.548  0.00  0.00    +0.027 A 
ATOM     27  C   UNL     1      -1.141  -0.722   0.438  0.00  0.00    +0.047 A 
BRANCH  22  28
ATOM     28  O   UNL     1      -0.473   1.305  -0.613  0.00  0.00    -0.492 OA
BRANCH  28  30
ATOM     29  C   UNL     1       0.100   3.445  -1.578  0.00  0.00    +0.048 C 
ATOM     30  C   UNL     1       0.340   1.934  -1.605  0.00  0.00    +0.225 C 
ENDBRANCH  28  30
ENDBRANCH  22  28
ENDBRANCH  20  25
ENDBRANCH  18  20
ENDBRANCH   1  18
TORSDOF 6
