REMARK  Name = ZINC62746472
REMARK  9 active torsions:
REMARK  status: ('A' for Active; 'I' for Inactive)
REMARK    1  A    between atoms: C_1  and  C_2
REMARK    2  A    between atoms: C_2  and  C_4
REMARK    3  A    between atoms: C_2  and  N_22
REMARK    4  A    between atoms: C_9  and  O_10
REMARK    5  A    between atoms: O_10  and  C_11
REMARK    6  A    between atoms: C_11  and  C_13
REMARK    7  A    between atoms: C_11  and  C_14
REMARK    8  A    between atoms: N_19  and  C_20
REMARK    9  A    between atoms: N_22  and  C_23
REMARK                            x       y       z     vdW  Elec       q    Type
REMARK                         _______ _______ _______ _____ _____    ______ ____
ROOT
ATOM      1  C   UNL     1       0.747  -0.710   1.150  0.00  0.00    -0.020 A 
ATOM      2  C   UNL     1       0.035  -1.156   2.247  0.00  0.00    +0.008 A 
ATOM      3  C   UNL     1       0.685  -1.409   3.440  0.00  0.00    +0.039 A 
ATOM      4  C   UNL     1       2.053  -1.214   3.539  0.00  0.00    +0.127 A 
ATOM      5  C   UNL     1       2.770  -0.767   2.444  0.00  0.00    +0.084 A 
ATOM      6  C   UNL     1       2.118  -0.519   1.245  0.00  0.00    +0.126 A 
ATOM      7  F   UNL     1       2.687  -1.460   4.707  0.00  0.00    -0.205 F 
ENDROOT
BRANCH   1   9
ATOM      8  C   UNL     1      -0.202   1.069  -0.293  0.00  0.00    -0.009 C 
ATOM      9  C   UNL     1       0.036  -0.435  -0.150  0.00  0.00    -0.041 C 
BRANCH   9  10
ATOM     10  N   UNL     1      -1.254  -1.139  -0.160  0.00  0.00    +0.382 N 
ATOM     11  C   UNL     1      -1.893  -0.970  -1.472  0.00  0.00    -0.100 C 
ATOM     12  H   UNL     1      -1.103  -2.120   0.017  0.00  0.00    -0.085 HD
ATOM     13  H   UNL     1      -1.851  -0.755   0.557  0.00  0.00    -0.085 HD
ENDBRANCH   9  10
ENDBRANCH   1   9
BRANCH   6  14
ATOM     14  O   UNL     1       2.820  -0.084   0.166  0.00  0.00    -0.480 OA
BRANCH  14  15
ATOM     15  C   UNL     1       4.242  -0.020   0.300  0.00  0.00    +0.256 C 
ATOM     16  C   UNL     1       4.633   1.313   0.941  0.00  0.00    +0.062 C 
BRANCH  15  17
ATOM     17  C   UNL     1       4.880  -0.129  -1.061  0.00  0.00    +0.261 C 
ATOM     18  O   UNL     1       4.187  -0.159  -2.055  0.00  0.00    -0.271 OA
ATOM     19  N   UNL     1       6.222  -0.193  -1.173  0.00  0.00    -0.237 N 
ATOM     20  C   UNL     1       6.793  -0.291  -2.390  0.00  0.00    +0.306 C 
ATOM     21  O   UNL     1       6.098  -0.321  -3.386  0.00  0.00    -0.252 OA
ATOM     22  N   UNL     1       8.134  -0.356  -2.501  0.00  0.00    -0.302 N 
ATOM     23  C   UNL     1       8.755  -0.462  -3.824  0.00  0.00    +0.129 C 
ATOM     24  H   UNL     1       6.776  -0.169  -0.377  0.00  0.00    +0.159 HD
ATOM     25  H   UNL     1       8.689  -0.332  -1.706  0.00  0.00    +0.150 HD
ENDBRANCH  15  17
ENDBRANCH  14  15
ENDBRANCH   6  14
TORSDOF 5
