REMARK  Name = ZINC64410995
REMARK  5 active torsions:
REMARK  status: ('A' for Active; 'I' for Inactive)
REMARK    1  A    between atoms: C_1  and  C_2
REMARK    2  A    between atoms: C_2  and  C_3
REMARK    3  A    between atoms: C_12  and  C_25
REMARK    4  A    between atoms: C_14  and  C_17
REMARK    5  A    between atoms: N_19  and  C_20
REMARK                            x       y       z     vdW  Elec       q    Type
REMARK                         _______ _______ _______ _____ _____    ______ ____
ROOT
ATOM      1  C   UNL     1       0.731  -0.503   1.223  0.00  0.00    +0.050 A 
ATOM      2  C   UNL     1       0.029  -0.849   2.341  0.00  0.00    +0.093 A 
ATOM      3  C   UNL     1       0.732  -1.312   3.468  0.00  0.00    +0.253 A 
ATOM      4  O   UNL     1       0.137  -1.629   4.485  0.00  0.00    -0.268 OA
ATOM      5  N   UNL     1       2.078  -1.399   3.403  0.00  0.00    -0.294 N 
ATOM      6  H   UNL     1       2.582  -1.716   4.168  0.00  0.00    +0.172 HD
ATOM      7  C   UNL     1       2.724  -1.040   2.261  0.00  0.00    +0.216 A 
ATOM      8  N   UNL     1       2.058  -0.612   1.207  0.00  0.00    -0.219 NA
ATOM      9  N   UNL     1       4.088  -1.131   2.203  0.00  0.00    -0.215 N 
ATOM     10  C   UNL     1       4.951  -0.783   1.060  0.00  0.00    +0.130 C 
ATOM     11  C   UNL     1       6.353  -1.076   1.548  0.00  0.00    +0.051 C 
ATOM     12  C   UNL     1       6.242  -1.529   2.811  0.00  0.00    +0.098 C 
ATOM     13  N   UNL     1       4.947  -1.566   3.220  0.00  0.00    -0.268 N 
ATOM     14  C   UNL     1       4.610  -1.654  -0.151  0.00  0.00    +0.035 C 
ATOM     15  H   UNL     1       4.656  -1.857   4.098  0.00  0.00    +0.170 HD
ENDROOT
BRANCH  11  16
ATOM     16  C   UNL     1       7.552  -0.907   0.817  0.00  0.00    +0.243 C 
ATOM     17  O   UNL     1       8.622  -1.182   1.329  0.00  0.00    -0.270 OA
ATOM     18  N   UNL     1       7.509  -0.442  -0.448  0.00  0.00    -0.309 N 
ATOM     19  H   UNL     1       6.657  -0.224  -0.856  0.00  0.00    +0.149 HD
BRANCH  18  20
ATOM     20  C   UNL     1       8.751  -0.267  -1.206  0.00  0.00    +0.073 C 
ATOM     21  C   UNL     1       9.338   1.134  -0.941  0.00  0.00    +0.022 C 
ATOM     22  C   UNL     1       9.924   1.565  -2.308  0.00  0.00    +0.002 C 
ATOM     23  C   UNL     1       8.885   1.012  -3.315  0.00  0.00    +0.002 C 
ATOM     24  C   UNL     1       8.462  -0.345  -2.715  0.00  0.00    +0.022 C 
ENDBRANCH  18  20
ENDBRANCH  11  16
BRANCH   1  26
ATOM     25  C   UNL     1      -0.019   1.526   0.010  0.00  0.00    +0.010 C 
ATOM     26  C   UNL     1       0.002  -0.004   0.002  0.00  0.00    +0.052 C 
ENDBRANCH   1  26
TORSDOF 3
