REMARK  Name = ZINC67647220
REMARK  10 active torsions:
REMARK  status: ('A' for Active; 'I' for Inactive)
REMARK    1  A    between atoms: C_1  and  C_2
REMARK    2  A    between atoms: C_2  and  C_3
REMARK    3  A    between atoms: C_3  and  C_4
REMARK    4  A    between atoms: C_4  and  C_5
REMARK    5  A    between atoms: C_8  and  N_11
REMARK    6  A    between atoms: N_14  and  C_15
REMARK    7  A    between atoms: C_15  and  C_17
REMARK    8  A    between atoms: C_15  and  C_18
REMARK    9  A    between atoms: C_22  and  S_24
REMARK   10  A    between atoms: S_24  and  N_27
REMARK                            x       y       z     vdW  Elec       q    Type
REMARK                         _______ _______ _______ _____ _____    ______ ____
ROOT
ATOM      1  N   UNL     1       0.254  -4.792   4.845  0.00  0.00    -0.297 N 
ATOM      2  C   UNL     1       0.068  -6.056   5.275  0.00  0.00    +0.300 C 
ATOM      3  O   UNL     1       1.007  -6.696   5.706  0.00  0.00    -0.253 OA
ATOM      4  N   UNL     1      -1.160  -6.609   5.227  0.00  0.00    -0.293 N 
ATOM      5  H   UNL     1      -0.495  -4.281   4.501  0.00  0.00    +0.151 HD
ATOM      6  H   UNL     1      -1.909  -6.099   4.883  0.00  0.00    +0.151 HD
ENDROOT
BRANCH   1  10
ATOM      7  C   UNL     1       1.503  -2.548   2.473  0.00  0.00    -0.011 C 
ATOM      8  C   UNL     1       0.719  -2.160   3.728  0.00  0.00    +0.005 C 
ATOM      9  C   UNL     1       1.459  -2.667   4.968  0.00  0.00    +0.022 C 
ATOM     10  C   UNL     1       1.589  -4.190   4.897  0.00  0.00    +0.074 C 
ATOM     11  C   UNL     1       2.373  -4.577   3.642  0.00  0.00    +0.022 C 
ATOM     12  C   UNL     1       1.633  -4.070   2.402  0.00  0.00    +0.005 C 
BRANCH   7  13
ATOM     13  C   UNL     1       0.763  -2.041   1.233  0.00  0.00    +0.003 C 
BRANCH  13  14
ATOM     14  C   UNL     1       0.742  -0.511   1.242  0.00  0.00    +0.000 C 
BRANCH  14  16
ATOM     15  C   UNL     1      -0.019   1.526   0.010  0.00  0.00    +0.004 C 
ATOM     16  C   UNL     1       0.002  -0.004   0.002  0.00  0.00    -0.003 C 
ENDBRANCH  14  16
ENDBRANCH  13  14
ENDBRANCH   7  13
ENDBRANCH   1  10
BRANCH   4  17
ATOM     17  C   UNL     1      -1.363  -7.983   5.695  0.00  0.00    +0.102 C 
ATOM     18  C   UNL     1      -1.038  -8.960   4.563  0.00  0.00    +0.033 C 
BRANCH  17  19
ATOM     19  C   UNL     1      -2.798  -8.163   6.117  0.00  0.00    -0.026 A 
ATOM     20  C   UNL     1      -3.814  -7.593   5.373  0.00  0.00    +0.005 A 
ATOM     21  C   UNL     1      -5.131  -7.758   5.761  0.00  0.00    +0.002 A 
ATOM     22  C   UNL     1      -5.431  -8.493   6.893  0.00  0.00    +0.028 A 
ATOM     23  C   UNL     1      -4.415  -9.064   7.636  0.00  0.00    +0.105 A 
ATOM     24  C   UNL     1      -3.098  -8.902   7.246  0.00  0.00    +0.034 A 
BRANCH  23  25
ATOM     25  S   UNL     1      -4.798 -10.000   9.079  0.00  0.00    +0.056 S 
ATOM     26  O   UNL     1      -3.639  -9.970   9.902  0.00  0.00    -0.153 OA
ATOM     27  O   UNL     1      -6.066  -9.548   9.532  0.00  0.00    -0.153 OA
BRANCH  25  28
ATOM     28  N   UNL     1      -4.999 -11.573   8.602  0.00  0.00    -0.204 NA
ATOM     29  H   UNL     1      -4.787 -12.296   9.213  0.00  0.00    +0.144 HD
ATOM     30  H   UNL     1      -5.329 -11.772   7.712  0.00  0.00    +0.144 HD
ENDBRANCH  25  28
ENDBRANCH  23  25
ENDBRANCH  17  19
ENDBRANCH   4  17
TORSDOF 8
