REMARK  Name = ZINC36867951
REMARK  3 active torsions:
REMARK  status: ('A' for Active; 'I' for Inactive)
REMARK    1  A    between atoms: C_4  and  N_10
REMARK    2  A    between atoms: C_6  and  N_7
REMARK    3  A    between atoms: C_11  and  C_13
REMARK                            x       y       z     vdW  Elec       q    Type
REMARK                         _______ _______ _______ _____ _____    ______ ____
ROOT
ATOM      1  C   UNL     1      -0.023   1.366   0.040  0.00  0.00    +0.035 A 
ATOM      2  C   UNL     1       1.161   2.081   0.026  0.00  0.00    +0.042 A 
ATOM      3  C   UNL     1       2.372   1.414   0.000  0.00  0.00    +0.145 A 
ATOM      4  C   UNL     1       2.398   0.024  -0.011  0.00  0.00    +0.071 A 
ATOM      5  C   UNL     1       1.207  -0.689   0.004  0.00  0.00    +0.059 A 
ATOM      6  C   UNL     1       0.000  -0.017   0.029  0.00  0.00    +0.128 A 
ATOM      7  F   UNL     1       3.528   2.113  -0.015  0.00  0.00    -0.204 F 
ENDROOT
BRANCH   4   8
ATOM      8  N   UNL     1       3.622  -0.655  -0.037  0.00  0.00    -0.279 N 
ATOM      9  C   UNL     1       3.689  -1.905  -0.538  0.00  0.00    +0.249 C 
ATOM     10  O   UNL     1       2.709  -2.405  -1.059  0.00  0.00    -0.270 OA
ATOM     11  H   UNL     1       4.421  -0.226   0.305  0.00  0.00    +0.155 HD
BRANCH   9  12
ATOM     12  C   UNL     1       4.946  -2.664  -0.456  0.00  0.00    +0.045 A 
ATOM     13  C   UNL     1       5.057  -4.002  -0.986  0.00  0.00    +0.036 A 
ATOM     14  C   UNL     1       6.264  -4.588  -0.847  0.00  0.00    +0.056 A 
ATOM     15  S   UNL     1       7.224  -3.343  -0.013  0.00  0.00    -0.089 S 
ATOM     16  C   UNL     1       6.074  -2.130   0.126  0.00  0.00    +0.059 A 
ATOM     17 BR   UNL     1       6.804  -6.313  -1.403  0.00  0.00    -0.043 Br
ENDBRANCH   9  12
ENDBRANCH   4   8
BRANCH   6  18
ATOM     18  N   UNL     1      -1.270  -0.777   0.045  0.00  0.00    +0.056 N 
ATOM     19  O   UNL     1      -2.326  -0.190   0.068  0.00  0.00    -0.126 OA
ATOM     20  O   UNL     1      -1.250  -1.986   0.036  0.00  0.00    -0.126 OA
ENDBRANCH   6  18
TORSDOF 3
