REMARK  Name = ZINC61595516
REMARK  6 active torsions:
REMARK  status: ('A' for Active; 'I' for Inactive)
REMARK    1  A    between atoms: C_1  and  C_2
REMARK    2  A    between atoms: C_2  and  N_3
REMARK    3  A    between atoms: C_9  and  S_10
REMARK    4  A    between atoms: S_10  and  C_11
REMARK    5  A    between atoms: C_16  and  C_17
REMARK    6  A    between atoms: N_18  and  O_19
REMARK                            x       y       z     vdW  Elec       q    Type
REMARK                         _______ _______ _______ _____ _____    ______ ____
ROOT
ATOM      1  C   UNL     1      -2.972  -1.025  -3.827  0.00  0.00    +0.026 A 
ATOM      2  C   UNL     1      -4.201  -1.375  -3.283  0.00  0.00    +0.016 A 
ATOM      3  C   UNL     1      -5.250  -1.722  -4.110  0.00  0.00    +0.001 A 
ATOM      4  C   UNL     1      -5.085  -1.724  -5.486  0.00  0.00    +0.001 A 
ATOM      5  C   UNL     1      -3.872  -1.380  -6.043  0.00  0.00    +0.012 A 
ATOM      6  C   UNL     1      -2.805  -1.020  -5.219  0.00  0.00    +0.032 A 
ENDROOT
BRANCH   6   7
ATOM      7  C   UNL     1      -1.504  -0.643  -5.810  0.00  0.00    +0.163 C 
ATOM      8  N   UNL     1      -0.508  -0.314  -5.038  0.00  0.00    -0.071 NA
ATOM      9  N   UNL     1      -1.343  -0.640  -7.186  0.00  0.00    -0.340 N 
ATOM     10  H   UNL     1      -2.084  -0.885  -7.761  0.00  0.00    +0.144 HD
ATOM     11  H   UNL     1      -0.489  -0.393  -7.574  0.00  0.00    +0.144 HD
BRANCH   8  12
ATOM     12  O   UNL     1       0.738   0.047  -5.604  0.00  0.00    -0.408 OA
ATOM     13  H   UNL     1       1.415   0.275  -4.952  0.00  0.00    +0.328 HD
ENDBRANCH   8  12
ENDBRANCH   6   7
BRANCH   1  14
ATOM     14  S   UNL     1      -1.631  -0.582  -2.773  0.00  0.00    -0.049 S 
BRANCH  14  21
ATOM     15  N   UNL     1       0.628  -2.114  -2.158  0.00  0.00    -0.271 N 
ATOM     16  C   UNL     1       1.102  -3.359  -2.365  0.00  0.00    +0.345 A 
ATOM     17  O   UNL     1       2.164  -3.800  -1.964  0.00  0.00    -0.245 OA
ATOM     18  N   UNL     1       0.185  -4.027  -3.095  0.00  0.00    -0.226 N 
ATOM     19  H   UNL     1       0.251  -4.947  -3.397  0.00  0.00    +0.194 HD
ATOM     20  N   UNL     1      -0.881  -3.149  -3.336  0.00  0.00    -0.144 NA
ATOM     21  C   UNL     1      -0.603  -2.013  -2.766  0.00  0.00    +0.197 A 
BRANCH  15  23
ATOM     22  C   UNL     1       0.905  -1.132   0.065  0.00  0.00    +0.027 C 
ATOM     23  C   UNL     1       1.305  -1.052  -1.410  0.00  0.00    +0.125 C 
ENDBRANCH  15  23
ENDBRANCH  14  21
ENDBRANCH   1  14
TORSDOF 5
