REMARK  Name = ZINC30953490
REMARK  9 active torsions:
REMARK  status: ('A' for Active; 'I' for Inactive)
REMARK    1  A    between atoms: C_1  and  C_2
REMARK    2  A    between atoms: C_5  and  C_27
REMARK    3  A    between atoms: C_5  and  C_28
REMARK    4  A    between atoms: C_10  and  O_13
REMARK    5  A    between atoms: O_13  and  C_14
REMARK    6  A    between atoms: C_15  and  C_17
REMARK    7  A    between atoms: C_17  and  S_18
REMARK    8  A    between atoms: S_18  and  C_19
REMARK    9  A    between atoms: C_21  and  N_26
REMARK                            x       y       z     vdW  Elec       q    Type
REMARK                         _______ _______ _______ _____ _____    ______ ____
ROOT
ATOM      1  C   UNL     1       1.356   6.295   0.243  0.00  0.00    +0.012 C 
ATOM      2  C   UNL     1       2.521   5.556  -0.419  0.00  0.00    +0.020 C 
ATOM      3  C   UNL     1       3.838   6.055   0.176  0.00  0.00    +0.033 C 
ATOM      4  C   UNL     1       4.981   5.171  -0.339  0.00  0.00    +0.037 C 
ATOM      5  N   UNL     1       4.751   3.807   0.158  0.00  0.00    -0.265 N 
ATOM      6  C   UNL     1       3.458   3.267   0.082  0.00  0.00    +0.041 A 
ATOM      7  C   UNL     1       2.366   4.076  -0.188  0.00  0.00    -0.020 A 
ATOM      8  C   UNL     1       1.101   3.518  -0.257  0.00  0.00    +0.051 A 
ATOM      9  C   UNL     1       0.925   2.159  -0.050  0.00  0.00    +0.120 A 
ATOM     10  C   UNL     1       2.019   1.350   0.219  0.00  0.00    +0.047 A 
ATOM     11  C   UNL     1       3.282   1.903   0.285  0.00  0.00    +0.027 A 
ATOM     12  C   UNL     1       5.765   3.087   0.679  0.00  0.00    +0.231 C 
ATOM     13  O   UNL     1       5.534   2.057   1.275  0.00  0.00    -0.274 OA
ATOM     14  C   UNL     1       6.319   5.695   0.187  0.00  0.00    +0.032 C 
ATOM     15  C   UNL     1       4.990   5.170  -1.869  0.00  0.00    +0.032 C 
ENDROOT
BRANCH   9  16
ATOM     16  O   UNL     1      -0.321   1.617  -0.114  0.00  0.00    -0.495 OA
ATOM     17  C   UNL     1      -0.428   0.209   0.104  0.00  0.00    +0.277 C 
ENDBRANCH   9  16
BRANCH  12  18
ATOM     18  C   UNL     1       7.186   3.563   0.520  0.00  0.00    +0.173 C 
BRANCH  18  19
ATOM     19  S   UNL     1       8.323   2.238   0.996  0.00  0.00    -0.078 S 
BRANCH  19  20
ATOM     20  C   UNL     1       9.865   3.045   0.722  0.00  0.00    +0.171 A 
ATOM     21  N   UNL     1      10.990   2.386   0.962  0.00  0.00    -0.209 NA
ATOM     22  C   UNL     1      12.172   2.964   0.766  0.00  0.00    +0.124 A 
ATOM     23  C   UNL     1      12.215   4.277   0.302  0.00  0.00    +0.113 A 
ATOM     24  C   UNL     1      11.015   4.934   0.062  0.00  0.00    +0.254 A 
ATOM     25  N   UNL     1       9.871   4.292   0.275  0.00  0.00    -0.302 N 
ATOM     26  O   UNL     1      11.011   6.212  -0.390  0.00  0.00    -0.268 OA
ATOM     27  H   UNL     1       8.921   4.809   0.077  0.00  0.00    +0.171 HD
BRANCH  22  28
ATOM     28  N   UNL     1      13.344   2.270   1.019  0.00  0.00    -0.343 N 
ATOM     29  H   UNL     1      14.318   2.755   0.855  0.00  0.00    +0.144 HD
ATOM     30  H   UNL     1      13.301   1.233   1.385  0.00  0.00    +0.144 HD
ENDBRANCH  22  28
ENDBRANCH  19  20
ENDBRANCH  18  19
ENDBRANCH  12  18
TORSDOF 5
