REMARK  Name = ZINC04087265
REMARK  4 active torsions:
REMARK  status: ('A' for Active; 'I' for Inactive)
REMARK    1  A    between atoms: C_1  and  N_44
REMARK    2  A    between atoms: C_7  and  N_12
REMARK    3  A    between atoms: C_8  and  C_9
REMARK    4  A    between atoms: C_13  and  C_15
REMARK                            x       y       z     vdW  Elec       q    Type
REMARK                         _______ _______ _______ _____ _____    ______ ____
ROOT
ATOM      1  C   UNL     1      11.759   8.786  -0.281  0.00  0.00    -0.096 C 
ATOM      2  C   UNL     1       9.517   9.391   0.407  0.00  0.00    -0.074 C 
ATOM      3  C   UNL     1       8.048   9.316  -0.020  0.00  0.00    +0.018 C 
ATOM      4  C   UNL     1       7.631   7.850  -0.028  0.00  0.00    -0.027 A 
ATOM      5  C   UNL     1       8.570   6.877  -0.043  0.00  0.00    -0.021 A 
ATOM      6  S   UNL     1       7.654   5.364  -0.036  0.00  0.00    -0.079 S 
ATOM      7  C   UNL     1       6.046   6.011  -0.024  0.00  0.00    +0.085 A 
ATOM      8  C   UNL     1       6.257   7.385  -0.018  0.00  0.00    +0.068 A 
ATOM      9  C   UNL     1      10.054   7.074  -0.057  0.00  0.00    -0.036 C 
ATOM     10  N   UNL     1      10.320   8.483  -0.438  0.00  0.00    +0.381 N 
ATOM     11  H   UNL     1      10.055   8.619  -1.421  0.00  0.00    -0.082 HD
ENDROOT
BRANCH   8  12
ATOM     12  C   UNL     1       5.134   8.327  -0.002  0.00  0.00    +0.244 C 
ATOM     13  O   UNL     1       4.677   8.712   1.058  0.00  0.00    -0.270 OA
ATOM     14  N   UNL     1       4.607   8.767  -1.162  0.00  0.00    -0.325 N 
ATOM     15  H   UNL     1       4.971   8.460  -2.007  0.00  0.00    +0.145 HD
ATOM     16  H   UNL     1       3.865   9.391  -1.152  0.00  0.00    +0.145 HD
ENDBRANCH   8  12
BRANCH   7  17
ATOM     17  N   UNL     1       4.842   5.326  -0.016  0.00  0.00    -0.275 N 
ATOM     18  C   UNL     1       4.834   3.978  -0.024  0.00  0.00    +0.256 C 
ATOM     19  O   UNL     1       5.884   3.364  -0.037  0.00  0.00    -0.270 OA
ATOM     20  H   UNL     1       4.005   5.816  -0.005  0.00  0.00    +0.156 HD
BRANCH  18  21
ATOM     21  C   UNL     1       3.555   3.249  -0.015  0.00  0.00    +0.122 A 
ATOM     22  C   UNL     1       2.353   3.936   0.000  0.00  0.00    +0.031 A 
ATOM     23  C   UNL     1       1.145   3.193   0.008  0.00  0.00    +0.018 A 
ATOM     24  C   UNL     1      -0.091   3.857   0.024  0.00  0.00    +0.011 A 
ATOM     25  C   UNL     1      -1.250   3.137   0.031  0.00  0.00    +0.001 A 
ATOM     26  C   UNL     1      -1.216   1.749   0.017  0.00  0.00    +0.004 A 
ATOM     27  C   UNL     1      -0.013   1.076   0.008  0.00  0.00    +0.047 A 
ATOM     28  C   UNL     1       1.182   1.788   0.000  0.00  0.00    +0.139 A 
ATOM     29  O   UNL     1       2.359   1.126  -0.015  0.00  0.00    -0.422 OA
ATOM     30  C   UNL     1       3.531   1.782  -0.023  0.00  0.00    +0.350 A 
ATOM     31  O   UNL     1       4.576   1.158  -0.037  0.00  0.00    -0.244 OA
ENDBRANCH  18  21
ENDBRANCH   7  17
TORSDOF 3
