REMARK  Name = ZINC57596737
REMARK  8 active torsions:
REMARK  status: ('A' for Active; 'I' for Inactive)
REMARK    1  A    between atoms: C_1  and  C_2
REMARK    2  A    between atoms: C_6  and  N_8
REMARK    3  A    between atoms: N_8  and  C_9
REMARK    4  A    between atoms: C_9  and  C_11
REMARK    5  A    between atoms: C_9  and  C_15
REMARK    6  A    between atoms: C_11  and  N_12
REMARK    7  A    between atoms: C_20  and  O_21
REMARK    8  A    between atoms: O_21  and  C_22
REMARK                            x       y       z     vdW  Elec       q    Type
REMARK                         _______ _______ _______ _____ _____    ______ ____
ROOT
ATOM      1  C   UNL     1       0.010  -4.171   2.513  0.00  0.00    +0.130 C 
ENDROOT
BRANCH   1   2
ATOM      2  C   UNL     1      -0.705  -4.753   3.706  0.00  0.00    +0.016 A 
ATOM      3  C   UNL     1      -0.712  -4.072   4.908  0.00  0.00    +0.009 A 
ATOM      4  C   UNL     1      -1.367  -4.605   6.002  0.00  0.00    +0.001 A 
ATOM      5  C   UNL     1      -2.017  -5.822   5.896  0.00  0.00    +0.004 A 
ATOM      6  C   UNL     1      -2.013  -6.506   4.697  0.00  0.00    +0.046 A 
ATOM      7  C   UNL     1      -1.361  -5.970   3.596  0.00  0.00    +0.125 A 
BRANCH   7   8
ATOM      8  O   UNL     1      -1.361  -6.639   2.413  0.00  0.00    -0.495 OA
ATOM      9  C   UNL     1      -2.056  -7.886   2.372  0.00  0.00    +0.277 C 
ENDBRANCH   7   8
ENDBRANCH   1   2
BRANCH   1  10
ATOM     10  N   UNL     1       0.056  -2.712   2.636  0.00  0.00    -0.335 N 
ATOM     11  H   UNL     1       0.846  -2.280   2.997  0.00  0.00    +0.147 HD
BRANCH  10  17
ATOM     12  C   UNL     1      -2.119   1.680   2.265  0.00  0.00    +0.044 C 
ATOM     13  C   UNL     1      -2.119   0.190   2.041  0.00  0.00    -0.049 A 
ATOM     14  C   UNL     1      -3.205  -0.417   1.435  0.00  0.00    +0.003 A 
ATOM     15  C   UNL     1      -3.209  -1.784   1.228  0.00  0.00    +0.002 A 
ATOM     16  C   UNL     1      -2.130  -2.548   1.625  0.00  0.00    +0.023 A 
ATOM     17  C   UNL     1      -1.038  -1.942   2.233  0.00  0.00    +0.028 A 
ATOM     18  C   UNL     1      -1.034  -0.567   2.435  0.00  0.00    +0.026 A 
ENDBRANCH  10  17
ENDBRANCH   1  10
BRANCH   1  19
ATOM     19  C   UNL     1       1.435  -4.723   2.454  0.00  0.00    +0.238 C 
BRANCH  19  20
ATOM     20  N   UNL     1       2.143  -4.127   1.318  0.00  0.00    +0.025 N 
ATOM     21  O   UNL     1       2.090  -2.933   1.131  0.00  0.00    -0.132 OA
ATOM     22  O   UNL     1       2.780  -4.828   0.567  0.00  0.00    -0.132 OA
ENDBRANCH  19  20
ENDBRANCH   1  19
TORSDOF 6
