REMARK  Name = ZINC40033636
REMARK  4 active torsions:
REMARK  status: ('A' for Active; 'I' for Inactive)
REMARK    1  A    between atoms: C_1  and  N_2
REMARK    2  A    between atoms: C_6  and  C_8
REMARK    3  A    between atoms: C_8  and  C_10
REMARK    4  A    between atoms: C_8  and  N_16
REMARK                            x       y       z     vdW  Elec       q    Type
REMARK                         _______ _______ _______ _____ _____    ______ ____
ROOT
ATOM      1  C   UNL     1       1.207  -4.179  -2.054  0.00  0.00    +0.174 C 
ENDROOT
BRANCH   1   7
ATOM      2  C   UNL     1       1.719   1.599  -0.073  0.00  0.00    +0.129 C 
ATOM      3  N   UNL     1       1.571   0.144   0.017  0.00  0.00    -0.302 N 
ATOM      4  C   UNL     1       1.533  -0.600  -1.106  0.00  0.00    +0.306 C 
ATOM      5  O   UNL     1       1.620  -0.065  -2.193  0.00  0.00    -0.252 OA
ATOM      6  N   UNL     1       1.397  -1.939  -1.023  0.00  0.00    -0.239 N 
ATOM      7  C   UNL     1       1.358  -2.683  -2.146  0.00  0.00    +0.242 C 
ATOM      8  O   UNL     1       1.446  -2.148  -3.231  0.00  0.00    -0.273 OA
ATOM      9  H   UNL     1       1.502  -0.284   0.885  0.00  0.00    +0.150 HD
ATOM     10  H   UNL     1       1.327  -2.366  -0.155  0.00  0.00    +0.159 HD
ENDBRANCH   1   7
BRANCH   1  11
ATOM     11  N   UNL     1       1.818  -4.807  -3.233  0.00  0.00    -0.283 NA
ATOM     12  C   UNL     1       1.638  -6.266  -3.205  0.00  0.00    +0.091 C 
ATOM     13  C   UNL     1       1.911  -6.825  -4.612  0.00  0.00    +0.058 C 
ATOM     14  C   UNL     1       3.176  -6.207  -5.110  0.00  0.00    -0.005 A 
ATOM     15  C   UNL     1       3.817  -5.127  -4.582  0.00  0.00    -0.023 A 
ATOM     16  C   UNL     1       4.991  -4.728  -5.216  0.00  0.00    +0.013 A 
ATOM     17  C   UNL     1       5.437  -5.403  -6.301  0.00  0.00    +0.046 A 
ATOM     18  S   UNL     1       4.190  -6.670  -6.485  0.00  0.00    -0.101 S 
ATOM     19  C   UNL     1       3.231  -4.428  -3.358  0.00  0.00    +0.121 C 
ENDBRANCH   1  11
BRANCH   1  20
ATOM     20  C   UNL     1      -0.257  -4.534  -1.998  0.00  0.00    -0.021 A 
ATOM     21  C   UNL     1      -1.016  -4.521  -3.153  0.00  0.00    +0.005 A 
ATOM     22  C   UNL     1      -2.358  -4.846  -3.102  0.00  0.00    +0.000 A 
ATOM     23  C   UNL     1      -2.942  -5.184  -1.896  0.00  0.00    +0.000 A 
ATOM     24  C   UNL     1      -2.183  -5.197  -0.740  0.00  0.00    +0.000 A 
ATOM     25  C   UNL     1      -0.840  -4.877  -0.792  0.00  0.00    +0.005 A 
ENDBRANCH   1  20
TORSDOF 3
