REMARK  Name = ZINC54965285
REMARK  4 active torsions:
REMARK  status: ('A' for Active; 'I' for Inactive)
REMARK    1  A    between atoms: C_1  and  C_2
REMARK    2  A    between atoms: C_2  and  C_3
REMARK    3  A    between atoms: N_6  and  C_10
REMARK    4  A    between atoms: C_14  and  C_16
REMARK                            x       y       z     vdW  Elec       q    Type
REMARK                         _______ _______ _______ _____ _____    ______ ____
ROOT
ATOM      1  C   UNL     1      -1.450  -0.523   0.014  0.00  0.00    -0.054 C 
ATOM      2  C   UNL     1      -1.418  -2.050   0.138  0.00  0.00    +0.089 C 
ATOM      3  N   UNL     1      -2.793  -2.556   0.007  0.00  0.00    -0.333 N 
ATOM      4  C   UNL     1      -3.594  -2.100  -1.139  0.00  0.00    +0.086 C 
ATOM      5  C   UNL     1      -3.523  -0.570  -1.203  0.00  0.00    -0.063 C 
ATOM      6  N   UNL     1      -2.117  -0.148  -1.239  0.00  0.00    +0.383 N 
ATOM      7  H   UNL     1      -2.071   0.853  -1.357  0.00  0.00    -0.085 HD
ATOM      8  H   UNL     1      -1.652  -0.597  -2.014  0.00  0.00    -0.085 HD
ENDROOT
BRANCH   3   9
ATOM      9  C   UNL     1      -3.323  -3.447   0.945  0.00  0.00    +0.030 A 
ATOM     10  C   UNL     1      -4.659  -3.826   0.866  0.00  0.00    +0.023 A 
ATOM     11  C   UNL     1      -5.188  -4.706   1.791  0.00  0.00    +0.003 A 
ATOM     12  C   UNL     1      -4.396  -5.215   2.799  0.00  0.00    +0.015 A 
ATOM     13  C   UNL     1      -3.052  -4.841   2.888  0.00  0.00    +0.065 A 
ATOM     14  C   UNL     1      -2.516  -3.956   1.950  0.00  0.00    +0.038 A 
BRANCH  13  15
ATOM     15  C   UNL     1      -2.202  -5.383   3.965  0.00  0.00    +0.387 C 
ATOM     16  O   UNL     1      -2.673  -6.161   4.782  0.00  0.00    -0.241 OA
ATOM     17  O   UNL     1      -1.027  -5.054   4.040  0.00  0.00    -0.241 OA
ENDBRANCH  13  15
ENDBRANCH   3   9
BRANCH   1  19
ATOM     18  C   UNL     1      -0.051   1.548   0.013  0.00  0.00    +0.002 C 
ATOM     19  C   UNL     1      -0.018   0.018   0.012  0.00  0.00    -0.018 C 
ENDBRANCH   1  19
TORSDOF 3
