REMARK  Name = ZINC12807370
REMARK  12 active torsions:
REMARK  status: ('A' for Active; 'I' for Inactive)
REMARK    1  A    between atoms: C_1  and  C_2
REMARK    2  A    between atoms: C_2  and  C_3
REMARK    3  A    between atoms: C_4  and  C_33
REMARK    4  A    between atoms: N_10  and  C_25
REMARK    5  A    between atoms: C_11  and  S_13
REMARK    6  A    between atoms: S_13  and  C_14
REMARK    7  A    between atoms: C_14  and  C_16
REMARK    8  A    between atoms: C_14  and  C_19
REMARK    9  A    between atoms: C_16  and  C_17
REMARK   10  A    between atoms: C_16  and  C_18
REMARK   11  A    between atoms: C_27  and  C_32
REMARK   12  A    between atoms: C_30  and  C_31
REMARK                            x       y       z     vdW  Elec       q    Type
REMARK                         _______ _______ _______ _____ _____    ______ ____
ROOT
ATOM      1  C   UNL     1      -7.852  -2.590  -0.986  0.00  0.00    -0.023 A 
ATOM      2  C   UNL     1      -7.432  -3.768  -0.502  0.00  0.00    -0.007 A 
ATOM      3  S   UNL     1      -5.776  -3.420   0.057  0.00  0.00    -0.073 S 
ATOM      4  C   UNL     1      -5.695  -1.700  -0.374  0.00  0.00    +0.117 A 
ATOM      5  C   UNL     1      -6.958  -1.445  -0.941  0.00  0.00    +0.076 A 
ATOM      6  C   UNL     1      -7.180  -0.106  -1.391  0.00  0.00    +0.268 A 
ATOM      7  O   UNL     1      -8.245   0.208  -1.895  0.00  0.00    -0.267 OA
ATOM      8  N   UNL     1      -6.202   0.806  -1.243  0.00  0.00    -0.255 N 
ATOM      9  C   UNL     1      -5.000   0.471  -0.684  0.00  0.00    +0.178 A 
ATOM     10  N   UNL     1      -4.769  -0.756  -0.263  0.00  0.00    -0.215 NA
ATOM     11  C   UNL     1      -8.180  -5.075  -0.447  0.00  0.00    +0.052 C 
ENDROOT
BRANCH   8  12
ATOM     12  C   UNL     1      -6.416   2.121  -1.676  0.00  0.00    +0.055 A 
ATOM     13  C   UNL     1      -6.098   2.486  -2.977  0.00  0.00    +0.030 A 
ATOM     14  C   UNL     1      -6.310   3.783  -3.401  0.00  0.00    -0.048 A 
ATOM     15  C   UNL     1      -6.840   4.718  -2.530  0.00  0.00    +0.004 A 
ATOM     16  C   UNL     1      -7.158   4.358  -1.234  0.00  0.00    +0.005 A 
ATOM     17  C   UNL     1      -6.952   3.061  -0.806  0.00  0.00    -0.026 A 
ATOM     18  C   UNL     1      -7.305   2.668   0.606  0.00  0.00    +0.046 C 
ATOM     19  C   UNL     1      -5.965   4.180  -4.813  0.00  0.00    +0.044 C 
ENDBRANCH   8  12
BRANCH   1  21
ATOM     20  C   UNL     1     -10.217  -2.058  -0.463  0.00  0.00    +0.009 C 
ATOM     21  C   UNL     1      -9.235  -2.455  -1.568  0.00  0.00    +0.033 C 
ENDBRANCH   1  21
BRANCH   9  22
ATOM     22  S   UNL     1      -3.745   1.698  -0.520  0.00  0.00    -0.074 S 
BRANCH  22  23
ATOM     23  C   UNL     1      -2.421   0.698   0.202  0.00  0.00    +0.143 C 
BRANCH  23  24
ATOM     24  C   UNL     1      -1.912  -0.280  -0.826  0.00  0.00    +0.234 C 
ATOM     25  O   UNL     1      -2.034  -0.036  -2.007  0.00  0.00    -0.274 OA
ATOM     26  N   UNL     1      -1.323  -1.426  -0.432  0.00  0.00    -0.239 N 
ATOM     27  C   UNL     1      -0.873  -2.303  -1.351  0.00  0.00    +0.303 C 
ATOM     28  O   UNL     1      -0.995  -2.058  -2.536  0.00  0.00    -0.253 OA
ATOM     29  N   UNL     1      -0.288  -3.452  -0.958  0.00  0.00    -0.313 N 
ATOM     30  H   UNL     1      -1.225  -1.622   0.513  0.00  0.00    +0.159 HD
ATOM     31  H   UNL     1      -0.191  -3.647  -0.013  0.00  0.00    +0.146 HD
ATOM     32  H   UNL     1       0.035  -4.083  -1.619  0.00  0.00    +0.146 HD
ENDBRANCH  23  24
BRANCH  23  33
ATOM     33  C   UNL     1      -1.277   1.611   0.647  0.00  0.00    +0.005 C 
ATOM     34  C   UNL     1      -1.781   2.571   1.726  0.00  0.00    +0.009 C 
ATOM     35  C   UNL     1      -0.137   0.762   1.212  0.00  0.00    +0.009 C 
ENDBRANCH  23  33
ENDBRANCH  22  23
ENDBRANCH   9  22
TORSDOF 6
