REMARK  Name = ZINC67224531
REMARK  9 active torsions:
REMARK  status: ('A' for Active; 'I' for Inactive)
REMARK    1  A    between atoms: C_3  and  O_8
REMARK    2  A    between atoms: O_8  and  C_9
REMARK    3  A    between atoms: C_9  and  C_10
REMARK    4  A    between atoms: C_10  and  C_12
REMARK    5  A    between atoms: C_10  and  O_26
REMARK    6  A    between atoms: C_12  and  N_13
REMARK    7  A    between atoms: N_13  and  C_14
REMARK    8  A    between atoms: C_14  and  C_15
REMARK    9  A    between atoms: C_20  and  C_21
REMARK                            x       y       z     vdW  Elec       q    Type
REMARK                         _______ _______ _______ _____ _____    ______ ____
ROOT
ATOM      1  N   UNL     1       8.394   2.398   0.179  0.00  0.00    +0.384 N 
ATOM      2  H   UNL     1       8.435   2.988  -0.638  0.00  0.00    -0.085 HD
ATOM      3  H   UNL     1       8.286   2.971   1.003  0.00  0.00    -0.085 HD
ENDROOT
BRANCH   1   4
ATOM      4  C   UNL     1       7.250   1.484   0.066  0.00  0.00    -0.047 C 
BRANCH   4   5
ATOM      5  C   UNL     1       5.957   2.295  -0.043  0.00  0.00    +0.135 C 
BRANCH   5   6
ATOM      6  O   UNL     1       5.966   3.043  -1.261  0.00  0.00    -0.390 OA
ATOM      7  H   UNL     1       6.029   2.498  -2.057  0.00  0.00    +0.210 HD
ENDBRANCH   5   6
BRANCH   5   8
ATOM      8  C   UNL     1       4.757   1.346  -0.037  0.00  0.00    +0.258 C 
BRANCH   8   9
ATOM      9  O   UNL     1       3.548   2.107  -0.021  0.00  0.00    -0.489 OA
BRANCH   9  12
ATOM     10  C   UNL     1      -0.017   1.378   0.010  0.00  0.00    +0.006 A 
ATOM     11  C   UNL     1       1.169   2.087   0.002  0.00  0.00    +0.046 A 
ATOM     12  C   UNL     1       2.381   1.411  -0.013  0.00  0.00    +0.123 A 
ATOM     13  C   UNL     1       2.400   0.024  -0.021  0.00  0.00    +0.084 A 
ATOM     14  C   UNL     1       1.210  -0.682  -0.013  0.00  0.00    +0.127 A 
ATOM     15  C   UNL     1       0.002  -0.004   0.002  0.00  0.00    +0.038 A 
ATOM     16  F   UNL     1       1.226  -2.033  -0.021  0.00  0.00    -0.205 F 
ENDBRANCH   9  12
ENDBRANCH   8   9
ENDBRANCH   5   8
ENDBRANCH   4   5
ENDBRANCH   1   4
BRANCH   1  17
ATOM     17  C   UNL     1       9.635   1.619   0.284  0.00  0.00    -0.043 C 
BRANCH  17  18
ATOM     18  C   UNL     1      10.809   2.557   0.401  0.00  0.00    -0.019 A 
ATOM     19  C   UNL     1      11.640   2.920  -0.600  0.00  0.00    +0.107 A 
ATOM     20  N   UNL     1      12.558   3.770  -0.093  0.00  0.00    -0.284 N 
ATOM     21  H   UNL     1      13.280   4.190  -0.588  0.00  0.00    +0.188 HD
ATOM     22  N   UNL     1      12.289   3.942   1.271  0.00  0.00    -0.173 NA
ATOM     23  C   UNL     1      11.231   3.217   1.573  0.00  0.00    +0.100 A 
BRANCH  23  24
ATOM     24  C   UNL     1      10.600   3.111   2.907  0.00  0.00    +0.039 A 
ATOM     25  C   UNL     1      11.188   3.134   4.143  0.00  0.00    +0.018 A 
ATOM     26  C   UNL     1      10.387   3.018   5.259  0.00  0.00    +0.008 A 
ATOM     27  C   UNL     1       9.046   2.885   5.100  0.00  0.00    +0.046 A 
ATOM     28  S   UNL     1       8.874   2.929   3.324  0.00  0.00    -0.095 S 
ENDBRANCH  23  24
ENDBRANCH  17  18
ENDBRANCH   1  17
TORSDOF 9
