REMARK  Name = ZINC08592312
REMARK  4 active torsions:
REMARK  status: ('A' for Active; 'I' for Inactive)
REMARK    1  A    between atoms: C_8  and  N_16
REMARK    2  A    between atoms: C_9  and  S_11
REMARK    3  A    between atoms: S_11  and  C_12
REMARK    4  A    between atoms: C_12  and  C_13
REMARK                            x       y       z     vdW  Elec       q    Type
REMARK                         _______ _______ _______ _____ _____    ______ ____
ROOT
ATOM      1  C   UNL     1       0.006   1.357   0.310  0.00  0.00    +0.002 A 
ATOM      2  C   UNL     1       1.179   2.089   0.146  0.00  0.00    +0.002 A 
ATOM      3  C   UNL     1       2.377   1.462  -0.023  0.00  0.00    +0.030 A 
ATOM      4  C   UNL     1       2.434   0.059  -0.032  0.00  0.00    +0.091 A 
ATOM      5  C   UNL     1       1.241  -0.685   0.134  0.00  0.00    +0.091 A 
ATOM      6  C   UNL     1       0.025  -0.005   0.306  0.00  0.00    +0.030 A 
ATOM      7  N   UNL     1       1.285  -2.026   0.127  0.00  0.00    -0.228 NA
ATOM      8  C   UNL     1       2.437  -2.642  -0.035  0.00  0.00    +0.154 A 
ATOM      9  C   UNL     1       3.630  -1.898  -0.202  0.00  0.00    +0.138 A 
ATOM     10  N   UNL     1       3.601  -0.581  -0.197  0.00  0.00    -0.235 NA
ENDROOT
BRANCH   8  11
ATOM     11  N   UNL     1       2.482  -4.028  -0.042  0.00  0.00    -0.313 N 
ATOM     12  C   UNL     1       2.622  -4.779   1.213  0.00  0.00    +0.106 C 
ATOM     13  C   UNL     1       1.491  -5.808   1.301  0.00  0.00    +0.019 C 
ATOM     14  C   UNL     1       1.501  -6.679   0.043  0.00  0.00    +0.003 C 
ATOM     15  C   UNL     1       1.262  -5.803  -1.188  0.00  0.00    +0.019 C 
ATOM     16  C   UNL     1       2.384  -4.774  -1.304  0.00  0.00    +0.106 C 
ENDBRANCH   8  11
BRANCH   9  17
ATOM     17  S   UNL     1       5.163  -2.740  -0.417  0.00  0.00    -0.091 S 
BRANCH  17  18
ATOM     18  C   UNL     1       6.377  -1.403  -0.587  0.00  0.00    +0.201 C 
BRANCH  18  19
ATOM     19  C   UNL     1       7.751  -1.992  -0.779  0.00  0.00    +0.366 C 
ATOM     20  O   UNL     1       7.897  -3.203  -0.800  0.00  0.00    -0.245 OA
ATOM     21  O   UNL     1       8.716  -1.260  -0.914  0.00  0.00    -0.245 OA
ENDBRANCH  18  19
ENDBRANCH  17  18
ENDBRANCH   9  17
TORSDOF 4
