REMARK  Name = ZINC40824438
REMARK  6 active torsions:
REMARK  status: ('A' for Active; 'I' for Inactive)
REMARK    1  A    between atoms: C_1  and  C_2
REMARK    2  A    between atoms: C_6  and  C_7
REMARK    3  A    between atoms: C_14  and  C_16
REMARK    4  A    between atoms: N_21  and  N_22
REMARK    5  A    between atoms: N_22  and  C_23
REMARK    6  A    between atoms: C_23  and  N_25
REMARK                            x       y       z     vdW  Elec       q    Type
REMARK                         _______ _______ _______ _____ _____    ______ ____
ROOT
ATOM      1  C   UNL     1      -1.175   1.385   0.065  0.00  0.00    +0.048 C 
ATOM      2  C   UNL     1      -1.096  -0.120   0.074  0.00  0.00    +0.009 A 
ATOM      3  C   UNL     1      -1.312  -0.980  -1.010  0.00  0.00    +0.042 A 
ATOM      4  C   UNL     1      -1.139  -2.266  -0.557  0.00  0.00    +0.115 A 
ATOM      5  O   UNL     1      -0.829  -2.209   0.736  0.00  0.00    -0.454 OA
ATOM      6  C   UNL     1      -0.793  -0.919   1.141  0.00  0.00    +0.193 A 
ATOM      7  C   UNL     1      -1.296  -3.476  -1.444  0.00  0.00    +0.075 C 
ATOM      8  C   UNL     1      -2.137  -3.104  -2.668  0.00  0.00    +0.014 C 
ATOM      9  C   UNL     1      -1.555  -1.871  -3.369  0.00  0.00    +0.058 C 
ATOM     10  C   UNL     1      -1.663  -0.688  -2.418  0.00  0.00    +0.070 C 
ATOM     11  N   UNL     1      -2.034   0.491  -2.813  0.00  0.00    -0.185 NA
ENDROOT
BRANCH   6  12
ATOM     12  C   UNL     1      -0.485  -0.456   2.498  0.00  0.00    +0.282 C 
ATOM     13  O   UNL     1      -0.357   0.734   2.721  0.00  0.00    -0.267 OA
ATOM     14  N   UNL     1      -0.343  -1.347   3.499  0.00  0.00    -0.292 N 
ATOM     15  C   UNL     1      -0.368  -2.791   3.225  0.00  0.00    +0.108 C 
ATOM     16  C   UNL     1      -1.419  -3.445   4.127  0.00  0.00    +0.019 C 
ATOM     17  C   UNL     1      -1.127  -3.088   5.586  0.00  0.00    +0.003 C 
ATOM     18  C   UNL     1      -1.212  -1.571   5.768  0.00  0.00    +0.022 C 
ATOM     19  C   UNL     1      -0.153  -0.895   4.884  0.00  0.00    +0.073 C 
ATOM     20  C   UNL     1      -0.318   0.625   4.954  0.00  0.00    +0.028 C 
ENDBRANCH   6  12
BRANCH  11  21
ATOM     21  N   UNL     1      -2.354   0.710  -4.159  0.00  0.00    -0.218 N 
ATOM     22  H   UNL     1      -2.297  -0.020  -4.796  0.00  0.00    +0.176 HD
BRANCH  21  23
ATOM     23  C   UNL     1      -2.740   1.934  -4.570  0.00  0.00    +0.147 C 
ATOM     24  S   UNL     1      -3.131   2.202  -6.215  0.00  0.00    -0.017 S 
BRANCH  23  25
ATOM     25  N   UNL     1      -2.818   2.948  -3.685  0.00  0.00    -0.339 N 
ATOM     26  H   UNL     1      -2.597   2.796  -2.753  0.00  0.00    +0.144 HD
ATOM     27  H   UNL     1      -3.096   3.829  -3.980  0.00  0.00    +0.144 HD
ENDBRANCH  23  25
ENDBRANCH  21  23
ENDBRANCH  11  21
TORSDOF 4
