REMARK  Name = ZINC09585680
REMARK  8 active torsions:
REMARK  status: ('A' for Active; 'I' for Inactive)
REMARK    1  A    between atoms: C_1  and  C_2
REMARK    2  A    between atoms: C_5  and  C_8
REMARK    3  A    between atoms: C_8  and  C_27
REMARK    4  A    between atoms: N_11  and  C_15
REMARK    5  A    between atoms: C_15  and  C_16
REMARK    6  A    between atoms: C_18  and  N_24
REMARK    7  A    between atoms: C_21  and  O_22
REMARK    8  A    between atoms: O_22  and  C_23
REMARK                            x       y       z     vdW  Elec       q    Type
REMARK                         _______ _______ _______ _____ _____    ______ ____
ROOT
ATOM      1  C   UNL     1      -0.047   4.788   3.315  0.00  0.00    +0.135 C 
ATOM      2  C   UNL     1      -0.293   4.318   1.895  0.00  0.00    +0.251 C 
ATOM      3  O   UNL     1      -1.364   4.184   1.343  0.00  0.00    -0.272 OA
ATOM      4  N   UNL     1       0.927   4.077   1.375  0.00  0.00    -0.219 N 
ATOM      5  C   UNL     1       1.899   4.334   2.257  0.00  0.00    +0.310 C 
ATOM      6  O   UNL     1       3.083   4.196   2.017  0.00  0.00    -0.252 OA
ATOM      7  N   UNL     1       1.421   4.762   3.439  0.00  0.00    -0.281 N 
ATOM      8  C   UNL     1      -0.689   3.833   4.322  0.00  0.00    +0.047 C 
ATOM      9  H   UNL     1       1.941   5.006   4.221  0.00  0.00    +0.152 HD
ENDROOT
BRANCH   1  14
ATOM     10  C   UNL     1      -2.052  10.160   4.035  0.00  0.00    +0.044 C 
ATOM     11  C   UNL     1      -1.529   8.759   3.847  0.00  0.00    -0.050 A 
ATOM     12  C   UNL     1      -0.389   8.351   4.514  0.00  0.00    +0.004 A 
ATOM     13  C   UNL     1       0.090   7.066   4.343  0.00  0.00    +0.006 A 
ATOM     14  C   UNL     1      -0.570   6.189   3.503  0.00  0.00    -0.015 A 
ATOM     15  C   UNL     1      -1.706   6.598   2.831  0.00  0.00    +0.006 A 
ATOM     16  C   UNL     1      -2.189   7.882   3.007  0.00  0.00    +0.004 A 
ENDBRANCH   1  14
BRANCH   4  17
ATOM     17  C   UNL     1       1.160   3.598   0.010  0.00  0.00    +0.157 C 
BRANCH  17  18
ATOM     18  C   UNL     1       1.176   2.091   0.002  0.00  0.00    +0.014 A 
ATOM     19  C   UNL     1       2.380   1.413  -0.012  0.00  0.00    +0.041 A 
ATOM     20  C   UNL     1       2.396   0.030  -0.020  0.00  0.00    +0.127 A 
ATOM     21  C   UNL     1       1.208  -0.677  -0.013  0.00  0.00    +0.036 A 
ATOM     22  C   UNL     1       0.002  -0.004   0.002  0.00  0.00    +0.048 A 
ATOM     23  C   UNL     1      -0.017   1.383   0.010  0.00  0.00    +0.125 A 
BRANCH  20  24
ATOM     24  N   UNL     1       3.687  -0.693  -0.036  0.00  0.00    +0.056 N 
ATOM     25  O   UNL     1       3.702  -1.911  -0.043  0.00  0.00    -0.126 OA
ATOM     26  O   UNL     1       4.734  -0.071  -0.042  0.00  0.00    -0.126 OA
ENDBRANCH  20  24
BRANCH  23  27
ATOM     27  O   UNL     1      -1.202   2.048   0.019  0.00  0.00    -0.495 OA
ATOM     28  C   UNL     1      -2.391   1.255   0.020  0.00  0.00    +0.277 C 
ENDBRANCH  23  27
ENDBRANCH  17  18
ENDBRANCH   4  17
TORSDOF 5
