REMARK  Name = ZINC39590290
REMARK  6 active torsions:
REMARK  status: ('A' for Active; 'I' for Inactive)
REMARK    1  A    between atoms: C_1  and  S_2
REMARK    2  A    between atoms: S_2  and  C_3
REMARK    3  A    between atoms: C_7  and  N_9
REMARK    4  A    between atoms: C_10  and  C_12
REMARK    5  A    between atoms: C_15  and  N_19
REMARK    6  A    between atoms: C_20  and  C_22
REMARK                            x       y       z     vdW  Elec       q    Type
REMARK                         _______ _______ _______ _____ _____    ______ ____
ROOT
ATOM      1  C   UNL     1      -5.492  -5.124   0.255  0.00  0.00    +0.087 C 
ATOM      2  C   UNL     1      -6.786  -5.486   0.366  0.00  0.00    +0.021 C 
ATOM      3  N   UNL     1      -7.151  -6.780   0.476  0.00  0.00    -0.320 N 
ATOM      4  C   UNL     1      -8.457  -7.055   1.114  0.00  0.00    +0.219 C 
ATOM      5  S   UNL     1      -9.379  -5.522   0.660  0.00  0.00    -0.114 S 
ATOM      6  C   UNL     1      -7.903  -4.454   0.380  0.00  0.00    +0.123 C 
ATOM      7  H   UNL     1      -6.583  -7.497   0.152  0.00  0.00    +0.148 HD
ENDROOT
BRANCH   1   9
ATOM      8  N   UNL     1      -3.853  -3.395   0.036  0.00  0.00    -0.282 N 
ATOM      9  C   UNL     1      -5.146  -3.757   0.147  0.00  0.00    +0.243 C 
ATOM     10  O   UNL     1      -6.018  -2.906   0.155  0.00  0.00    -0.270 OA
ATOM     11  H   UNL     1      -3.165  -4.074  -0.045  0.00  0.00    +0.155 HD
BRANCH   8  16
ATOM     12  C   UNL     1      -3.886   0.208   0.791  0.00  0.00    +0.009 A 
ATOM     13  C   UNL     1      -2.801   0.641   0.037  0.00  0.00    +0.015 A 
ATOM     14  C   UNL     1      -2.072  -0.264  -0.710  0.00  0.00    +0.003 A 
ATOM     15  C   UNL     1      -2.419  -1.602  -0.711  0.00  0.00    +0.023 A 
ATOM     16  C   UNL     1      -3.502  -2.041   0.039  0.00  0.00    +0.035 A 
ATOM     17  C   UNL     1      -4.233  -1.136   0.795  0.00  0.00    +0.038 A 
BRANCH  12  19
ATOM     18  C   UNL     1      -4.000   2.951   1.424  0.00  0.00    +0.090 C 
ATOM     19  S   UNL     1      -4.814   1.362   1.744  0.00  0.00    -0.129 S 
ENDBRANCH  12  19
ENDBRANCH   8  16
ENDBRANCH   1   9
BRANCH   4  20
ATOM     20  N   UNL     1      -8.322  -7.183   2.567  0.00  0.00    -0.284 N 
ATOM     21  C   UNL     1      -9.320  -7.725   3.292  0.00  0.00    +0.251 C 
ATOM     22  O   UNL     1     -10.295  -8.191   2.732  0.00  0.00    -0.270 OA
ATOM     23  H   UNL     1      -7.513  -6.878   3.007  0.00  0.00    +0.152 HD
BRANCH  21  24
ATOM     24  C   UNL     1      -9.232  -7.754   4.760  0.00  0.00    +0.101 A 
ATOM     25  C   UNL     1     -10.307  -8.198   5.526  0.00  0.00    +0.020 A 
ATOM     26  C   UNL     1     -10.187  -8.211   6.916  0.00  0.00    +0.018 A 
ATOM     27  C   UNL     1      -9.035  -7.796   7.503  0.00  0.00    +0.086 A 
ATOM     28  N   UNL     1      -7.986  -7.364   6.765  0.00  0.00    -0.328 N 
ATOM     29  C   UNL     1      -8.047  -7.337   5.420  0.00  0.00    +0.261 A 
ATOM     30  O   UNL     1      -7.090  -6.949   4.772  0.00  0.00    -0.267 OA
ATOM     31  H   UNL     1      -7.175  -7.073   7.211  0.00  0.00    +0.168 HD
ENDBRANCH  21  24
ENDBRANCH   4  20
TORSDOF 5
