REMARK  Name = ZINC16026456
REMARK  5 active torsions:
REMARK  status: ('A' for Active; 'I' for Inactive)
REMARK    1  A    between atoms: C_2  and  C_3
REMARK    2  A    between atoms: C_3  and  N_4
REMARK    3  A    between atoms: C_9  and  C_26
REMARK    4  A    between atoms: C_26  and  C_27
REMARK    5  A    between atoms: C_27  and  C_28
REMARK                            x       y       z     vdW  Elec       q    Type
REMARK                         _______ _______ _______ _____ _____    ______ ____
ROOT
ATOM      1  N   UNL     1      -1.318  -1.700  -1.126  0.00  0.00    -0.238 N 
ATOM      2  C   UNL     1      -1.808  -1.371  -2.358  0.00  0.00    +0.227 C 
ATOM      3  O   UNL     1      -2.024  -0.258  -2.786  0.00  0.00    -0.275 OA
ATOM      4  C   UNL     1      -2.024  -2.677  -3.073  0.00  0.00    +0.107 C 
ATOM      5  C   UNL     1      -1.610  -2.802  -4.544  0.00  0.00    +0.068 C 
ATOM      6  N   UNL     1      -1.143  -4.225  -4.636  0.00  0.00    -0.295 NA
ATOM      7  C   UNL     1      -0.662  -4.624  -3.277  0.00  0.00    +0.136 C 
ATOM      8  C   UNL     1      -0.771  -3.413  -2.447  0.00  0.00    +0.122 C 
ATOM      9  C   UNL     1      -0.845  -2.987  -1.069  0.00  0.00    +0.229 C 
ATOM     10  O   UNL     1      -0.556  -3.627  -0.081  0.00  0.00    -0.275 OA
ATOM     11  C   UNL     1      -1.494  -5.772  -2.767  0.00  0.00    +0.003 A 
ATOM     12  C   UNL     1      -2.829  -5.906  -2.459  0.00  0.00    +0.008 A 
ATOM     13  C   UNL     1      -3.316  -7.116  -1.999  0.00  0.00    +0.000 A 
ATOM     14  C   UNL     1      -2.458  -8.191  -1.850  0.00  0.00    +0.002 A 
ATOM     15  C   UNL     1      -1.120  -8.062  -2.159  0.00  0.00    +0.023 A 
ATOM     16  C   UNL     1      -0.622  -6.846  -2.623  0.00  0.00    +0.039 A 
ATOM     17  N   UNL     1       0.670  -6.473  -2.997  0.00  0.00    -0.283 N 
ATOM     18  C   UNL     1       0.733  -5.189  -3.393  0.00  0.00    +0.243 C 
ATOM     19  O   UNL     1       1.723  -4.598  -3.771  0.00  0.00    -0.273 OA
ATOM     20  H   UNL     1      -1.888  -4.831  -4.948  0.00  0.00    +0.123 HD
ATOM     21  H   UNL     1       1.434  -7.070  -2.974  0.00  0.00    +0.155 HD
ENDROOT
BRANCH   1  22
ATOM     22  C   UNL     1      -1.293  -0.775   0.010  0.00  0.00    +0.143 C 
BRANCH  22  24
ATOM     23  C   UNL     1      -0.016   1.306   0.009  0.00  0.00    +0.005 C 
ATOM     24  C   UNL     1       0.002  -0.004   0.002  0.00  0.00    -0.015 C 
ENDBRANCH  22  24
ENDBRANCH   1  22
BRANCH   5  25
ATOM     25  C   UNL     1      -2.806  -2.559  -5.467  0.00  0.00    +0.028 C 
BRANCH  25  26
ATOM     26  C   UNL     1      -2.337  -2.567  -6.923  0.00  0.00    +0.097 C 
BRANCH  26  27
ATOM     27  C   UNL     1      -3.515  -2.327  -7.832  0.00  0.00    +0.211 C 
ATOM     28  O   UNL     1      -4.621  -2.166  -7.361  0.00  0.00    -0.276 OA
ATOM     29  N   UNL     1      -3.339  -2.292  -9.168  0.00  0.00    -0.329 N 
ATOM     30  H   UNL     1      -2.455  -2.421  -9.544  0.00  0.00    +0.145 HD
ATOM     31  H   UNL     1      -4.098  -2.138  -9.753  0.00  0.00    +0.145 HD
ENDBRANCH  26  27
ENDBRANCH  25  26
ENDBRANCH   5  25
TORSDOF 5
