REMARK  Name = ZINC56604398
REMARK  5 active torsions:
REMARK  status: ('A' for Active; 'I' for Inactive)
REMARK    1  A    between atoms: C_6  and  C_7
REMARK    2  A    between atoms: N_16  and  C_17
REMARK    3  A    between atoms: C_20  and  O_23
REMARK    4  A    between atoms: O_23  and  C_24
REMARK    5  A    between atoms: C_24  and  C_25
REMARK                            x       y       z     vdW  Elec       q    Type
REMARK                         _______ _______ _______ _____ _____    ______ ____
ROOT
ATOM      1  C   UNL     1      -2.087  -0.744   0.944  0.00  0.00    +0.166 C 
ATOM      2  C   UNL     1      -2.273  -0.743  -0.578  0.00  0.00    +0.145 C 
ATOM      3  N   UNL     1      -3.092  -1.907  -0.946  0.00  0.00    -0.280 N 
ATOM      4  C   UNL     1      -2.695  -3.225  -0.427  0.00  0.00    +0.137 C 
ATOM      5  C   UNL     1      -2.488  -3.106   1.087  0.00  0.00    +0.179 C 
ATOM      6  O   UNL     1      -1.597  -2.022   1.358  0.00  0.00    -0.369 OA
ATOM      7  C   UNL     1      -4.176  -1.771  -1.736  0.00  0.00    +0.307 C 
ATOM      8  O   UNL     1      -4.544  -0.664  -2.078  0.00  0.00    -0.252 OA
ATOM      9  N   UNL     1      -4.851  -2.863  -2.148  0.00  0.00    -0.269 N 
ATOM     10  H   UNL     1      -4.605  -3.740  -1.815  0.00  0.00    +0.156 HD
ENDROOT
BRANCH   1  16
ATOM     11  C   UNL     1      -1.546   1.538   1.820  0.00  0.00    +0.007 A 
ATOM     12  C   UNL     1      -0.639   2.518   2.176  0.00  0.00    +0.020 A 
ATOM     13  C   UNL     1       0.718   2.284   2.044  0.00  0.00    +0.041 A 
ATOM     14  C   UNL     1       1.167   1.070   1.555  0.00  0.00    +0.020 A 
ATOM     15  C   UNL     1       0.259   0.091   1.200  0.00  0.00    +0.007 A 
ATOM     16  C   UNL     1      -1.097   0.324   1.332  0.00  0.00    -0.017 A 
ATOM     17 CL   UNL     1       1.858   3.515   2.490  0.00  0.00    -0.084 Cl
ENDBRANCH   1  16
BRANCH   9  18
ATOM     18  C   UNL     1      -5.909  -2.731  -3.058  0.00  0.00    +0.035 A 
ATOM     19  C   UNL     1      -5.867  -1.744  -4.033  0.00  0.00    +0.027 A 
ATOM     20  C   UNL     1      -6.909  -1.614  -4.930  0.00  0.00    +0.047 A 
ATOM     21  C   UNL     1      -7.999  -2.470  -4.855  0.00  0.00    +0.121 A 
ATOM     22  C   UNL     1      -8.042  -3.456  -3.880  0.00  0.00    +0.047 A 
ATOM     23  C   UNL     1      -6.997  -3.590  -2.987  0.00  0.00    +0.027 A 
BRANCH  21  24
ATOM     24  O   UNL     1      -9.025  -2.342  -5.738  0.00  0.00    -0.483 OA
BRANCH  24  25
ATOM     25  C   UNL     1     -10.114  -3.256  -5.603  0.00  0.00    +0.324 C 
BRANCH  25  26
ATOM     26  C   UNL     1     -11.149  -2.964  -6.660  0.00  0.00    +0.248 C 
ATOM     27  O   UNL     1     -10.971  -2.062  -7.450  0.00  0.00    -0.272 OA
ATOM     28  N   UNL     1     -12.272  -3.706  -6.726  0.00  0.00    -0.327 N 
ATOM     29  H   UNL     1     -12.415  -4.428  -6.094  0.00  0.00    +0.145 HD
ATOM     30  H   UNL     1     -12.938  -3.518  -7.406  0.00  0.00    +0.145 HD
ENDBRANCH  25  26
ENDBRANCH  24  25
ENDBRANCH  21  24
ENDBRANCH   9  18
TORSDOF 5
