REMARK  Name = ZINC65406460
REMARK  5 active torsions:
REMARK  status: ('A' for Active; 'I' for Inactive)
REMARK    1  A    between atoms: C_1  and  C_2
REMARK    2  A    between atoms: C_2  and  O_3
REMARK    3  A    between atoms: O_3  and  C_4
REMARK    4  A    between atoms: C_7  and  N_10
REMARK    5  A    between atoms: N_13  and  C_14
REMARK                            x       y       z     vdW  Elec       q    Type
REMARK                         _______ _______ _______ _____ _____    ______ ____
ROOT
ATOM      1  N   UNK A   2       1.101  -5.938  -1.835  0.00  0.00    -0.269 N 
ATOM      2  C   UNK A   2       1.635  -6.441  -2.966  0.00  0.00    +0.304 C 
ATOM      3  O   UNK A   2       2.104  -5.692  -3.802  0.00  0.00    -0.253 OA
ATOM      4  N   UNK A   2       1.648  -7.773  -3.171  0.00  0.00    -0.295 N 
ATOM      5  H   UNK A   2       0.798  -6.537  -1.134  0.00  0.00    +0.156 HD
ATOM      6  H   UNK A   2       1.274  -8.370  -2.504  0.00  0.00    +0.151 HD
ENDROOT
BRANCH   4   7
ATOM      7  C   UNK A   2       2.228  -8.319  -4.401  0.00  0.00    +0.094 C 
ATOM      8  C   UNK A   2       1.656  -9.732  -4.697  0.00  0.00    +0.055 C 
ATOM      9  C   UNK A   2       2.552 -10.621  -3.802  0.00  0.00    +0.164 C 
ATOM     10  C   UNK A   2       2.625 -12.011  -4.382  0.00  0.00    +0.234 C 
ATOM     11  O   UNK A   2       1.667 -12.480  -4.960  0.00  0.00    -0.274 OA
ATOM     12  N   GLY A   1       3.757 -12.730  -4.257  0.00  0.00    -0.305 N 
ATOM     13  CA  GLY A   1       4.920 -12.212  -3.537  0.00  0.00    +0.200 C 
ATOM     14  C   GLY A   1       5.037 -10.721  -3.758  0.00  0.00    +0.233 C 
ATOM     15  O   GLY A   1       6.120 -10.177  -3.792  0.00  0.00    -0.274 OA
ATOM     16  N   UNK A   2       3.892 -10.004  -3.898  0.00  0.00    -0.287 N 
ATOM     17  C   UNK A   2       3.740  -8.580  -4.222  0.00  0.00    +0.131 C 
ATOM     18  H   GLY A   1       3.802 -13.614  -4.655  0.00  0.00    +0.149 HD
ENDBRANCH   4   7
BRANCH   1  22
ATOM     19  C   UNK A   2       0.756  -1.811  -1.345  0.00  0.00    +0.121 A 
ATOM     20  C   UNK A   2       0.626  -2.373  -2.607  0.00  0.00    +0.047 A 
ATOM     21  C   UNK A   2       0.741  -3.740  -2.769  0.00  0.00    +0.027 A 
ATOM     22  C   UNK A   2       0.986  -4.551  -1.670  0.00  0.00    +0.035 A 
ATOM     23  C   UNK A   2       1.116  -3.989  -0.408  0.00  0.00    +0.027 A 
ATOM     24  C   UNK A   2       1.006  -2.621  -0.247  0.00  0.00    +0.047 A 
BRANCH  19  25
ATOM     25  O   UNK A   2       0.644  -0.466  -1.185  0.00  0.00    -0.492 OA
BRANCH  25  27
ATOM     26  C   UNK A   2       0.292   1.788  -1.984  0.00  0.00    +0.048 C 
ATOM     27  C   UNK A   2       0.385   0.307  -2.359  0.00  0.00    +0.225 C 
ENDBRANCH  25  27
ENDBRANCH  19  25
ENDBRANCH   1  22
TORSDOF 4
