REMARK  Name = ZINC11971059
REMARK  8 active torsions:
REMARK  status: ('A' for Active; 'I' for Inactive)
REMARK    1  A    between atoms: C_1  and  C_2
REMARK    2  A    between atoms: C_2  and  C_3
REMARK    3  A    between atoms: C_3  and  C_22
REMARK    4  A    between atoms: N_6  and  C_10
REMARK    5  A    between atoms: C_10  and  C_11
REMARK    6  A    between atoms: C_27  and  C_28
REMARK    7  A    between atoms: C_27  and  N_64
REMARK    8  A    between atoms: C_29  and  C_33
REMARK                            x       y       z     vdW  Elec       q    Type
REMARK                         _______ _______ _______ _____ _____    ______ ____
ROOT
ATOM      1  C   UNL     1      -4.251   0.518   1.109  0.00  0.00    +0.115 C 
ATOM      2  C   UNL     1      -3.101   1.460   0.811  0.00  0.00    +0.247 C 
ATOM      3  O   UNL     1      -3.152   2.510   0.207  0.00  0.00    -0.273 OA
ATOM      4  N   UNL     1      -2.010   0.886   1.355  0.00  0.00    -0.221 N 
ATOM      5  C   UNL     1      -2.308  -0.271   1.955  0.00  0.00    +0.309 C 
ATOM      6  O   UNL     1      -1.490  -0.970   2.520  0.00  0.00    -0.252 OA
ATOM      7  N   UNL     1      -3.615  -0.576   1.863  0.00  0.00    -0.285 N 
ATOM      8  H   UNL     1      -4.054  -1.362   2.224  0.00  0.00    +0.151 HD
ENDROOT
BRANCH   1   9
ATOM      9  C   UNL     1      -4.873  -0.010  -0.185  0.00  0.00    +0.018 C 
ATOM     10  C   UNL     1      -5.944  -1.052   0.151  0.00  0.00    -0.013 C 
ATOM     11  C   UNL     1      -6.519  -1.622  -1.148  0.00  0.00    -0.078 C 
ATOM     12  C   UNL     1      -4.426  -1.243  -2.309  0.00  0.00    -0.078 C 
ATOM     13  C   UNL     1      -3.788  -0.662  -1.045  0.00  0.00    -0.013 C 
ATOM     14  N   UNL     1      -5.428  -2.257  -1.919  0.00  0.00    +0.383 N 
ATOM     15  H   UNL     1      -4.973  -2.965  -1.331  0.00  0.00    -0.081 HD
BRANCH  14  16
ATOM     16  C   UNL     1      -5.978  -2.913  -3.123  0.00  0.00    -0.035 C 
BRANCH  16  17
ATOM     17  C   UNL     1      -7.082  -3.852  -2.710  0.00  0.00    -0.024 A 
ATOM     18  C   UNL     1      -6.994  -5.124  -2.250  0.00  0.00    -0.042 A 
ATOM     19  C   UNL     1      -8.155  -5.802  -1.928  0.00  0.00    +0.011 A 
ATOM     20  C   UNL     1      -9.347  -5.174  -2.081  0.00  0.00    +0.045 A 
ATOM     21  S   UNL     1      -8.846  -3.573  -2.691  0.00  0.00    -0.103 S 
ATOM     22  C   UNL     1      -5.651  -5.789  -2.093  0.00  0.00    +0.044 C 
ENDBRANCH  16  17
ENDBRANCH  14  16
ENDBRANCH   1   9
BRANCH   1  24
ATOM     23  C   UNL     1      -4.649   1.784   3.226  0.00  0.00    +0.006 C 
ATOM     24  C   UNL     1      -5.307   1.220   1.966  0.00  0.00    +0.032 C 
ENDBRANCH   1  24
BRANCH   4  25
ATOM     25  C   UNL     1      -0.663   1.462   1.300  0.00  0.00    +0.166 C 
BRANCH  25  26
ATOM     26  C   UNL     1       0.056   0.959   0.047  0.00  0.00    +0.229 C 
ATOM     27  C   UNL     1       1.503   1.470   0.041  0.00  0.00    +0.275 C 
ATOM     28  O   UNL     1       2.143   0.992  -1.147  0.00  0.00    -0.485 OA
ATOM     29  C   UNL     1       1.447   1.122  -2.310  0.00  0.00    +0.162 A 
ATOM     30  C   UNL     1       2.119   1.024  -3.520  0.00  0.00    +0.049 A 
ATOM     31  C   UNL     1       1.427   1.152  -4.709  0.00  0.00    +0.004 A 
ATOM     32  C   UNL     1       0.063   1.377  -4.696  0.00  0.00    +0.004 A 
ATOM     33  C   UNL     1      -0.613   1.477  -3.495  0.00  0.00    +0.049 A 
ATOM     34  C   UNL     1       0.077   1.351  -2.298  0.00  0.00    +0.163 A 
ATOM     35  O   UNL     1      -0.601   1.459  -1.122  0.00  0.00    -0.480 OA
ENDBRANCH  25  26
ENDBRANCH   4  25
TORSDOF 6
