REMARK  Name = ZINC06790223
REMARK  5 active torsions:
REMARK  status: ('A' for Active; 'I' for Inactive)
REMARK    1  A    between atoms: C_1  and  C_2
REMARK    2  A    between atoms: N_6  and  N_7
REMARK    3  A    between atoms: N_8  and  N_9
REMARK    4  A    between atoms: C_10  and  C_11
REMARK    5  A    between atoms: C_14  and  O_18
REMARK                            x       y       z     vdW  Elec       q    Type
REMARK                         _______ _______ _______ _____ _____    ______ ____
ROOT
ATOM      1  N   UNL     1      -1.234   1.650   0.017  0.00  0.00    -0.188 NA
ATOM      2  C   UNL     1      -2.349   0.985   0.018  0.00  0.00    +0.138 C 
ENDROOT
BRANCH   1   9
ATOM      3  C   UNL     1       4.794   2.161  -0.033  0.00  0.00    +0.090 C 
ATOM      4  C   UNL     1       3.288   2.217  -0.017  0.00  0.00    +0.149 A 
ATOM      5  N   UNL     1       2.556   3.295  -0.005  0.00  0.00    -0.131 NA
ATOM      6  N   UNL     1       1.309   2.981  -0.000  0.00  0.00    -0.110 NA
ATOM      7  C   UNL     1       1.179   1.675  -0.000  0.00  0.00    +0.254 A 
ATOM      8  N   UNL     1       2.438   1.147  -0.015  0.00  0.00    -0.220 N 
ATOM      9  N   UNL     1      -0.011   0.966   0.007  0.00  0.00    -0.204 N 
ATOM     10  H   UNL     1       0.002  -0.004   0.002  0.00  0.00    +0.177 HD
BRANCH   8  11
ATOM     11  N   UNL     1       2.778  -0.176  -0.025  0.00  0.00    -0.294 N 
ATOM     12  H   UNL     1       2.859  -0.521  -0.970  0.00  0.00    +0.163 HD
ATOM     13  H   UNL     1       3.629  -0.335   0.492  0.00  0.00    +0.163 HD
ENDBRANCH   8  11
ENDBRANCH   1   9
BRANCH   2  14
ATOM     14  C   UNL     1      -3.636   1.705   0.029  0.00  0.00    -0.003 A 
ATOM     15  C   UNL     1      -3.657   3.102   0.042  0.00  0.00    +0.028 A 
ATOM     16  C   UNL     1      -4.863   3.771   0.046  0.00  0.00    +0.061 A 
ATOM     17  C   UNL     1      -6.055   3.058   0.048  0.00  0.00    +0.145 A 
ATOM     18  C   UNL     1      -6.039   1.669   0.040  0.00  0.00    +0.061 A 
ATOM     19  C   UNL     1      -4.838   0.992   0.030  0.00  0.00    +0.028 A 
ATOM     20 BR   UNL     1      -7.666   0.706   0.042  0.00  0.00    -0.046 Br
ATOM     21 BR   UNL     1      -4.893   5.662   0.057  0.00  0.00    -0.046 Br
BRANCH  17  22
ATOM     22  O   UNL     1      -7.241   3.722   0.058  0.00  0.00    -0.505 OA
ATOM     23  H   UNL     1      -7.580   3.909   0.944  0.00  0.00    +0.292 HD
ENDBRANCH  17  22
ENDBRANCH   2  14
TORSDOF 4
