REMARK  Name = ZINC00848936
REMARK  2 active torsions:
REMARK  status: ('A' for Active; 'I' for Inactive)
REMARK    1  A    between atoms: C_6  and  N_7
REMARK    2  A    between atoms: C_11  and  N_24
REMARK                            x       y       z     vdW  Elec       q    Type
REMARK                         _______ _______ _______ _____ _____    ______ ____
ROOT
ATOM      1  N   UNL     1       1.161   3.464   0.010  0.00  0.00    -0.293 N 
ATOM      2  C   UNL     1       1.181   2.085   0.002  0.00  0.00    +0.056 A 
ATOM      3  C   UNL     1      -0.017   1.373   0.010  0.00  0.00    +0.029 A 
ATOM      4  C   UNL     1       0.002  -0.004   0.002  0.00  0.00    +0.035 A 
ATOM      5  C   UNL     1       1.206  -0.697  -0.013  0.00  0.00    +0.127 A 
ATOM      6  C   UNL     1       2.393  -0.025  -0.021  0.00  0.00    +0.042 A 
ATOM      7  C   UNL     1       2.402   1.380  -0.013  0.00  0.00    +0.002 A 
ATOM      8  C   UNL     1       3.631   2.081  -0.022  0.00  0.00    +0.027 A 
ATOM      9  C   UNL     1       3.608   3.461  -0.014  0.00  0.00    +0.083 A 
ATOM     10  C   UNL     1       4.840   4.268  -0.022  0.00  0.00    +0.263 A 
ATOM     11  O   UNL     1       5.939   3.747  -0.035  0.00  0.00    -0.267 OA
ATOM     12  N   UNL     1       4.696   5.614  -0.013  0.00  0.00    -0.273 N 
ATOM     13  H   UNL     1       5.510   6.195  -0.018  0.00  0.00    +0.174 HD
ATOM     14  C   UNL     1       3.482   6.181   0.002  0.00  0.00    +0.350 A 
ATOM     15  O   UNL     1       3.419   7.399   0.009  0.00  0.00    -0.245 OA
ATOM     16  N   UNL     1       2.341   5.499   0.010  0.00  0.00    -0.175 NA
ATOM     17  C   UNL     1       2.326   4.173   0.003  0.00  0.00    +0.156 A 
ENDROOT
BRANCH   1  23
ATOM     18  C   UNL     1      -0.927   4.044  -1.058  0.00  0.00    +0.027 A 
ATOM     19  C   UNL     1      -2.138   4.708  -1.036  0.00  0.00    +0.022 A 
ATOM     20  C   UNL     1      -2.486   5.480   0.059  0.00  0.00    +0.041 A 
ATOM     21  C   UNL     1      -1.625   5.583   1.137  0.00  0.00    +0.022 A 
ATOM     22  C   UNL     1      -0.416   4.916   1.124  0.00  0.00    +0.027 A 
ATOM     23  C   UNL     1      -0.064   4.141   0.026  0.00  0.00    +0.049 A 
ATOM     24 CL   UNL     1      -4.005   6.319   0.079  0.00  0.00    -0.084 Cl
ENDBRANCH   1  23
BRANCH   5  25
ATOM     25  N   UNL     1       1.201  -2.177  -0.021  0.00  0.00    +0.056 N 
ATOM     26  O   UNL     1       0.144  -2.783  -0.013  0.00  0.00    -0.126 OA
ATOM     27  O   UNL     1       2.254  -2.790  -0.034  0.00  0.00    -0.126 OA
ENDBRANCH   5  25
TORSDOF 2
