REMARK  Name = ZINC09144774
REMARK  8 active torsions:
REMARK  status: ('A' for Active; 'I' for Inactive)
REMARK    1  A    between atoms: C_4  and  C_7
REMARK    2  A    between atoms: C_7  and  N_8
REMARK    3  A    between atoms: C_15  and  C_27
REMARK    4  A    between atoms: C_17  and  C_23
REMARK    5  A    between atoms: C_17  and  C_25
REMARK    6  A    between atoms: C_18  and  N_22
REMARK    7  A    between atoms: C_19  and  C_20
REMARK    8  A    between atoms: C_32  and  N_33
REMARK                            x       y       z     vdW  Elec       q    Type
REMARK                         _______ _______ _______ _____ _____    ______ ____
ROOT
ATOM      1  N   UNL     1       1.936  -1.903   1.891  0.00  0.00    -0.294 NA
ATOM      2  C   UNL     1       3.097  -1.125   2.360  0.00  0.00    +0.112 C 
ATOM      3  C   UNL     1       3.207   0.103   1.491  0.00  0.00    -0.006 C 
ATOM      4  C   UNL     1       2.120   0.663   0.995  0.00  0.00    -0.026 C 
ATOM      5  C   UNL     1       0.734   0.169   1.294  0.00  0.00    +0.044 C 
ATOM      6  C   UNL     1       0.704  -1.130   2.068  0.00  0.00    +0.094 C 
ATOM      7  C   UNL     1      -0.029   0.062  -0.027  0.00  0.00    +0.070 C 
ATOM      8  C   UNL     1      -0.150   1.456  -0.644  0.00  0.00    +0.188 C 
ATOM      9  C   UNL     1       1.177   2.150  -0.713  0.00  0.00    +0.054 C 
ATOM     10  C   UNL     1       2.244   1.803   0.051  0.00  0.00    +0.074 C 
ENDROOT
BRANCH   7  11
ATOM     11  C   UNL     1      -1.405  -0.497   0.229  0.00  0.00    -0.011 A 
ATOM     12  C   UNL     1      -2.030  -0.266   1.440  0.00  0.00    +0.007 A 
ATOM     13  C   UNL     1      -3.294  -0.774   1.673  0.00  0.00    +0.020 A 
ATOM     14  C   UNL     1      -3.929  -1.524   0.698  0.00  0.00    +0.043 A 
ATOM     15  C   UNL     1      -3.300  -1.759  -0.512  0.00  0.00    +0.053 A 
ATOM     16  C   UNL     1      -2.039  -1.245  -0.746  0.00  0.00    +0.131 A 
ATOM     17 CL   UNL     1      -5.514  -2.169   0.993  0.00  0.00    -0.083 Cl
BRANCH  16  18
ATOM     18  N   UNL     1      -1.366  -1.497  -2.040  0.00  0.00    +0.057 N 
ATOM     19  O   UNL     1      -1.969  -2.048  -2.943  0.00  0.00    -0.126 OA
ATOM     20  O   UNL     1      -0.208  -1.153  -2.201  0.00  0.00    -0.126 OA
ENDBRANCH  16  18
ENDBRANCH   7  11
BRANCH   9  21
ATOM     21  N   UNL     1       1.320   3.188  -1.591  0.00  0.00    -0.358 N 
ATOM     22  H   UNL     1       2.281   3.717  -1.665  0.00  0.00    +0.142 HD
ATOM     23  H   UNL     1       0.474   3.493  -2.224  0.00  0.00    +0.142 HD
ENDBRANCH   9  21
BRANCH  10  24
ATOM     24  C   UNL     1       3.474   2.528  -0.052  0.00  0.00    +0.101 C 
ATOM     25  N   UNL     1       4.451   3.103  -0.134  0.00  0.00    -0.191 NA
ENDBRANCH  10  24
BRANCH   8  26
ATOM     26  C   UNL     1      -0.698   1.333  -2.005  0.00  0.00    +0.091 C 
ATOM     27  N   UNL     1      -1.120   1.237  -3.055  0.00  0.00    -0.194 NA
ENDBRANCH   8  26
BRANCH   8  28
ATOM     28  C   UNL     1      -1.073   2.263   0.171  0.00  0.00    +0.091 C 
ATOM     29  N   UNL     1      -1.784   2.886   0.800  0.00  0.00    -0.194 NA
ENDBRANCH   8  28
BRANCH   1  30
ATOM     30  C   UNL     1       1.852  -3.194   2.586  0.00  0.00    +0.120 C 
BRANCH  30  34
ATOM     31  C   UNL     1       5.202  -5.615   1.505  0.00  0.00    +0.000 A 
ATOM     32  C   UNL     1       5.283  -4.770   2.596  0.00  0.00    +0.000 A 
ATOM     33  C   UNL     1       4.199  -3.987   2.946  0.00  0.00    +0.005 A 
ATOM     34  C   UNL     1       3.034  -4.048   2.205  0.00  0.00    -0.033 A 
ATOM     35  C   UNL     1       2.951  -4.897   1.116  0.00  0.00    +0.005 A 
ATOM     36  C   UNL     1       4.037  -5.676   0.764  0.00  0.00    +0.000 A 
ENDBRANCH  30  34
ENDBRANCH   1  30
TORSDOF 8
