REMARK  Name = ZINC49340443
REMARK  6 active torsions:
REMARK  status: ('A' for Active; 'I' for Inactive)
REMARK    1  A    between atoms: C_1  and  C_2
REMARK    2  A    between atoms: C_7  and  C_8
REMARK    3  A    between atoms: C_8  and  C_9
REMARK    4  A    between atoms: C_9  and  C_11
REMARK    5  A    between atoms: C_9  and  N_12
REMARK    6  A    between atoms: C_19  and  C_22
REMARK                            x       y       z     vdW  Elec       q    Type
REMARK                         _______ _______ _______ _____ _____    ______ ____
ROOT
ATOM      1  N   UNL     1      -2.155  -0.849   3.154  0.00  0.00    -0.296 N 
ATOM      2  C   UNL     1      -3.497  -0.869   3.027  0.00  0.00    +0.303 C 
ATOM      3  O   UNL     1      -4.100   0.158   2.785  0.00  0.00    -0.253 OA
ATOM      4  N   UNL     1      -4.170  -2.029   3.167  0.00  0.00    -0.281 N 
ATOM      5  C   UNL     1      -5.617  -2.099   2.915  0.00  0.00    +0.137 C 
ATOM      6  C   UNL     1      -6.285  -2.778   4.117  0.00  0.00    +0.179 C 
ATOM      7  O   UNL     1      -5.626  -4.018   4.383  0.00  0.00    -0.374 OA
ATOM      8  C   UNL     1      -4.250  -3.883   4.746  0.00  0.00    +0.133 C 
ATOM      9  C   UNL     1      -3.477  -3.263   3.571  0.00  0.00    +0.140 C 
ATOM     10  C   UNL     1      -3.669  -5.262   5.067  0.00  0.00    +0.039 C 
ATOM     11  H   UNL     1      -1.681  -1.654   3.418  0.00  0.00    +0.151 HD
ENDROOT
BRANCH   1  12
ATOM     12  C   UNL     1      -1.413   0.387   2.895  0.00  0.00    +0.076 C 
ATOM     13  C   UNL     1      -1.399   1.248   4.160  0.00  0.00    +0.028 C 
BRANCH  12  14
ATOM     14  C   UNL     1       0.024   0.045   2.495  0.00  0.00    +0.057 C 
BRANCH  14  21
ATOM     15  C   UNL     1      -0.028   1.509   0.005  0.00  0.00    +0.044 C 
ATOM     16  C   UNL     1      -0.008   0.002  -0.007  0.00  0.00    -0.047 A 
ATOM     17  C   UNL     1      -0.008  -0.680  -1.210  0.00  0.00    +0.003 A 
ATOM     18  C   UNL     1       0.010  -2.062  -1.221  0.00  0.00    +0.000 A 
ATOM     19  C   UNL     1       0.029  -2.762  -0.029  0.00  0.00    +0.000 A 
ATOM     20  C   UNL     1       0.031  -2.081   1.173  0.00  0.00    +0.004 A 
ATOM     21  C   UNL     1       0.017  -0.698   1.184  0.00  0.00    -0.043 A 
ENDBRANCH  14  21
ENDBRANCH  12  14
ENDBRANCH   1  12
TORSDOF 3
