REMARK  Name = ZINC12421297
REMARK  6 active torsions:
REMARK  status: ('A' for Active; 'I' for Inactive)
REMARK    1  A    between atoms: N_9  and  S_11
REMARK    2  A    between atoms: S_11  and  C_14
REMARK    3  A    between atoms: C_17  and  C_20
REMARK    4  A    between atoms: C_22  and  C_34
REMARK    5  A    between atoms: C_23  and  N_25
REMARK    6  A    between atoms: C_28  and  C_31
REMARK                            x       y       z     vdW  Elec       q    Type
REMARK                         _______ _______ _______ _____ _____    ______ ____
ROOT
ATOM      1  C   UNL     1      -3.518   3.706   0.041  0.00  0.00    +0.106 A 
ATOM      2  C   UNL     1      -3.629   2.327   0.034  0.00  0.00    +0.029 A 
ATOM      3  C   UNL     1      -2.495   1.540   0.023  0.00  0.00    +0.015 A 
ATOM      4  C   UNL     1      -1.234   2.139   0.020  0.00  0.00    +0.037 A 
ATOM      5  C   UNL     1      -1.129   3.531   0.032  0.00  0.00    +0.015 A 
ATOM      6  C   UNL     1      -2.271   4.306   0.037  0.00  0.00    +0.029 A 
ENDROOT
BRANCH   4   7
ATOM      7  C   UNL     1      -0.016   1.303   0.009  0.00  0.00    +0.231 A 
ATOM      8  N   UNL     1       0.002  -0.004   0.002  0.00  0.00    -0.196 NA
ATOM      9  C   UNL     1       1.296  -0.420  -0.013  0.00  0.00    +0.201 A 
ATOM     10  C   UNL     1       2.086   0.719  -0.014  0.00  0.00    +0.227 A 
ATOM     11  O   UNL     1       1.247   1.771  -0.000  0.00  0.00    -0.420 OA
BRANCH  10  12
ATOM     12  N   UNL     1       3.463   0.765  -0.026  0.00  0.00    -0.299 N 
ATOM     13  C   UNL     1       4.025   0.007   1.099  0.00  0.00    +0.109 C 
ATOM     14  C   UNL     1       5.549  -0.042   0.972  0.00  0.00    +0.032 C 
ATOM     15  C   UNL     1       6.102   1.385   0.968  0.00  0.00    +0.078 C 
ATOM     16  C   UNL     1       5.465   2.168  -0.184  0.00  0.00    +0.032 C 
ATOM     17  C   UNL     1       3.943   2.153  -0.024  0.00  0.00    +0.109 C 
BRANCH  15  18
ATOM     18  C   UNL     1       7.598   1.347   0.783  0.00  0.00    +0.214 C 
ATOM     19  O   UNL     1       8.105   1.892  -0.174  0.00  0.00    -0.276 OA
ATOM     20  N   UNL     1       8.371   0.708   1.683  0.00  0.00    -0.329 N 
ATOM     21  H   UNL     1       7.965   0.272   2.449  0.00  0.00    +0.145 HD
ATOM     22  H   UNL     1       9.334   0.683   1.564  0.00  0.00    +0.145 HD
ENDBRANCH  15  18
ENDBRANCH  10  12
BRANCH   9  23
ATOM     23  C   UNL     1       1.755  -1.777  -0.025  0.00  0.00    +0.124 C 
ATOM     24  N   UNL     1       2.119  -2.853  -0.035  0.00  0.00    -0.189 NA
ENDBRANCH   9  23
ENDBRANCH   4   7
BRANCH   1  25
ATOM     25  S   UNL     1      -4.971   4.702   0.054  0.00  0.00    +0.061 S 
ATOM     26  O   UNL     1      -4.604   5.962  -0.492  0.00  0.00    -0.153 OA
ATOM     27  O   UNL     1      -6.013   3.908  -0.496  0.00  0.00    -0.153 OA
BRANCH  25  36
ATOM     28  C   UNL     1      -3.502   5.022   6.281  0.00  0.00    +0.000 A 
ATOM     29  C   UNL     1      -3.204   6.266   5.758  0.00  0.00    +0.000 A 
ATOM     30  C   UNL     1      -3.643   6.600   4.493  0.00  0.00    +0.005 A 
ATOM     31  C   UNL     1      -4.382   5.696   3.742  0.00  0.00    -0.028 A 
ATOM     32  C   UNL     1      -4.674   4.454   4.259  0.00  0.00    -0.042 A 
ATOM     33  C   UNL     1      -4.234   4.122   5.535  0.00  0.00    +0.004 A 
ATOM     34  C   UNL     1      -5.455   3.415   3.498  0.00  0.00    +0.052 C 
ATOM     35  C   UNL     1      -6.265   4.061   2.369  0.00  0.00    +0.114 C 
ATOM     36  N   UNL     1      -5.366   4.971   1.639  0.00  0.00    -0.172 NA
ATOM     37  C   UNL     1      -4.840   6.128   2.372  0.00  0.00    +0.144 C 
ENDBRANCH  25  36
ENDBRANCH   1  25
TORSDOF 6
