REMARK  Name = ZINC36602123
REMARK  13 active torsions:
REMARK  status: ('A' for Active; 'I' for Inactive)
REMARK    1  A    between atoms: C_1  and  C_2
REMARK    2  A    between atoms: C_5  and  S_8
REMARK    3  A    between atoms: S_8  and  C_11
REMARK    4  A    between atoms: C_11  and  N_12
REMARK    5  A    between atoms: C_13  and  C_15
REMARK    6  A    between atoms: C_15  and  C_17
REMARK    7  A    between atoms: C_15  and  N_22
REMARK    8  A    between atoms: N_22  and  C_23
REMARK    9  A    between atoms: C_23  and  C_24
REMARK   10  A    between atoms: C_27  and  C_29
REMARK   11  A    between atoms: C_30  and  C_32
REMARK   12  A    between atoms: C_32  and  O_33
REMARK   13  A    between atoms: O_33  and  C_34
REMARK                            x       y       z     vdW  Elec       q    Type
REMARK                         _______ _______ _______ _____ _____    ______ ____
ROOT
ATOM      1  C   UNL     1       3.185  -4.936   3.660  0.00  0.00    +0.229 C 
ENDROOT
BRANCH   1   2
ATOM      2  C   UNL     1       4.634  -4.527   3.594  0.00  0.00    +0.134 A 
ATOM      3  C   UNL     1       5.094  -3.263   3.569  0.00  0.00    +0.047 A 
ATOM      4  C   UNL     1       6.504  -3.342   3.507  0.00  0.00    +0.041 A 
ATOM      5  C   UNL     1       6.821  -4.650   3.499  0.00  0.00    +0.195 A 
ATOM      6  O   UNL     1       5.684  -5.362   3.557  0.00  0.00    -0.465 OA
ENDBRANCH   1   2
BRANCH   1   8
ATOM      7  N   UNL     1       2.623  -5.030   1.253  0.00  0.00    -0.294 N 
ATOM      8  C   UNL     1       2.820  -5.694   2.409  0.00  0.00    +0.242 C 
ATOM      9  O   UNL     1       2.703  -6.900   2.444  0.00  0.00    -0.273 OA
ATOM     10  H   UNL     1       2.716  -4.065   1.225  0.00  0.00    +0.150 HD
BRANCH   7  11
ATOM     11  C   UNL     1       2.268  -5.767   0.037  0.00  0.00    +0.278 C 
BRANCH  11  12
ATOM     12  S   UNL     1       0.465  -5.772  -0.162  0.00  0.00    +0.013 S 
ATOM     13  O   UNL     1      -0.162  -6.122   1.065  0.00  0.00    -0.168 OA
ATOM     14  O   UNL     1       0.108  -6.429  -1.371  0.00  0.00    -0.168 OA
BRANCH  12  19
ATOM     15  C   UNL     1      -1.018   0.007  -1.057  0.00  0.00    +0.044 C 
ATOM     16  C   UNL     1      -0.647  -1.436  -0.833  0.00  0.00    -0.050 A 
ATOM     17  C   UNL     1      -0.345  -2.247  -1.911  0.00  0.00    +0.005 A 
ATOM     18  C   UNL     1      -0.006  -3.571  -1.706  0.00  0.00    +0.027 A 
ATOM     19  C   UNL     1       0.033  -4.084  -0.423  0.00  0.00    +0.090 A 
ATOM     20  C   UNL     1      -0.268  -3.273   0.655  0.00  0.00    +0.027 A 
ATOM     21  C   UNL     1      -0.603  -1.948   0.450  0.00  0.00    +0.005 A 
ENDBRANCH  12  19
ENDBRANCH  11  12
ENDBRANCH   7  11
ENDBRANCH   1   8
BRANCH   1  22
ATOM     22  N   UNL     1       2.971  -5.792   4.829  0.00  0.00    -0.274 N 
ATOM     23  C   UNL     1       1.726  -6.195   5.150  0.00  0.00    +0.243 C 
ATOM     24  O   UNL     1       1.537  -6.831   6.166  0.00  0.00    -0.273 OA
BRANCH  22  25
ATOM     25  C   UNL     1       4.111  -6.208   5.650  0.00  0.00    +0.183 C 
BRANCH  25  26
ATOM     26  C   UNL     1       4.412  -5.141   6.670  0.00  0.00    +0.122 A 
ATOM     27  C   UNL     1       3.892  -5.066   7.908  0.00  0.00    +0.046 A 
ATOM     28  C   UNL     1       4.445  -3.916   8.516  0.00  0.00    +0.045 A 
ATOM     29  C   UNL     1       5.270  -3.357   7.613  0.00  0.00    +0.102 A 
ATOM     30  O   UNL     1       5.251  -4.106   6.499  0.00  0.00    -0.463 OA
ATOM     31  C   UNL     1       6.083  -2.104   7.819  0.00  0.00    +0.086 C 
ENDBRANCH  25  26
ENDBRANCH  22  25
BRANCH  23  32
ATOM     32  C   UNL     1       0.568  -5.857   4.247  0.00  0.00    +0.255 C 
BRANCH  32  33
ATOM     33  O   UNL     1      -0.653  -6.275   4.861  0.00  0.00    -0.374 OA
ATOM     34  C   UNL     1      -1.819  -5.999   4.083  0.00  0.00    +0.194 C 
ENDBRANCH  32  33
ENDBRANCH  23  32
ENDBRANCH   1  22
TORSDOF 10
