REMARK  Name = ZINC07649683
REMARK  7 active torsions:
REMARK  status: ('A' for Active; 'I' for Inactive)
REMARK    1  A    between atoms: C_1  and  C_2
REMARK    2  A    between atoms: C_6  and  C_7
REMARK    3  A    between atoms: N_8  and  N_9
REMARK    4  A    between atoms: C_10  and  C_12
REMARK    5  A    between atoms: C_12  and  C_14
REMARK    6  A    between atoms: C_12  and  O_15
REMARK    7  A    between atoms: O_15  and  C_16
REMARK                            x       y       z     vdW  Elec       q    Type
REMARK                         _______ _______ _______ _____ _____    ______ ____
ROOT
ATOM      1  C   UNL     1       5.922   3.219   0.076  0.00  0.00    +0.257 C 
ATOM      2  C   UNL     1       6.473   2.958  -1.327  0.00  0.00    +0.062 C 
ENDROOT
BRANCH   1   4
ATOM      3  N   UNL     1       8.159   3.480   1.098  0.00  0.00    -0.204 N 
ATOM      4  C   UNL     1       6.935   3.997   0.876  0.00  0.00    +0.273 C 
ATOM      5  O   UNL     1       6.647   5.088   1.321  0.00  0.00    -0.270 OA
ATOM      6  H   UNL     1       8.389   2.607   0.742  0.00  0.00    +0.177 HD
BRANCH   3   8
ATOM      7  C   UNL     1      10.283   3.704   2.056  0.00  0.00    +0.145 C 
ATOM      8  N   UNL     1       9.101   4.203   1.842  0.00  0.00    -0.187 NA
BRANCH   7  14
ATOM      9  C   UNL     1      13.149   2.795   2.743  0.00  0.00    +0.045 C 
ATOM     10  C   UNL     1      12.563   4.114   3.177  0.00  0.00    -0.035 A 
ATOM     11  C   UNL     1      13.304   5.003   3.921  0.00  0.00    +0.011 A 
ATOM     12  C   UNL     1      12.743   6.181   4.301  0.00  0.00    +0.046 A 
ATOM     13  S   UNL     1      11.108   6.069   3.595  0.00  0.00    -0.095 S 
ATOM     14  C   UNL     1      11.268   4.461   2.835  0.00  0.00    +0.035 A 
ENDBRANCH   7  14
ENDBRANCH   3   8
ENDBRANCH   1   4
BRANCH   1  15
ATOM     15  O   UNL     1       4.711   3.971  -0.020  0.00  0.00    -0.480 OA
BRANCH  15  16
ATOM     16  C   UNL     1       3.565   3.271  -0.232  0.00  0.00    +0.122 A 
ATOM     17  C   UNL     1       3.630   1.892  -0.457  0.00  0.00    +0.046 A 
ATOM     18  C   UNL     1       2.502   1.165  -0.672  0.00  0.00    +0.012 A 
ATOM     19  C   UNL     1       1.249   1.804  -0.669  0.00  0.00    -0.018 A 
ATOM     20  C   UNL     1       0.063   1.083  -0.888  0.00  0.00    +0.008 A 
ATOM     21  C   UNL     1      -1.132   1.735  -0.883  0.00  0.00    +0.001 A 
ATOM     22  C   UNL     1      -1.200   3.108  -0.654  0.00  0.00    +0.001 A 
ATOM     23  C   UNL     1      -0.072   3.839  -0.439  0.00  0.00    +0.008 A 
ATOM     24  C   UNL     1       1.181   3.202  -0.442  0.00  0.00    -0.014 A 
ATOM     25  C   UNL     1       2.366   3.924  -0.223  0.00  0.00    +0.054 A 
ENDBRANCH  15  16
ENDBRANCH   1  15
TORSDOF 5
