REMARK  Name = ZINC40683195
REMARK  4 active torsions:
REMARK  status: ('A' for Active; 'I' for Inactive)
REMARK    1  A    between atoms: C_10  and  O_11
REMARK    2  A    between atoms: O_11  and  C_12
REMARK    3  A    between atoms: C_13  and  N_26
REMARK    4  A    between atoms: C_14  and  N_18
REMARK                            x       y       z     vdW  Elec       q    Type
REMARK                         _______ _______ _______ _____ _____    ______ ____
ROOT
ATOM      1  C   UNL     1       6.000  -0.616   0.012  0.00  0.00    +0.246 A 
ATOM      2  C   UNL     1       7.220   0.049   0.129  0.00  0.00    +0.128 A 
ATOM      3  C   UNL     1       8.383  -0.719   0.230  0.00  0.00    +0.152 A 
ATOM      4  N   UNL     1       8.282  -2.046   0.211  0.00  0.00    -0.218 NA
ATOM      5  C   UNL     1       7.108  -2.634   0.099  0.00  0.00    +0.227 A 
ATOM      6  N   UNL     1       5.988  -1.945   0.006  0.00  0.00    -0.199 NA
ENDROOT
BRANCH   3   7
ATOM      7  N   UNL     1       9.626  -0.107   0.348  0.00  0.00    -0.283 N 
ATOM      8  C   UNL     1      10.785  -0.876   0.332  0.00  0.00    +0.124 A 
ATOM      9  C   UNL     1      12.027  -0.251   0.335  0.00  0.00    +0.045 A 
ATOM     10  C   UNL     1      13.172  -1.028   0.319  0.00  0.00    +0.020 A 
ATOM     11  C   UNL     1      13.034  -2.410   0.300  0.00  0.00    +0.036 A 
ATOM     12  C   UNL     1      11.769  -2.964   0.298  0.00  0.00    +0.128 A 
ATOM     13  N   UNL     1      10.695  -2.197   0.319  0.00  0.00    -0.239 NA
ATOM     14 BR   UNL     1      14.564  -3.522   0.277  0.00  0.00    -0.049 Br
ATOM     15  H   UNL     1       9.684   0.857   0.442  0.00  0.00    +0.155 HD
ENDBRANCH   3   7
BRANCH   2  16
ATOM     16  N   UNL     1       7.278   1.450   0.144  0.00  0.00    -0.351 N 
ATOM     17  H   UNL     1       6.463   1.971   0.073  0.00  0.00    +0.143 HD
ATOM     18  H   UNL     1       8.134   1.899   0.227  0.00  0.00    +0.143 HD
ENDBRANCH   2  16
BRANCH   1  19
ATOM     19  O   UNL     1       4.841   0.083  -0.089  0.00  0.00    -0.436 OA
BRANCH  19  29
ATOM     20  C   UNL     1       1.915  -1.925   3.460  0.00  0.00    +0.001 A 
ATOM     21  C   UNL     1       3.112  -1.213   3.494  0.00  0.00    +0.001 A 
ATOM     22  C   UNL     1       3.701  -0.777   2.346  0.00  0.00    +0.012 A 
ATOM     23  C   UNL     1       3.095  -1.048   1.109  0.00  0.00    +0.024 A 
ATOM     24  C   UNL     1       1.878  -1.772   1.073  0.00  0.00    -0.014 A 
ATOM     25  C   UNL     1       1.300  -2.206   2.279  0.00  0.00    +0.008 A 
ATOM     26  C   UNL     1       1.271  -2.044  -0.165  0.00  0.00    +0.009 A 
ATOM     27  C   UNL     1       1.854  -1.612  -1.317  0.00  0.00    +0.004 A 
ATOM     28  C   UNL     1       3.050  -0.900  -1.293  0.00  0.00    +0.047 A 
ATOM     29  C   UNL     1       3.675  -0.613  -0.101  0.00  0.00    +0.138 A 
ENDBRANCH  19  29
ENDBRANCH   1  19
TORSDOF 4
