REMARK  Name = ZINC09069063
REMARK  6 active torsions:
REMARK  status: ('A' for Active; 'I' for Inactive)
REMARK    1  A    between atoms: C_1  and  C_2
REMARK    2  A    between atoms: C_5  and  N_8
REMARK    3  A    between atoms: C_10  and  C_15
REMARK    4  A    between atoms: C_15  and  N_16
REMARK    5  A    between atoms: C_17  and  C_19
REMARK    6  A    between atoms: C_21  and  N_26
REMARK                            x       y       z     vdW  Elec       q    Type
REMARK                         _______ _______ _______ _____ _____    ______ ____
ROOT
ATOM      1  C   UNL     1      -0.781   1.604   1.225  0.00  0.00    +0.150 C 
ENDROOT
BRANCH   1   4
ATOM      2  N   UNL     1       1.489   2.417  -1.253  0.00  0.00    -0.234 N 
ATOM      3  C   UNL     1       1.423   1.646  -0.003  0.00  0.00    +0.163 C 
ATOM      4  C   UNL     1      -0.013   1.086   0.008  0.00  0.00    +0.213 C 
ATOM      5  O   UNL     1      -0.599   1.595  -1.224  0.00  0.00    -0.444 OA
ATOM      6  C   UNL     1       0.306   2.334  -1.877  0.00  0.00    +0.408 C 
ATOM      7  O   UNL     1       0.076   2.879  -2.938  0.00  0.00    -0.226 OA
BRANCH   2  12
ATOM      8  C   UNL     1       6.013   5.281  -3.129  0.00  0.00    +0.044 C 
ATOM      9  C   UNL     1       4.811   4.520  -2.631  0.00  0.00    -0.050 A 
ATOM     10  C   UNL     1       3.644   4.513  -3.372  0.00  0.00    +0.005 A 
ATOM     11  C   UNL     1       2.541   3.816  -2.918  0.00  0.00    +0.024 A 
ATOM     12  C   UNL     1       2.605   3.124  -1.716  0.00  0.00    +0.040 A 
ATOM     13  C   UNL     1       3.777   3.138  -0.971  0.00  0.00    +0.024 A 
ATOM     14  C   UNL     1       4.878   3.831  -1.434  0.00  0.00    +0.005 A 
ENDBRANCH   2  12
ENDBRANCH   1   4
BRANCH   1  15
ATOM     15  N   UNL     1      -2.116   1.001   1.253  0.00  0.00    -0.308 N 
ATOM     16  C   UNL     1      -2.976   1.313   2.243  0.00  0.00    +0.246 C 
ATOM     17  O   UNL     1      -2.644   2.094   3.113  0.00  0.00    -0.270 OA
ATOM     18  H   UNL     1      -2.381   0.378   0.558  0.00  0.00    +0.149 HD
BRANCH  16  19
ATOM     19  C   UNL     1      -4.323   0.705   2.270  0.00  0.00    +0.057 A 
ATOM     20  C   UNL     1      -4.708  -0.193   1.272  0.00  0.00    +0.047 A 
ATOM     21  C   UNL     1      -5.966  -0.757   1.304  0.00  0.00    +0.127 A 
ATOM     22  C   UNL     1      -6.847  -0.435   2.322  0.00  0.00    +0.034 A 
ATOM     23  C   UNL     1      -6.474   0.453   3.314  0.00  0.00    +0.023 A 
ATOM     24  C   UNL     1      -5.215   1.021   3.298  0.00  0.00    +0.053 A 
ATOM     25 CL   UNL     1      -4.744   2.130   4.548  0.00  0.00    -0.083 Cl
BRANCH  21  26
ATOM     26  N   UNL     1      -6.375  -1.708   0.247  0.00  0.00    +0.056 N 
ATOM     27  O   UNL     1      -5.601  -1.993  -0.650  0.00  0.00    -0.126 OA
ATOM     28  O   UNL     1      -7.486  -2.207   0.273  0.00  0.00    -0.126 OA
ENDBRANCH  21  26
ENDBRANCH  16  19
ENDBRANCH   1  15
TORSDOF 5
