REMARK  Name = ZINC54216981
REMARK  5 active torsions:
REMARK  status: ('A' for Active; 'I' for Inactive)
REMARK    1  A    between atoms: C_1  and  C_2
REMARK    2  A    between atoms: C_2  and  N_9
REMARK    3  A    between atoms: C_10  and  C_12
REMARK    4  A    between atoms: C_17  and  N_18
REMARK    5  A    between atoms: N_18  and  N_19
REMARK                            x       y       z     vdW  Elec       q    Type
REMARK                         _______ _______ _______ _____ _____    ______ ____
ROOT
ATOM      1  N   UNL     1      -1.280  -1.692  -1.000  0.00  0.00    -0.304 N 
ATOM      2  C   UNL     1      -2.220  -0.971  -1.643  0.00  0.00    +0.246 C 
ATOM      3  O   UNL     1      -1.907  -0.265  -2.583  0.00  0.00    -0.270 OA
ATOM      4  H   UNL     1      -1.530  -2.255  -0.251  0.00  0.00    +0.150 HD
ENDROOT
BRANCH   1   6
ATOM      5  C   UNL     1       0.592  -0.174  -1.331  0.00  0.00    +0.033 C 
ATOM      6  C   UNL     1       0.118  -1.625  -1.433  0.00  0.00    +0.053 C 
ATOM      7  C   UNL     1       0.196  -2.063  -2.895  0.00  0.00    +0.049 C 
ATOM      8  C   UNL     1       1.588  -2.686  -3.197  0.00  0.00    +0.168 C 
ATOM      9  S   UNL     1       1.848  -3.632  -1.633  0.00  0.00    -0.029 S 
ATOM     10  O   UNL     1       1.136  -4.860  -1.706  0.00  0.00    -0.174 OA
ATOM     11  O   UNL     1       3.233  -3.641  -1.317  0.00  0.00    -0.174 OA
ATOM     12  C   UNL     1       0.970  -2.491  -0.485  0.00  0.00    +0.191 C 
ENDBRANCH   1   6
BRANCH   2  13
ATOM     13  C   UNL     1      -3.627  -1.038  -1.208  0.00  0.00    +0.061 A 
ATOM     14  C   UNL     1      -4.011  -1.938  -0.209  0.00  0.00    +0.015 A 
ATOM     15  C   UNL     1      -5.327  -1.996   0.194  0.00  0.00    +0.004 A 
ATOM     16  C   UNL     1      -6.275  -1.168  -0.385  0.00  0.00    +0.040 A 
ATOM     17  C   UNL     1      -5.912  -0.274  -1.373  0.00  0.00    +0.146 A 
ATOM     18  C   UNL     1      -4.587  -0.197  -1.789  0.00  0.00    +0.089 A 
ATOM     19  F   UNL     1      -6.843   0.530  -1.932  0.00  0.00    -0.203 F 
BRANCH  18  20
ATOM     20  N   UNL     1      -4.216   0.706  -2.780  0.00  0.00    -0.280 N 
ATOM     21  H   UNL     1      -3.351   1.143  -2.739  0.00  0.00    +0.166 HD
BRANCH  20  22
ATOM     22  N   UNL     1      -5.071   0.978  -3.810  0.00  0.00    -0.256 NA
ATOM     23  H   UNL     1      -5.963   1.300  -3.465  0.00  0.00    +0.140 HD
ATOM     24  H   UNL     1      -4.668   1.648  -4.448  0.00  0.00    +0.140 HD
ENDBRANCH  20  22
ENDBRANCH  18  20
ENDBRANCH   2  13
TORSDOF 4
