REMARK  Name = ZINC08705164
REMARK  7 active torsions:
REMARK  status: ('A' for Active; 'I' for Inactive)
REMARK    1  A    between atoms: C_1  and  N_2
REMARK    2  A    between atoms: N_2  and  C_3
REMARK    3  A    between atoms: C_3  and  C_4
REMARK    4  A    between atoms: C_9  and  N_10
REMARK    5  A    between atoms: C_16  and  C_18
REMARK    6  A    between atoms: C_20  and  C_30
REMARK    7  A    between atoms: C_26  and  C_27
REMARK                            x       y       z     vdW  Elec       q    Type
REMARK                         _______ _______ _______ _____ _____    ______ ____
ROOT
ATOM      1  C   UNL     1       4.219   0.737  -1.073  0.00  0.00    +0.113 A 
ATOM      2  C   UNL     1       2.982   0.781  -1.643  0.00  0.00    +0.063 A 
ATOM      3  C   UNL     1       2.291   2.017  -1.697  0.00  0.00    +0.110 A 
ATOM      4  N   UNL     1       2.846   3.112  -1.197  0.00  0.00    -0.224 NA
ATOM      5  C   UNL     1       4.053   3.075  -0.640  0.00  0.00    +0.171 A 
ATOM      6  N   UNL     1       4.762   1.899  -0.564  0.00  0.00    -0.278 N 
ATOM      7  C   UNL     1       5.943   2.176   0.051  0.00  0.00    +0.206 A 
ATOM      8  N   UNL     1       5.997   3.441   0.353  0.00  0.00    -0.229 NA
ATOM      9  C   UNL     1       4.864   4.054  -0.045  0.00  0.00    +0.169 A 
ENDROOT
BRANCH   9  10
ATOM     10  C   UNL     1       4.538   5.472   0.118  0.00  0.00    +0.264 C 
ATOM     11  O   UNL     1       3.474   5.902  -0.287  0.00  0.00    -0.269 OA
ATOM     12  N   UNL     1       5.415   6.301   0.717  0.00  0.00    -0.324 N 
ATOM     13  H   UNL     1       6.263   5.958   1.041  0.00  0.00    +0.145 HD
ATOM     14  H   UNL     1       5.199   7.240   0.826  0.00  0.00    +0.145 HD
ENDBRANCH   9  10
BRANCH   3  15
ATOM     15  C   UNL     1       0.954   2.085  -2.309  0.00  0.00    +0.153 A 
ATOM     16  C   UNL     1       0.181   3.203  -2.421  0.00  0.00    +0.051 A 
ATOM     17  C   UNL     1      -1.004   2.811  -3.069  0.00  0.00    +0.042 A 
ATOM     18  C   UNL     1      -0.904   1.487  -3.312  0.00  0.00    +0.196 A 
ATOM     19  O   UNL     1       0.278   1.053  -2.851  0.00  0.00    -0.461 OA
ENDBRANCH   3  15
BRANCH   1  22
ATOM     20  C   UNL     1       2.930  -1.707  -1.646  0.00  0.00    +0.132 C 
ATOM     21  N   UNL     1       4.331  -1.704  -1.217  0.00  0.00    -0.295 N 
ATOM     22  C   UNL     1       4.967  -0.535  -1.000  0.00  0.00    +0.264 C 
ATOM     23  O   UNL     1       6.155  -0.527  -0.745  0.00  0.00    -0.268 OA
BRANCH  21  24
ATOM     24  C   UNL     1       5.041  -2.970  -1.023  0.00  0.00    +0.144 C 
BRANCH  24  25
ATOM     25  C   UNL     1       5.009  -3.347   0.436  0.00  0.00    -0.009 A 
ATOM     26  C   UNL     1       6.087  -3.058   1.249  0.00  0.00    +0.007 A 
ATOM     27  C   UNL     1       6.056  -3.398   2.588  0.00  0.00    +0.000 A 
ATOM     28  C   UNL     1       4.950  -4.039   3.117  0.00  0.00    +0.002 A 
ATOM     29  C   UNL     1       3.870  -4.336   2.308  0.00  0.00    +0.023 A 
ATOM     30  C   UNL     1       3.896  -3.990   0.963  0.00  0.00    +0.034 A 
BRANCH  30  31
ATOM     31  N   UNL     1       2.806  -4.289   0.142  0.00  0.00    -0.330 N 
ATOM     32  C   UNL     1       1.557  -3.776   0.719  0.00  0.00    +0.105 C 
ATOM     33  C   UNL     1       0.410  -3.991  -0.271  0.00  0.00    +0.019 C 
ATOM     34  C   UNL     1       0.278  -5.487  -0.573  0.00  0.00    +0.003 C 
ATOM     35  C   UNL     1       1.607  -6.007  -1.127  0.00  0.00    +0.019 C 
ATOM     36  C   UNL     1       2.720  -5.733  -0.112  0.00  0.00    +0.105 C 
ENDBRANCH  30  31
ENDBRANCH  24  25
ENDBRANCH  21  24
ENDBRANCH   1  22
TORSDOF 6
