REMARK  Name = ZINC55250388
REMARK  9 active torsions:
REMARK  status: ('A' for Active; 'I' for Inactive)
REMARK    1  A    between atoms: C_1  and  N_2
REMARK    2  A    between atoms: N_2  and  C_3
REMARK    3  A    between atoms: C_5  and  C_10
REMARK    4  A    between atoms: C_10  and  N_11
REMARK    5  A    between atoms: C_12  and  C_14
REMARK    6  A    between atoms: C_16  and  N_21
REMARK    7  A    between atoms: C_19  and  O_20
REMARK    8  A    between atoms: N_21  and  S_22
REMARK    9  A    between atoms: S_22  and  C_25
REMARK                            x       y       z     vdW  Elec       q    Type
REMARK                         _______ _______ _______ _____ _____    ______ ____
ROOT
ATOM      1  N   UNL     1      -1.587  -2.894   0.520  0.00  0.00    -0.307 N 
ATOM      2  C   UNL     1      -1.915  -3.530   1.663  0.00  0.00    +0.248 C 
ATOM      3  O   UNL     1      -1.051  -4.060   2.333  0.00  0.00    -0.270 OA
ATOM      4  H   UNL     1      -2.277  -2.471  -0.015  0.00  0.00    +0.149 HD
ENDROOT
BRANCH   2   5
ATOM      5  C   UNL     1      -3.324  -3.583   2.099  0.00  0.00    +0.080 A 
ATOM      6  C   UNL     1      -4.321  -2.980   1.328  0.00  0.00    +0.043 A 
ATOM      7  C   UNL     1      -5.640  -3.034   1.744  0.00  0.00    +0.075 A 
ATOM      8  C   UNL     1      -5.973  -3.686   2.926  0.00  0.00    +0.030 A 
ATOM      9  C   UNL     1      -4.994  -4.284   3.693  0.00  0.00    +0.048 A 
ATOM     10  C   UNL     1      -3.668  -4.242   3.286  0.00  0.00    +0.129 A 
BRANCH  10  11
ATOM     11  O   UNL     1      -2.707  -4.836   4.038  0.00  0.00    -0.506 OA
ATOM     12  H   UNL     1      -2.317  -4.256   4.707  0.00  0.00    +0.292 HD
ENDBRANCH  10  11
BRANCH   7  13
ATOM     13  N   UNL     1      -6.640  -2.430   0.973  0.00  0.00    -0.103 NA
BRANCH  13  14
ATOM     14  S   UNL     1      -8.219  -2.493   1.469  0.00  0.00    +0.059 S 
ATOM     15  O   UNL     1      -8.553  -3.874   1.440  0.00  0.00    -0.154 OA
ATOM     16  O   UNL     1      -8.245  -1.767   2.691  0.00  0.00    -0.154 OA
ATOM     17  C   UNL     1      -9.145  -1.599   0.191  0.00  0.00    +0.220 C 
ENDBRANCH  13  14
ENDBRANCH   7  13
ENDBRANCH   2   5
BRANCH   1  18
ATOM     18  C   UNL     1      -0.189  -2.842   0.087  0.00  0.00    +0.143 C 
BRANCH  18  23
ATOM     19  C   UNL     1      -1.565   0.420   0.462  0.00  0.00    +0.130 C 
ATOM     20  N   UNL     1      -0.244   0.001  -0.013  0.00  0.00    -0.323 N 
ATOM     21  C   UNL     1       0.950   0.309   0.777  0.00  0.00    +0.130 C 
ATOM     22  C   UNL     1      -0.124  -0.689  -1.214  0.00  0.00    +0.103 A 
ATOM     23  C   UNL     1      -0.093  -2.080  -1.210  0.00  0.00    +0.008 A 
ATOM     24  C   UNL     1       0.027  -2.753  -2.412  0.00  0.00    +0.010 A 
ATOM     25  C   UNL     1       0.112  -2.010  -3.582  0.00  0.00    +0.018 A 
ATOM     26  C   UNL     1       0.076  -0.632  -3.513  0.00  0.00    +0.084 A 
ATOM     27  N   UNL     1      -0.045  -0.016  -2.352  0.00  0.00    -0.349 N 
ATOM     28  H   UNL     1      -0.072   0.953  -2.331  0.00  0.00    +0.167 HD
ENDBRANCH  18  23
ENDBRANCH   1  18
TORSDOF 6
