REMARK  Name = ZINC21186471
REMARK  13 active torsions:
REMARK  status: ('A' for Active; 'I' for Inactive)
REMARK    1  A    between atoms: C_1  and  C_2
REMARK    2  A    between atoms: C_2  and  C_4
REMARK    3  A    between atoms: C_2  and  O_10
REMARK    4  A    between atoms: O_10  and  C_11
REMARK    5  A    between atoms: C_11  and  C_13
REMARK    6  A    between atoms: C_16  and  C_19
REMARK    7  A    between atoms: C_19  and  N_20
REMARK    8  A    between atoms: N_20  and  S_21
REMARK    9  A    between atoms: S_21  and  C_24
REMARK   10  A    between atoms: C_27  and  C_30
REMARK   11  A    between atoms: C_30  and  C_31
REMARK   12  A    between atoms: C_30  and  C_32
REMARK   13  A    between atoms: C_30  and  C_33
REMARK                            x       y       z     vdW  Elec       q    Type
REMARK                         _______ _______ _______ _____ _____    ______ ____
ROOT
ATOM      1  C   UNL     1       2.153  -4.989  -6.021  0.00  0.00    +0.059 A 
ATOM      2  C   UNL     1       1.535  -3.737  -5.980  0.00  0.00    +0.015 A 
ATOM      3  C   UNL     1       1.606  -2.974  -4.833  0.00  0.00    +0.006 A 
ATOM      4  C   UNL     1       2.287  -3.446  -3.725  0.00  0.00    -0.032 A 
ATOM      5  C   UNL     1       2.906  -4.683  -3.761  0.00  0.00    +0.006 A 
ATOM      6  C   UNL     1       2.838  -5.459  -4.899  0.00  0.00    +0.015 A 
ENDROOT
BRANCH   1   7
ATOM      7  C   UNL     1       2.081  -5.812  -7.245  0.00  0.00    +0.340 C 
ATOM      8  O   UNL     1       1.483  -5.400  -8.220  0.00  0.00    -0.245 OA
BRANCH   7   9
ATOM      9  O   UNL     1       2.678  -7.019  -7.282  0.00  0.00    -0.449 OA
BRANCH   9  11
ATOM     10  C   UNL     1       1.314  -8.652  -8.467  0.00  0.00    +0.062 C 
ATOM     11  C   UNL     1       2.566  -7.773  -8.517  0.00  0.00    +0.259 C 
BRANCH  11  12
ATOM     12  C   UNL     1       3.784  -8.643  -8.687  0.00  0.00    +0.261 C 
ATOM     13  O   UNL     1       4.617  -8.698  -7.807  0.00  0.00    -0.271 OA
ATOM     14  N   UNL     1       3.949  -9.360  -9.816  0.00  0.00    -0.237 N 
ATOM     15  C   UNL     1       5.038 -10.139  -9.968  0.00  0.00    +0.303 C 
ATOM     16  O   UNL     1       5.873 -10.194  -9.086  0.00  0.00    -0.253 OA
ATOM     17  N   UNL     1       5.202 -10.856 -11.097  0.00  0.00    -0.313 N 
ATOM     18  H   UNL     1       3.193  -9.310 -10.614  0.00  0.00    +0.159 HD
ATOM     19  H   UNL     1       6.092 -11.491 -11.221  0.00  0.00    +0.146 HD
ATOM     20  H   UNL     1       4.447 -10.806 -11.895  0.00  0.00    +0.146 HD
ENDBRANCH  11  12
ENDBRANCH   9  11
ENDBRANCH   7   9
ENDBRANCH   1   7
BRANCH   4  21
ATOM     21  C   UNL     1       2.360  -2.606  -2.476  0.00  0.00    +0.141 C 
BRANCH  21  22
ATOM     22  N   UNL     1       1.223  -2.922  -1.608  0.00  0.00    -0.186 NA
ATOM     23  H   UNL     1       0.298  -3.329  -2.041  0.00  0.00    +0.148 HD
BRANCH  22  24
ATOM     24  S   UNL     1       1.232  -2.441  -0.023  0.00  0.00    +0.059 S 
ATOM     25  O   UNL     1       2.489  -2.833   0.513  0.00  0.00    -0.153 OA
ATOM     26  O   UNL     1      -0.002  -2.867   0.538  0.00  0.00    -0.153 OA
BRANCH  24  27
ATOM     27  C   UNL     1       1.208  -0.679  -0.014  0.00  0.00    +0.105 A 
ATOM     28  C   UNL     1       0.002  -0.004   0.002  0.00  0.00    +0.029 A 
ATOM     29  C   UNL     1      -0.017   1.378   0.010  0.00  0.00    +0.006 A 
ATOM     30  C   UNL     1       1.171   2.086   0.002  0.00  0.00    -0.042 A 
ATOM     31  C   UNL     1       2.377   1.411  -0.014  0.00  0.00    +0.006 A 
ATOM     32  C   UNL     1       2.396   0.029  -0.021  0.00  0.00    +0.029 A 
BRANCH  30  33
ATOM     33  C   UNL     1       1.151   3.592   0.010  0.00  0.00    -0.013 C 
ATOM     34  C   UNL     1       0.434   4.086   1.268  0.00  0.00    +0.015 C 
ATOM     35  C   UNL     1       2.586   4.122  -0.001  0.00  0.00    +0.015 C 
ATOM     36  C   UNL     1       0.411   4.099  -1.230  0.00  0.00    +0.015 C 
ENDBRANCH  30  33
ENDBRANCH  24  27
ENDBRANCH  22  24
ENDBRANCH  21  22
ENDBRANCH   4  21
TORSDOF 9
