REMARK  Name = ZINC09684675
REMARK  8 active torsions:
REMARK  status: ('A' for Active; 'I' for Inactive)
REMARK    1  A    between atoms: C_1  and  C_2
REMARK    2  A    between atoms: N_10  and  C_11
REMARK    3  A    between atoms: C_11  and  C_12
REMARK    4  A    between atoms: C_12  and  C_31
REMARK    5  A    between atoms: C_14  and  N_21
REMARK    6  A    between atoms: C_17  and  C_19
REMARK    7  A    between atoms: C_17  and  C_20
REMARK    8  A    between atoms: C_28  and  C_30
REMARK                            x       y       z     vdW  Elec       q    Type
REMARK                         _______ _______ _______ _____ _____    ______ ____
ROOT
ATOM      1  C   UNL     1      -1.371   4.227   2.037  0.00  0.00    -0.014 C 
ATOM      2  C   UNL     1      -2.808   3.732   2.104  0.00  0.00    +0.030 C 
ATOM      3  C   UNL     1      -2.927   2.244   2.376  0.00  0.00    +0.076 C 
ATOM      4  C   UNL     1      -2.073   1.409   1.440  0.00  0.00    +0.028 C 
ATOM      5  C   UNL     1      -0.630   1.875   1.336  0.00  0.00    -0.033 C 
ATOM      6  C   UNL     1      -0.508   3.374   1.125  0.00  0.00    +0.014 C 
ATOM      7  C   UNL     1      -0.015   1.185   0.093  0.00  0.00    +0.011 C 
ATOM      8  C   UNL     1       0.183   1.410   2.545  0.00  0.00    +0.011 C 
ATOM      9  C   UNL     1      -0.765   4.356   3.434  0.00  0.00    +0.013 C 
ENDROOT
BRANCH   3  10
ATOM     10  N   UNL     1      -2.668   1.923   3.777  0.00  0.00    -0.296 N 
ATOM     11  C   UNL     1      -3.192   0.807   4.321  0.00  0.00    +0.306 C 
ATOM     12  O   UNL     1      -3.881   0.067   3.645  0.00  0.00    -0.252 OA
ATOM     13  N   UNL     1      -2.953   0.511   5.614  0.00  0.00    -0.247 N 
ATOM     14  C   UNL     1      -3.494  -0.641   6.175  0.00  0.00    +0.189 A 
ATOM     15  N   UNL     1      -4.264  -1.564   5.626  0.00  0.00    -0.126 NA
ATOM     16  N   UNL     1      -4.674  -2.565   6.277  0.00  0.00    -0.145 NA
ATOM     17  C   UNL     1      -4.353  -2.718   7.546  0.00  0.00    +0.101 A 
ATOM     18  S   UNL     1      -3.349  -1.258   7.795  0.00  0.00    -0.036 S 
ATOM     19  C   UNL     1      -4.725  -3.812   8.513  0.00  0.00    +0.075 C 
ATOM     20  H   UNL     1      -2.118   2.513   4.316  0.00  0.00    +0.151 HD
ATOM     21  H   UNL     1      -2.403   1.101   6.153  0.00  0.00    +0.158 HD
ENDBRANCH   3  10
BRANCH   1  22
ATOM     22  C   UNL     1      -1.409   5.653   1.431  0.00  0.00    +0.112 C 
BRANCH  22  32
ATOM     23  C   UNL     1      -4.340  13.941   2.029  0.00  0.00    +0.075 C 
ATOM     24  C   UNL     1      -3.899  12.500   2.028  0.00  0.00    +0.101 A 
ATOM     25  N   UNL     1      -3.136  11.849   1.174  0.00  0.00    -0.145 NA
ATOM     26  N   UNL     1      -2.871  10.627   1.349  0.00  0.00    -0.126 NA
ATOM     27  C   UNL     1      -3.349   9.949   2.378  0.00  0.00    +0.189 A 
ATOM     28  S   UNL     1      -4.263  11.187   3.188  0.00  0.00    -0.036 S 
ATOM     29  N   UNL     1      -3.167   8.614   2.721  0.00  0.00    -0.247 N 
ATOM     30  C   UNL     1      -2.409   7.815   1.944  0.00  0.00    +0.305 C 
ATOM     31  O   UNL     1      -1.885   8.262   0.942  0.00  0.00    -0.252 OA
ATOM     32  N   UNL     1      -2.232   6.521   2.277  0.00  0.00    -0.299 N 
ATOM     33  H   UNL     1      -3.585   8.257   3.521  0.00  0.00    +0.158 HD
ATOM     34  H   UNL     1      -2.650   6.165   3.076  0.00  0.00    +0.150 HD
ENDBRANCH  22  32
ENDBRANCH   1  22
TORSDOF 3
