REMARK  Name = ZINC02130499
REMARK  6 active torsions:
REMARK  status: ('A' for Active; 'I' for Inactive)
REMARK    1  A    between atoms: C_1  and  C_2
REMARK    2  A    between atoms: C_16  and  C_18
REMARK    3  A    between atoms: C_18  and  C_19
REMARK    4  A    between atoms: C_19  and  C_20
REMARK    5  A    between atoms: N_24  and  C_27
REMARK    6  A    between atoms: C_27  and  C_28
REMARK                            x       y       z     vdW  Elec       q    Type
REMARK                         _______ _______ _______ _____ _____    ______ ____
ROOT
ATOM      1  C   UNL     1      -0.607   8.277  -7.553  0.00  0.00    +0.045 C 
ATOM      2  C   UNL     1      -1.652   7.242  -7.226  0.00  0.00    -0.029 A 
ATOM      3  C   UNL     1      -2.696   7.019  -8.100  0.00  0.00    +0.005 A 
ATOM      4  C   UNL     1      -3.661   6.072  -7.809  0.00  0.00    +0.001 A 
ATOM      5  C   UNL     1      -3.579   5.344  -6.634  0.00  0.00    +0.004 A 
ATOM      6  C   UNL     1      -2.539   5.563  -5.759  0.00  0.00    -0.027 A 
ATOM      7  C   UNL     1      -1.562   6.514  -6.042  0.00  0.00    +0.039 A 
ATOM      8  N   UNL     1      -0.618   6.557  -5.014  0.00  0.00    -0.286 N 
ATOM      9  C   UNL     1      -0.897   5.679  -4.031  0.00  0.00    +0.211 C 
ATOM     10  O   UNL     1      -0.255   5.498  -3.018  0.00  0.00    -0.277 OA
ATOM     11  C   UNL     1      -2.159   4.967  -4.434  0.00  0.00    +0.050 C 
ATOM     12  C   UNL     1      -3.268   5.158  -3.392  0.00  0.00    +0.088 C 
ATOM     13  C   UNL     1      -4.036   3.806  -3.387  0.00  0.00    +0.073 C 
ATOM     14  C   UNL     1      -3.315   2.937  -4.439  0.00  0.00    -0.057 C 
ATOM     15  C   UNL     1      -3.760   3.253  -2.008  0.00  0.00    +0.224 C 
ATOM     16  O   UNL     1      -4.170   2.194  -1.583  0.00  0.00    -0.275 OA
ATOM     17  N   UNL     1      -2.993   4.114  -1.329  0.00  0.00    -0.237 N 
ATOM     18  C   UNL     1      -2.664   5.220  -2.007  0.00  0.00    +0.225 C 
ATOM     19  O   UNL     1      -1.987   6.129  -1.578  0.00  0.00    -0.275 OA
ATOM     20  H   UNL     1       0.150   7.150  -5.008  0.00  0.00    +0.155 HD
ATOM     21  N   UNL     1      -1.979   3.529  -4.533  0.00  0.00    +0.394 N 
ATOM     22  H   UNL     1      -1.386   3.191  -3.765  0.00  0.00    -0.083 HD
ATOM     23  H   UNL     1      -1.546   3.286  -5.432  0.00  0.00    -0.083 HD
ENDROOT
BRANCH  14  24
ATOM     24  C   UNL     1      -3.249   1.481  -3.972  0.00  0.00    -0.004 C 
BRANCH  24  25
ATOM     25  C   UNL     1      -2.645   0.617  -5.080  0.00  0.00    +0.123 C 
BRANCH  25  26
ATOM     26  C   UNL     1      -2.580  -0.817  -4.620  0.00  0.00    +0.356 C 
ATOM     27  O   UNL     1      -2.977  -1.116  -3.518  0.00  0.00    -0.246 OA
ATOM     28  O   UNL     1      -2.082  -1.761  -5.433  0.00  0.00    -0.246 OA
ENDBRANCH  25  26
ENDBRANCH  24  25
ENDBRANCH  14  24
BRANCH  17  29
ATOM     29  C   UNL     1      -2.553   3.869   0.047  0.00  0.00    +0.151 C 
BRANCH  29  30
ATOM     30  C   UNL     1      -1.238   3.133   0.030  0.00  0.00    -0.030 A 
ATOM     31  C   UNL     1      -1.219   1.751   0.017  0.00  0.00    +0.005 A 
ATOM     32  C   UNL     1      -0.013   1.076   0.008  0.00  0.00    +0.000 A 
ATOM     33  C   UNL     1       1.175   1.783   0.000  0.00  0.00    +0.000 A 
ATOM     34  C   UNL     1       1.156   3.165   0.008  0.00  0.00    +0.000 A 
ATOM     35  C   UNL     1      -0.050   3.840   0.022  0.00  0.00    +0.005 A 
ENDBRANCH  29  30
ENDBRANCH  17  29
TORSDOF 5
