REMARK  Name = ZINC08395098
REMARK  8 active torsions:
REMARK  status: ('A' for Active; 'I' for Inactive)
REMARK    1  A    between atoms: C_1  and  C_2
REMARK    2  A    between atoms: C_4  and  O_9
REMARK    3  A    between atoms: O_9  and  C_10
REMARK    4  A    between atoms: C_10  and  C_11
REMARK    5  A    between atoms: C_14  and  S_17
REMARK    6  A    between atoms: S_17  and  C_18
REMARK    7  A    between atoms: C_18  and  C_19
REMARK    8  A    between atoms: C_19  and  C_21
REMARK                            x       y       z     vdW  Elec       q    Type
REMARK                         _______ _______ _______ _____ _____    ______ ____
ROOT
ATOM      1  C   UNL     1       0.048  -4.746  -3.712  0.00  0.00    +0.189 A 
ATOM      2  N   UNL     1       1.135  -5.024  -4.433  0.00  0.00    -0.202 NA
ATOM      3  H   UNL     1      -1.124  -5.854  -6.378  0.00  0.00    +0.191 HD
ATOM      4  C   UNL     1       0.778  -5.508  -5.605  0.00  0.00    +0.185 A 
ATOM      5  N   UNL     1      -0.571  -5.545  -5.643  0.00  0.00    -0.253 N 
ATOM      6  N   UNL     1      -1.016  -5.052  -4.405  0.00  0.00    -0.153 NA
ENDROOT
BRANCH   1   7
ATOM      7  C   UNL     1       0.047  -4.176  -2.317  0.00  0.00    +0.306 C 
BRANCH   7   8
ATOM      8  O   UNL     1       0.028  -2.749  -2.386  0.00  0.00    -0.484 OA
BRANCH   8  12
ATOM      9  C   UNL     1      -0.018   1.503   0.010  0.00  0.00    +0.045 C 
ATOM     10  C   UNL     1       0.002  -0.004   0.002  0.00  0.00    -0.029 A 
ATOM     11  C   UNL     1       0.006  -0.688  -1.199  0.00  0.00    +0.050 A 
ATOM     12  C   UNL     1       0.025  -2.075  -1.206  0.00  0.00    +0.121 A 
ATOM     13  C   UNL     1       0.040  -2.773  -0.007  0.00  0.00    +0.047 A 
ATOM     14  C   UNL     1       0.036  -2.086   1.192  0.00  0.00    +0.024 A 
ATOM     15  C   UNL     1       0.023  -0.702   1.196  0.00  0.00    +0.044 A 
ATOM     16 CL   UNL     1       0.025   0.160   2.704  0.00  0.00    -0.083 Cl
ENDBRANCH   8  12
ENDBRANCH   7   8
ENDBRANCH   1   7
BRANCH   4  17
ATOM     17  S   UNL     1       1.868  -6.016  -6.893  0.00  0.00    -0.078 S 
BRANCH  17  18
ATOM     18  C   UNL     1       3.522  -5.713  -6.213  0.00  0.00    +0.160 C 
BRANCH  18  19
ATOM     19  C   UNL     1       4.563  -6.110  -7.229  0.00  0.00    +0.208 C 
ATOM     20  O   UNL     1       4.221  -6.555  -8.305  0.00  0.00    -0.288 OA
BRANCH  19  21
ATOM     21  C   UNL     1       5.940  -5.965  -6.926  0.00  0.00    +0.172 A 
ATOM     22  C   UNL     1       6.967  -6.284  -7.761  0.00  0.00    +0.061 A 
ATOM     23  C   UNL     1       8.168  -5.984  -7.070  0.00  0.00    +0.021 A 
ATOM     24  C   UNL     1       9.524  -6.092  -7.394  0.00  0.00    +0.011 A 
ATOM     25  C   UNL     1      10.471  -5.711  -6.487  0.00  0.00    +0.001 A 
ATOM     26  C   UNL     1      10.097  -5.217  -5.244  0.00  0.00    +0.004 A 
ATOM     27  C   UNL     1       8.767  -5.103  -4.903  0.00  0.00    +0.047 A 
ATOM     28  C   UNL     1       7.785  -5.484  -5.811  0.00  0.00    +0.136 A 
ATOM     29  O   UNL     1       6.438  -5.483  -5.766  0.00  0.00    -0.452 OA
ENDBRANCH  19  21
ENDBRANCH  18  19
ENDBRANCH  17  18
ENDBRANCH   4  17
TORSDOF 7
