REMARK  Name = ZINC65717122
REMARK  4 active torsions:
REMARK  status: ('A' for Active; 'I' for Inactive)
REMARK    1  A    between atoms: C_3  and  C_6
REMARK    2  A    between atoms: C_9  and  C_14
REMARK    3  A    between atoms: C_14  and  O_16
REMARK    4  A    between atoms: O_16  and  C_17
REMARK                            x       y       z     vdW  Elec       q    Type
REMARK                         _______ _______ _______ _____ _____    ______ ____
ROOT
ATOM      1  C   UNL     1       3.556   0.605  -0.067  0.00  0.00    +0.085 A 
ATOM      2  C   UNL     1       4.269   1.797  -0.103  0.00  0.00    +0.030 A 
ATOM      3  C   UNL     1       5.653   1.773  -0.118  0.00  0.00    +0.022 A 
ATOM      4  C   UNL     1       6.314   0.538  -0.096  0.00  0.00    +0.124 A 
ATOM      5  C   UNL     1       5.552  -0.656  -0.059  0.00  0.00    +0.263 A 
ATOM      6  O   UNL     1       6.115  -1.737  -0.039  0.00  0.00    -0.267 OA
ATOM      7  N   UNL     1       4.207  -0.598  -0.040  0.00  0.00    -0.319 N 
ATOM      8  H   UNL     1       3.693  -1.420  -0.010  0.00  0.00    +0.169 HD
ENDROOT
BRANCH   1  11
ATOM      9  C   UNL     1      -0.022   1.325  -0.048  0.00  0.00    +0.042 A 
ATOM     10  C   UNL     1       1.312   1.760  -0.074  0.00  0.00    +0.051 A 
ATOM     11  C   UNL     1       2.092   0.637  -0.051  0.00  0.00    +0.151 A 
ATOM     12  O   UNL     1       1.276  -0.436  -0.012  0.00  0.00    -0.461 OA
ATOM     13  C   UNL     1       0.000  -0.025  -0.009  0.00  0.00    +0.196 A 
ENDBRANCH   1  11
BRANCH   4  14
ATOM     14  C   UNL     1       7.779   0.482  -0.111  0.00  0.00    +0.350 C 
ATOM     15  O   UNL     1       8.426   1.512  -0.144  0.00  0.00    -0.244 OA
BRANCH  14  16
ATOM     16  O   UNL     1       8.408  -0.710  -0.090  0.00  0.00    -0.422 OA
BRANCH  16  17
ATOM     17  C   UNL     1       9.762  -0.719  -0.208  0.00  0.00    +0.135 A 
ATOM     18  C   UNL     1      10.556  -0.383   0.879  0.00  0.00    +0.049 A 
ATOM     19  C   UNL     1      11.933  -0.392   0.758  0.00  0.00    +0.045 A 
ATOM     20  C   UNL     1      12.521  -0.736  -0.447  0.00  0.00    +0.159 A 
ATOM     21  C   UNL     1      11.730  -1.072  -1.534  0.00  0.00    +0.162 A 
ATOM     22  C   UNL     1      10.351  -1.070  -1.414  0.00  0.00    +0.087 A 
ATOM     23  F   UNL     1      12.304  -1.408  -2.710  0.00  0.00    -0.202 F 
ATOM     24  F   UNL     1      13.867  -0.744  -0.563  0.00  0.00    -0.202 F 
ENDBRANCH  16  17
ENDBRANCH  14  16
ENDBRANCH   4  14
TORSDOF 4
