REMARK  Name = ZINC36811055
REMARK  5 active torsions:
REMARK  status: ('A' for Active; 'I' for Inactive)
REMARK    1  A    between atoms: C_3  and  O_22
REMARK    2  A    between atoms: C_4  and  N_19
REMARK    3  A    between atoms: C_6  and  C_7
REMARK    4  A    between atoms: C_8  and  C_9
REMARK    5  A    between atoms: C_9  and  C_11
REMARK                            x       y       z     vdW  Elec       q    Type
REMARK                         _______ _______ _______ _____ _____    ______ ____
ROOT
ATOM      1  C   UNL     1      -1.258  -0.758   0.011  0.00  0.00    +0.012 C 
ATOM      2  C   UNL     1      -2.440  -0.101   0.026  0.00  0.00    +0.052 C 
ENDROOT
BRANCH   1   8
ATOM      3  C   UNL     1      -0.017   1.396   0.010  0.00  0.00    +0.011 A 
ATOM      4  C   UNL     1       1.167   2.098   0.002  0.00  0.00    +0.048 A 
ATOM      5  C   UNL     1       2.380   1.419  -0.013  0.00  0.00    +0.147 A 
ATOM      6  C   UNL     1       2.405   0.029  -0.021  0.00  0.00    +0.168 A 
ATOM      7  C   UNL     1       1.227  -0.683  -0.013  0.00  0.00    +0.044 A 
ATOM      8  C   UNL     1       0.002  -0.004   0.002  0.00  0.00    -0.023 A 
BRANCH   6   9
ATOM      9  N   UNL     1       3.700  -0.687  -0.037  0.00  0.00    +0.060 N 
ATOM     10  O   UNL     1       3.723  -1.896  -0.044  0.00  0.00    -0.126 OA
ATOM     11  O   UNL     1       4.736  -0.063  -0.044  0.00  0.00    -0.126 OA
ENDBRANCH   6   9
BRANCH   5  12
ATOM     12  O   UNL     1       3.545   2.116  -0.021  0.00  0.00    -0.504 OA
ATOM     13  H   UNL     1       3.891   2.314   0.860  0.00  0.00    +0.292 HD
ENDBRANCH   5  12
ENDBRANCH   1   8
BRANCH   2  14
ATOM     14  C   UNL     1      -3.657  -0.829   0.034  0.00  0.00    +0.186 C 
ATOM     15  O   UNL     1      -3.638  -2.046   0.027  0.00  0.00    -0.287 OA
BRANCH  14  16
ATOM     16  C   UNL     1      -4.948  -0.110   0.051  0.00  0.00    +0.025 A 
ATOM     17  C   UNL     1      -4.973   1.287   0.053  0.00  0.00    +0.014 A 
ATOM     18  C   UNL     1      -6.179   1.953   0.068  0.00  0.00    +0.042 A 
ATOM     19  C   UNL     1      -7.368   1.241   0.082  0.00  0.00    +0.158 A 
ATOM     20  C   UNL     1      -7.351  -0.148   0.081  0.00  0.00    +0.159 A 
ATOM     21  C   UNL     1      -6.148  -0.825   0.059  0.00  0.00    +0.053 A 
ATOM     22  F   UNL     1      -8.512  -0.837   0.095  0.00  0.00    -0.202 F 
ATOM     23  F   UNL     1      -8.547   1.899   0.098  0.00  0.00    -0.202 F 
ENDBRANCH  14  16
ENDBRANCH   2  14
TORSDOF 5
