REMARK  Name = ZINC39015529
REMARK  8 active torsions:
REMARK  status: ('A' for Active; 'I' for Inactive)
REMARK    1  A    between atoms: C_1  and  C_2
REMARK    2  A    between atoms: C_5  and  C_29
REMARK    3  A    between atoms: C_6  and  N_8
REMARK    4  A    between atoms: C_9  and  C_11
REMARK    5  A    between atoms: C_11  and  S_12
REMARK    6  A    between atoms: S_12  and  C_13
REMARK    7  A    between atoms: C_16  and  C_20
REMARK    8  A    between atoms: N_18  and  N_19
REMARK                            x       y       z     vdW  Elec       q    Type
REMARK                         _______ _______ _______ _____ _____    ______ ____
ROOT
ATOM      1  C   UNL     1       0.537  -2.770   7.657  0.00  0.00    +0.189 C 
ATOM      2  N   UNL     1       0.556  -4.059   7.611  0.00  0.00    -0.161 NA
ATOM      3  N   UNL     1       0.681  -4.616   8.890  0.00  0.00    -0.243 N 
ATOM      4  C   UNL     1       0.744  -3.481   9.827  0.00  0.00    +0.222 C 
ATOM      5  N   UNL     1       0.649  -2.297   8.956  0.00  0.00    -0.223 N 
ATOM      6  H   UNL     1       0.718  -5.559   9.114  0.00  0.00    +0.170 HD
ENDROOT
BRANCH   4   7
ATOM      7  C   UNL     1      -0.429  -3.530  10.808  0.00  0.00    +0.197 C 
ATOM      8  C   UNL     1      -0.348  -4.766  11.680  0.00  0.00    -0.017 C 
ATOM      9  C   UNL     1      -1.456  -5.451  11.402  0.00  0.00    +0.065 C 
ATOM     10  C   UNL     1      -1.493  -6.727  12.223  0.00  0.00    +0.057 C 
ATOM     11  C   UNL     1      -0.044  -6.928  12.721  0.00  0.00    +0.011 C 
ATOM     12  C   UNL     1       0.495  -5.479  12.706  0.00  0.00    +0.035 C 
ATOM     13  N   UNL     1      -2.192  -4.783  10.472  0.00  0.00    -0.158 NA
ATOM     14  N   UNL     1      -1.702  -3.715  10.091  0.00  0.00    -0.176 NA
ENDBRANCH   4   7
BRANCH   5  15
ATOM     15  N   UNL     1       0.667  -0.990   9.351  0.00  0.00    -0.250 NA
ATOM     16  H   UNL     1       0.585  -0.372   8.557  0.00  0.00    +0.141 HD
ATOM     17  H   UNL     1      -0.058  -0.807  10.028  0.00  0.00    +0.141 HD
ENDBRANCH   5  15
BRANCH   1  18
ATOM     18  S   UNL     1       0.391  -1.734   6.239  0.00  0.00    -0.078 S 
BRANCH  18  19
ATOM     19  C   UNL     1       0.280  -2.900   4.854  0.00  0.00    +0.173 C 
BRANCH  19  21
ATOM     20  N   UNL     1       0.052  -2.797   2.393  0.00  0.00    -0.285 N 
ATOM     21  C   UNL     1       0.150  -2.135   3.562  0.00  0.00    +0.227 C 
ATOM     22  O   UNL     1       0.134  -0.922   3.575  0.00  0.00    -0.275 OA
ATOM     23  H   UNL     1      -0.016  -3.765   2.388  0.00  0.00    +0.155 HD
BRANCH  20  29
ATOM     24  C   UNL     1       1.264   1.227  -0.158  0.00  0.00    +0.044 C 
ATOM     25  C   UNL     1       0.628  -0.137  -0.079  0.00  0.00    -0.049 A 
ATOM     26  C   UNL     1       0.039  -0.690  -1.201  0.00  0.00    +0.004 A 
ATOM     27  C   UNL     1      -0.546  -1.941  -1.133  0.00  0.00    +0.005 A 
ATOM     28  C   UNL     1      -0.543  -2.643   0.057  0.00  0.00    -0.029 A 
ATOM     29  C   UNL     1       0.048  -2.090   1.185  0.00  0.00    +0.037 A 
ATOM     30  C   UNL     1       0.639  -0.835   1.112  0.00  0.00    +0.027 A 
ATOM     31  C   UNL     1      -1.181  -4.006   0.131  0.00  0.00    +0.045 C 
ENDBRANCH  20  29
ENDBRANCH  19  21
ENDBRANCH  18  19
ENDBRANCH   1  18
TORSDOF 6
