REMARK  Name = ZINC19159269
REMARK  6 active torsions:
REMARK  status: ('A' for Active; 'I' for Inactive)
REMARK    1  A    between atoms: C_1  and  C_2
REMARK    2  A    between atoms: C_5  and  C_7
REMARK    3  A    between atoms: C_7  and  C_8
REMARK    4  A    between atoms: N_10  and  N_11
REMARK    5  A    between atoms: C_12  and  C_13
REMARK    6  A    between atoms: C_16  and  C_18
REMARK                            x       y       z     vdW  Elec       q    Type
REMARK                         _______ _______ _______ _____ _____    ______ ____
ROOT
ATOM      1  N   UNL     1      -2.904  -4.438   4.084  0.00  0.00    -0.185 NA
ATOM      2  C   UNL     1      -3.125  -5.244   5.081  0.00  0.00    +0.176 C 
ENDROOT
BRANCH   2   3
ATOM      3  C   UNL     1      -4.499  -5.570   5.468  0.00  0.00    +0.148 A 
ATOM      4  C   UNL     1      -4.873  -6.401   6.501  0.00  0.00    +0.051 A 
ATOM      5  C   UNL     1      -6.274  -6.427   6.513  0.00  0.00    +0.050 A 
ATOM      6  C   UNL     1      -6.698  -5.621   5.498  0.00  0.00    +0.136 A 
ATOM      7  O   UNL     1      -5.619  -5.105   4.878  0.00  0.00    -0.454 OA
BRANCH   6   8
ATOM      8  C   UNL     1      -8.105  -5.353   5.141  0.00  0.00    +0.017 A 
ATOM      9  C   UNL     1      -9.138  -5.944   5.873  0.00  0.00    +0.014 A 
ATOM     10  C   UNL     1     -10.451  -5.690   5.536  0.00  0.00    +0.039 A 
ATOM     11  C   UNL     1     -10.746  -4.851   4.473  0.00  0.00    +0.123 A 
ATOM     12  C   UNL     1      -9.725  -4.263   3.743  0.00  0.00    +0.039 A 
ATOM     13  C   UNL     1      -8.409  -4.504   4.074  0.00  0.00    +0.014 A 
ATOM     14  F   UNL     1     -12.034  -4.606   4.146  0.00  0.00    -0.205 F 
ENDBRANCH   6   8
ENDBRANCH   2   3
BRANCH   1  17
ATOM     15  C   UNL     1      -1.359  -3.290   2.682  0.00  0.00    +0.239 C 
ATOM     16  O   UNL     1      -2.292  -2.809   2.072  0.00  0.00    -0.274 OA
ATOM     17  N   UNL     1      -1.589  -4.126   3.714  0.00  0.00    -0.207 N 
ATOM     18  H   UNL     1      -0.844  -4.511   4.201  0.00  0.00    +0.177 HD
BRANCH  15  19
ATOM     19  C   UNL     1       0.055  -2.955   2.284  0.00  0.00    +0.160 C 
BRANCH  19  24
ATOM     20  C   UNL     1      -0.018   1.503   0.010  0.00  0.00    +0.066 C 
ATOM     21  C   UNL     1       0.002  -0.004   0.002  0.00  0.00    +0.046 A 
ATOM     22  C   UNL     1       0.006  -0.708  -1.159  0.00  0.00    +0.070 A 
ATOM     23  S   UNL     1       0.032  -2.379  -0.531  0.00  0.00    -0.080 S 
ATOM     24  C   UNL     1       0.036  -2.009   1.111  0.00  0.00    +0.087 A 
ATOM     25  N   UNL     1       0.023  -0.699   1.122  0.00  0.00    -0.249 NA
ENDBRANCH  19  24
ENDBRANCH  15  19
ENDBRANCH   1  17
TORSDOF 5
