REMARK  Name = ZINC40371570
REMARK  5 active torsions:
REMARK  status: ('A' for Active; 'I' for Inactive)
REMARK    1  A    between atoms: C_1  and  C_2
REMARK    2  A    between atoms: C_3  and  C_7
REMARK    3  A    between atoms: N_9  and  C_10
REMARK    4  A    between atoms: C_10  and  C_18
REMARK    5  A    between atoms: N_19  and  O_20
REMARK                            x       y       z     vdW  Elec       q    Type
REMARK                         _______ _______ _______ _____ _____    ______ ____
ROOT
ATOM      1  C   UNL     1      -4.861  -0.835  -0.032  0.00  0.00    +0.093 C 
ATOM      2  C   UNL     1      -4.918   0.224   1.065  0.00  0.00    +0.033 C 
ATOM      3  C   UNL     1      -5.965  -0.076   2.139  0.00  0.00    +0.002 C 
ATOM      4  C   UNL     1      -5.245  -0.652   3.373  0.00  0.00    +0.000 C 
ATOM      5  C   UNL     1      -4.795  -2.079   3.074  0.00  0.00    +0.000 C 
ATOM      6  C   UNL     1      -5.903  -2.859   2.380  0.00  0.00    +0.000 C 
ATOM      7  C   UNL     1      -5.553  -3.093   0.915  0.00  0.00    +0.002 C 
ATOM      8  C   UNL     1      -5.939  -1.895   0.060  0.00  0.00    +0.033 C 
ENDROOT
BRANCH   1   9
ATOM      9  C   UNL     1      -5.027  -0.116  -1.365  0.00  0.00    +0.155 C 
ATOM     10  N   UNL     1      -6.035  -0.389  -2.125  0.00  0.00    -0.075 NA
ATOM     11  N   UNL     1      -4.102   0.825  -1.759  0.00  0.00    -0.342 N 
ATOM     12  H   UNL     1      -3.386   1.083  -1.158  0.00  0.00    +0.144 HD
ATOM     13  H   UNL     1      -4.167   1.230  -2.639  0.00  0.00    +0.144 HD
BRANCH  10  14
ATOM     14  O   UNL     1      -6.189   0.279  -3.364  0.00  0.00    -0.408 OA
ATOM     15  H   UNL     1      -6.973   0.009  -3.862  0.00  0.00    +0.328 HD
ENDBRANCH  10  14
ENDBRANCH   1   9
BRANCH   1  18
ATOM     16  C   UNL     1      -3.151  -2.237  -1.065  0.00  0.00    +0.248 C 
ATOM     17  O   UNL     1      -3.951  -2.522  -1.935  0.00  0.00    -0.270 OA
ATOM     18  N   UNL     1      -3.524  -1.443  -0.041  0.00  0.00    -0.299 N 
ATOM     19  H   UNL     1      -2.909  -1.274   0.690  0.00  0.00    +0.150 HD
BRANCH  16  22
ATOM     20  C   UNL     1      -1.973  -4.098  -3.298  0.00  0.00    +0.087 C 
ATOM     21  C   UNL     1      -1.244  -3.568  -2.091  0.00  0.00    +0.114 A 
ATOM     22  C   UNL     1      -1.775  -2.759  -1.129  0.00  0.00    +0.077 A 
ATOM     23  C   UNL     1      -0.686  -2.517  -0.171  0.00  0.00    +0.054 A 
ATOM     24  C   UNL     1       0.375  -3.190  -0.639  0.00  0.00    +0.196 A 
ATOM     25  O   UNL     1       0.032  -3.815  -1.777  0.00  0.00    -0.467 OA
ENDBRANCH  16  22
ENDBRANCH   1  18
TORSDOF 4
