REMARK  Name = ZINC22292488
REMARK  8 active torsions:
REMARK  status: ('A' for Active; 'I' for Inactive)
REMARK    1  A    between atoms: C_1  and  C_2
REMARK    2  A    between atoms: N_5  and  C_8
REMARK    3  A    between atoms: C_8  and  C_9
REMARK    4  A    between atoms: N_14  and  C_15
REMARK    5  A    between atoms: C_15  and  C_17
REMARK    6  A    between atoms: C_20  and  C_23
REMARK    7  A    between atoms: C_23  and  S_24
REMARK    8  A    between atoms: S_24  and  C_25
REMARK                            x       y       z     vdW  Elec       q    Type
REMARK                         _______ _______ _______ _____ _____    ______ ____
ROOT
ATOM      1  C   UNL     1      -0.034  -4.388   2.671  0.00  0.00    +0.008 A 
ATOM      2  C   UNL     1      -0.664  -5.079   3.628  0.00  0.00    +0.067 A 
ATOM      3  S   UNL     1       0.632  -5.312   4.830  0.00  0.00    -0.061 S 
ATOM      4  C   UNL     1       1.874  -4.513   4.024  0.00  0.00    +0.163 A 
ATOM      5  N   UNL     1       1.280  -4.099   2.872  0.00  0.00    -0.341 N 
ATOM      6  N   UNL     1       3.134  -4.334   4.416  0.00  0.00    -0.152 NA
ATOM      7  H   UNL     1       1.783  -3.604   2.207  0.00  0.00    +0.167 HD
ENDROOT
BRANCH   6   8
ATOM      8  C   UNL     1       3.544  -4.821   5.589  0.00  0.00    +0.269 C 
ATOM      9  O   UNL     1       2.765  -5.431   6.302  0.00  0.00    -0.268 OA
BRANCH   8  10
ATOM     10  C   UNL     1       4.945  -4.622   6.025  0.00  0.00    +0.039 A 
ATOM     11  C   UNL     1       5.838  -3.920   5.215  0.00  0.00    +0.013 A 
ATOM     12  C   UNL     1       7.142  -3.737   5.627  0.00  0.00    +0.005 A 
ATOM     13  C   UNL     1       7.565  -4.249   6.840  0.00  0.00    -0.037 A 
ATOM     14  C   UNL     1       6.685  -4.946   7.648  0.00  0.00    +0.005 A 
ATOM     15  C   UNL     1       5.377  -5.130   7.250  0.00  0.00    +0.013 A 
BRANCH  13  16
ATOM     16  C   UNL     1       8.991  -4.047   7.284  0.00  0.00    +0.112 C 
BRANCH  16  17
ATOM     17  S   UNL     1       9.117  -2.506   8.232  0.00  0.00    -0.082 S 
BRANCH  17  18
ATOM     18  C   UNL     1      10.821  -2.414   8.673  0.00  0.00    +0.184 A 
ATOM     19  N   UNL     1      11.751  -3.291   8.358  0.00  0.00    -0.209 NA
ATOM     20  H   UNL     1      10.974  -0.642   9.755  0.00  0.00    +0.191 HD
ATOM     21  C   UNL     1      12.924  -2.900   8.858  0.00  0.00    +0.245 A 
ATOM     22  N   UNL     1      12.763  -1.772   9.496  0.00  0.00    -0.160 NA
ATOM     23  N   UNL     1      11.406  -1.429   9.387  0.00  0.00    -0.254 N 
ENDBRANCH  17  18
ENDBRANCH  16  17
ENDBRANCH  13  16
ENDBRANCH   8  10
ENDBRANCH   6   8
BRANCH   1  24
ATOM     24  C   UNL     1      -0.750  -3.952   1.419  0.00  0.00    -0.024 C 
BRANCH  24  29
ATOM     25  C   UNL     1      -2.194   1.558   1.146  0.00  0.00    +0.007 C 
ATOM     26  C   UNL     1      -2.248   0.029   1.167  0.00  0.00    -0.018 C 
ATOM     27  C   UNL     1      -1.695  -0.484   2.499  0.00  0.00    -0.016 C 
ATOM     28  C   UNL     1      -1.678  -2.014   2.482  0.00  0.00    -0.078 C 
ATOM     29  N   UNL     1      -0.826  -2.485   1.383  0.00  0.00    +0.383 N 
ATOM     30  C   UNL     1      -1.389  -2.057   0.097  0.00  0.00    -0.078 C 
ATOM     31  C   UNL     1      -1.396  -0.528   0.023  0.00  0.00    -0.016 C 
ATOM     32  H   UNL     1       0.100  -2.100   1.489  0.00  0.00    -0.081 HD
ENDBRANCH  24  29
ENDBRANCH   1  24
TORSDOF 7
