REMARK  Name = ZINC45520977
REMARK  6 active torsions:
REMARK  status: ('A' for Active; 'I' for Inactive)
REMARK    1  A    between atoms: N_12  and  C_16
REMARK    2  A    between atoms: C_16  and  C_17
REMARK    3  A    between atoms: N_19  and  C_20
REMARK    4  A    between atoms: C_23  and  N_26
REMARK    5  A    between atoms: N_29  and  C_30
REMARK    6  A    between atoms: C_30  and  C_31
REMARK                            x       y       z     vdW  Elec       q    Type
REMARK                         _______ _______ _______ _____ _____    ______ ____
ROOT
ATOM      1  C   UNL     1       7.192  -1.986   2.214  0.00  0.00    +0.235 C 
ATOM      2  O   UNL     1       6.848  -2.904   1.500  0.00  0.00    -0.274 OA
ATOM      3  N   UNL     1       8.187  -2.162   3.106  0.00  0.00    -0.284 N 
ATOM      4  H   UNL     1       8.508  -1.410   3.630  0.00  0.00    +0.155 HD
ENDROOT
BRANCH   3   5
ATOM      5  C   UNL     1       8.760  -3.429   3.276  0.00  0.00    +0.034 A 
ATOM      6  C   UNL     1       9.180  -3.837   4.535  0.00  0.00    +0.025 A 
ATOM      7  C   UNL     1       9.744  -5.086   4.703  0.00  0.00    +0.025 A 
ATOM      8  C   UNL     1       9.891  -5.934   3.613  0.00  0.00    +0.035 A 
ATOM      9  C   UNL     1       9.471  -5.525   2.354  0.00  0.00    +0.025 A 
ATOM     10  C   UNL     1       8.901  -4.279   2.187  0.00  0.00    +0.025 A 
BRANCH   8  11
ATOM     11  N   UNL     1      10.464  -7.201   3.783  0.00  0.00    -0.269 N 
ATOM     12  C   UNL     1      11.239  -7.726   2.813  0.00  0.00    +0.304 C 
ATOM     13  O   UNL     1      11.373  -7.138   1.757  0.00  0.00    -0.252 OA
ATOM     14  N   UNL     1      11.865  -8.902   3.014  0.00  0.00    -0.292 N 
ATOM     15  H   UNL     1      10.303  -7.700   4.599  0.00  0.00    +0.156 HD
ATOM     16  H   UNL     1      11.758  -9.371   3.856  0.00  0.00    +0.151 HD
BRANCH  14  17
ATOM     17  C   UNL     1      12.707  -9.473   1.960  0.00  0.00    +0.180 C 
BRANCH  17  18
ATOM     18  C   UNL     1      13.287 -10.781   2.433  0.00  0.00    +0.122 A 
ATOM     19  C   UNL     1      12.727 -11.994   2.271  0.00  0.00    +0.046 A 
ATOM     20  C   UNL     1      13.604 -12.932   2.863  0.00  0.00    +0.041 A 
ATOM     21  C   UNL     1      14.647 -12.236   3.351  0.00  0.00    +0.195 A 
ATOM     22  O   UNL     1      14.452 -10.935   3.083  0.00  0.00    -0.466 OA
ENDBRANCH  17  18
ENDBRANCH  14  17
ENDBRANCH   8  11
ENDBRANCH   3   5
BRANCH   1  23
ATOM     23  C   UNL     1       6.506  -0.649   2.105  0.00  0.00    +0.214 C 
BRANCH  23  35
ATOM     24  C   UNL     1      -0.063   1.332   0.014  0.00  0.00    +0.000 A 
ATOM     25  C   UNL     1       1.126   2.037  -0.008  0.00  0.00    +0.000 A 
ATOM     26  C   UNL     1       2.329   1.359  -0.025  0.00  0.00    +0.006 A 
ATOM     27  C   UNL     1       2.352  -0.026  -0.018  0.00  0.00    -0.012 A 
ATOM     28  C   UNL     1       1.161  -0.731   0.006  0.00  0.00    -0.042 A 
ATOM     29  C   UNL     1      -0.044  -0.049   0.021  0.00  0.00    +0.004 A 
ATOM     30  C   UNL     1       1.446  -2.219   0.015  0.00  0.00    +0.038 C 
ATOM     31  C   UNL     1       2.917  -2.353  -0.438  0.00  0.00    +0.045 C 
ATOM     32  C   UNL     1       3.504  -0.994  -0.035  0.00  0.00    +0.138 C 
ATOM     33  C   UNL     1       4.186  -1.069   1.306  0.00  0.00    +0.251 C 
ATOM     34  O   UNL     1       3.690  -1.381   2.367  0.00  0.00    -0.272 OA
ATOM     35  N   UNL     1       5.469  -0.715   1.072  0.00  0.00    -0.215 N 
ATOM     36  C   UNL     1       5.674  -0.433  -0.221  0.00  0.00    +0.310 C 
ATOM     37  O   UNL     1       6.748  -0.090  -0.676  0.00  0.00    -0.252 OA
ATOM     38  N   UNL     1       4.556  -0.571  -0.961  0.00  0.00    -0.281 N 
ATOM     39  H   UNL     1       4.466  -0.421  -1.915  0.00  0.00    +0.152 HD
ENDBRANCH  23  35
ENDBRANCH   1  23
TORSDOF 6
