REMARK  Name = ZINC16901932
REMARK  5 active torsions:
REMARK  status: ('A' for Active; 'I' for Inactive)
REMARK    1  A    between atoms: C_4  and  N_8
REMARK    2  A    between atoms: N_8  and  C_9
REMARK    3  A    between atoms: N_14  and  C_17
REMARK    4  A    between atoms: C_20  and  O_26
REMARK    5  A    between atoms: C_21  and  C_23
REMARK                            x       y       z     vdW  Elec       q    Type
REMARK                         _______ _______ _______ _____ _____    ______ ____
ROOT
ATOM      1  C   UNL     1       3.856  -1.828   0.377  0.00  0.00    +0.167 C 
ATOM      2  C   UNL     1       4.814  -2.936  -0.107  0.00  0.00    +0.128 C 
ATOM      3  C   UNL     1       5.451  -3.437   1.171  0.00  0.00    +0.228 C 
ATOM      4  O   UNL     1       6.278  -4.320   1.243  0.00  0.00    -0.275 OA
ATOM      5  N   UNL     1       4.957  -2.750   2.208  0.00  0.00    -0.209 N 
ATOM      6  C   UNL     1       4.048  -1.819   1.878  0.00  0.00    +0.247 C 
ATOM      7  O   UNL     1       3.475  -1.086   2.655  0.00  0.00    -0.273 OA
ENDROOT
BRANCH   5   8
ATOM      8  C   UNL     1       5.355  -2.985   3.534  0.00  0.00    +0.045 A 
ATOM      9  C   UNL     1       4.622  -3.856   4.333  0.00  0.00    +0.027 A 
ATOM     10  C   UNL     1       5.005  -4.094   5.638  0.00  0.00    +0.048 A 
ATOM     11  C   UNL     1       6.125  -3.465   6.162  0.00  0.00    +0.131 A 
ATOM     12  C   UNL     1       6.869  -2.585   5.361  0.00  0.00    +0.106 A 
ATOM     13  C   UNL     1       6.477  -2.354   4.038  0.00  0.00    +0.042 A 
BRANCH  12  14
ATOM     14  C   UNL     1       8.058  -1.913   5.909  0.00  0.00    +0.390 C 
ATOM     15  O   UNL     1       8.704  -1.147   5.208  0.00  0.00    -0.240 OA
ATOM     16  O   UNL     1       8.400  -2.121   7.065  0.00  0.00    -0.240 OA
ENDBRANCH  12  14
BRANCH  11  17
ATOM     17  O   UNL     1       6.499  -3.699   7.444  0.00  0.00    -0.506 OA
ATOM     18  H   UNL     1       7.112  -4.440   7.546  0.00  0.00    +0.292 HD
ENDBRANCH  11  17
ENDBRANCH   5   8
BRANCH   1  19
ATOM     19  N   UNL     1       4.230  -0.534  -0.199  0.00  0.00    -0.330 N 
ATOM     20  H   UNL     1       4.872   0.032   0.257  0.00  0.00    +0.147 HD
BRANCH  19  24
ATOM     21  C   UNL     1       2.539   0.713  -3.797  0.00  0.00    +0.003 A 
ATOM     22  C   UNL     1       1.802   0.781  -2.629  0.00  0.00    +0.022 A 
ATOM     23  C   UNL     1       2.360   0.368  -1.433  0.00  0.00    +0.063 A 
ATOM     24  C   UNL     1       3.662  -0.116  -1.407  0.00  0.00    +0.065 A 
ATOM     25  C   UNL     1       4.399  -0.184  -2.583  0.00  0.00    +0.063 A 
ATOM     26  C   UNL     1       3.835   0.231  -3.775  0.00  0.00    +0.022 A 
ATOM     27 CL   UNL     1       6.026  -0.788  -2.556  0.00  0.00    -0.082 Cl
ATOM     28 CL   UNL     1       1.435   0.455   0.033  0.00  0.00    -0.082 Cl
ENDBRANCH  19  24
ENDBRANCH   1  19
TORSDOF 5
