REMARK  Name = ZINC50604384
REMARK  5 active torsions:
REMARK  status: ('A' for Active; 'I' for Inactive)
REMARK    1  A    between atoms: C_7  and  C_9
REMARK    2  A    between atoms: C_9  and  N_10
REMARK    3  A    between atoms: C_11  and  C_13
REMARK    4  A    between atoms: C_13  and  C_19
REMARK    5  A    between atoms: N_20  and  O_21
REMARK                            x       y       z     vdW  Elec       q    Type
REMARK                         _______ _______ _______ _____ _____    ______ ____
ROOT
ATOM      1  C   UNL     1      -2.597  -4.188   0.192  0.00  0.00    +0.109 C 
ATOM      2  C   UNL     1      -2.123  -4.417  -1.246  0.00  0.00    +0.052 C 
ATOM      3  C   UNL     1      -3.136  -3.799  -2.214  0.00  0.00    +0.161 C 
ATOM      4  O   UNL     1      -4.424  -4.376  -1.986  0.00  0.00    -0.380 OA
ATOM      5  C   UNL     1      -4.939  -4.152  -0.671  0.00  0.00    +0.161 C 
ATOM      6  C   UNL     1      -3.998  -4.784   0.358  0.00  0.00    +0.052 C 
ENDROOT
BRANCH   1   7
ATOM      7  C   UNL     1      -1.647  -4.858   1.151  0.00  0.00    +0.147 C 
ATOM      8  N   UNL     1      -1.875  -4.815   2.422  0.00  0.00    -0.076 NA
ATOM      9  N   UNL     1      -0.536  -5.516   0.672  0.00  0.00    -0.343 N 
ATOM     10  H   UNL     1      -0.323  -5.483  -0.274  0.00  0.00    +0.144 HD
ATOM     11  H   UNL     1       0.034  -6.012   1.280  0.00  0.00    +0.144 HD
BRANCH   8  12
ATOM     12  O   UNL     1      -2.948  -4.039   2.923  0.00  0.00    -0.408 OA
ATOM     13  H   UNL     1      -3.039  -4.069   3.885  0.00  0.00    +0.328 HD
ENDBRANCH   8  12
ENDBRANCH   1   7
BRANCH   1  15
ATOM     14  N   UNL     1      -1.552  -1.946   0.259  0.00  0.00    -0.314 N 
ATOM     15  C   UNL     1      -2.642  -2.709   0.478  0.00  0.00    +0.227 C 
ATOM     16  O   UNL     1      -3.659  -2.204   0.905  0.00  0.00    -0.275 OA
ATOM     17  H   UNL     1      -0.719  -2.360  -0.017  0.00  0.00    +0.149 HD
BRANCH  14  18
ATOM     18  C   UNL     1      -1.626  -0.494   0.437  0.00  0.00    +0.109 C 
BRANCH  18  25
ATOM     19  C   UNL     1      -0.374   1.660   0.192  0.00  0.00    +0.029 C 
ATOM     20  C   UNL     1       1.064   2.251   0.187  0.00  0.00    +0.166 C 
ATOM     21  S   UNL     1       1.921   1.062   1.305  0.00  0.00    -0.031 S 
ATOM     22  O   UNL     1       3.174   0.711   0.734  0.00  0.00    -0.174 OA
ATOM     23  O   UNL     1       1.873   1.561   2.634  0.00  0.00    -0.174 OA
ATOM     24  C   UNL     1       0.776  -0.370   1.161  0.00  0.00    +0.171 C 
ATOM     25  C   UNL     1      -0.263   0.128   0.127  0.00  0.00    +0.029 C 
ENDBRANCH  18  25
ENDBRANCH  14  18
ENDBRANCH   1  15
TORSDOF 5
