REMARK  Name = ZINC36936814
REMARK  5 active torsions:
REMARK  status: ('A' for Active; 'I' for Inactive)
REMARK    1  A    between atoms: C_1  and  C_2
REMARK    2  A    between atoms: C_4  and  C_8
REMARK    3  A    between atoms: C_5  and  C_7
REMARK    4  A    between atoms: C_9  and  C_14
REMARK    5  A    between atoms: C_10  and  N_13
REMARK                            x       y       z     vdW  Elec       q    Type
REMARK                         _______ _______ _______ _____ _____    ______ ____
ROOT
ATOM      1  C   UNL     1      -1.372  -3.425  -0.010  0.00  0.00    +0.126 A 
ATOM      2  C   UNL     1      -2.833  -3.522  -0.009  0.00  0.00    +0.071 A 
ATOM      3  C   UNL     1      -3.141  -4.868  -0.012  0.00  0.00    +0.224 A 
ATOM      4  O   UNL     1      -1.988  -5.555  -0.015  0.00  0.00    -0.339 OA
ATOM      5  N   UNL     1      -0.903  -4.650  -0.019  0.00  0.00    -0.075 NA
ENDROOT
BRANCH   1   9
ATOM      6  C   UNL     1      -0.018   1.503   0.010  0.00  0.00    +0.086 C 
ATOM      7  C   UNL     1       0.002  -0.004   0.002  0.00  0.00    +0.103 A 
ATOM      8  C   UNL     1      -1.081  -0.799   0.003  0.00  0.00    +0.054 A 
ATOM      9  C   UNL     1      -0.573  -2.176  -0.007  0.00  0.00    +0.045 A 
ATOM     10  C   UNL     1       0.782  -2.069  -0.013  0.00  0.00    +0.111 A 
ATOM     11  O   UNL     1       1.105  -0.768  -0.013  0.00  0.00    -0.464 OA
ATOM     12  C   UNL     1       1.756  -3.218  -0.024  0.00  0.00    +0.087 C 
ENDBRANCH   1   9
BRANCH   2  13
ATOM     13  C   UNL     1      -3.796  -2.395  -0.006  0.00  0.00    -0.011 A 
ATOM     14  C   UNL     1      -3.857  -1.532   1.087  0.00  0.00    +0.011 A 
ATOM     15  C   UNL     1      -4.754  -0.483   1.086  0.00  0.00    +0.039 A 
ATOM     16  C   UNL     1      -5.593  -0.288   0.001  0.00  0.00    +0.123 A 
ATOM     17  C   UNL     1      -5.536  -1.143  -1.088  0.00  0.00    +0.039 A 
ATOM     18  C   UNL     1      -4.638  -2.191  -1.098  0.00  0.00    +0.011 A 
ATOM     19  F   UNL     1      -6.470   0.740   0.004  0.00  0.00    -0.205 F 
ENDBRANCH   2  13
BRANCH   3  20
ATOM     20  N   UNL     1      -4.409  -5.410  -0.013  0.00  0.00    -0.327 N 
ATOM     21  H   UNL     1      -5.186  -4.829  -0.010  0.00  0.00    +0.145 HD
ATOM     22  H   UNL     1      -4.525  -6.373  -0.015  0.00  0.00    +0.145 HD
ENDBRANCH   3  20
TORSDOF 3
