REMARK  Name = ZINC63985512
REMARK  9 active torsions:
REMARK  status: ('A' for Active; 'I' for Inactive)
REMARK    1  A    between atoms: C_1  and  O_2
REMARK    2  A    between atoms: O_2  and  C_3
REMARK    3  A    between atoms: C_3  and  C_4
REMARK    4  A    between atoms: C_4  and  C_5
REMARK    5  A    between atoms: C_5  and  N_6
REMARK    6  A    between atoms: N_9  and  C_28
REMARK    7  A    between atoms: N_15  and  C_18
REMARK    8  A    between atoms: C_18  and  C_19
REMARK    9  A    between atoms: C_28  and  C_29
REMARK                            x       y       z     vdW  Elec       q    Type
REMARK                         _______ _______ _______ _____ _____    ______ ____
ROOT
ATOM      1  N   UNL     1       1.433  -4.186   2.101  0.00  0.00    -0.271 N 
ATOM      2  C   UNL     1       0.517  -5.079   2.522  0.00  0.00    +0.312 C 
ATOM      3  O   UNL     1      -0.526  -4.773   3.065  0.00  0.00    -0.252 OA
ATOM      4  N   UNL     1       0.885  -6.342   2.275  0.00  0.00    -0.220 N 
ATOM      5  C   UNL     1       2.087  -6.399   1.664  0.00  0.00    +0.247 C 
ATOM      6  O   UNL     1       2.686  -7.393   1.312  0.00  0.00    -0.273 OA
ATOM      7  C   UNL     1       2.526  -4.963   1.503  0.00  0.00    +0.112 C 
ATOM      8  C   UNL     1       3.830  -4.718   2.255  0.00  0.00    +0.017 C 
ATOM      9  C   UNL     1       4.276  -3.269   2.038  0.00  0.00    -0.076 C 
ATOM     10  N   UNL     1       4.460  -3.021   0.603  0.00  0.00    +0.382 N 
ATOM     11  C   UNL     1       3.179  -3.167  -0.099  0.00  0.00    -0.076 C 
ATOM     12  C   UNL     1       2.688  -4.612   0.027  0.00  0.00    +0.017 C 
ATOM     13  H   UNL     1       5.123  -3.684   0.231  0.00  0.00    -0.081 HD
ENDROOT
BRANCH   1  14
ATOM     14  C   UNL     1       1.351  -2.727   2.211  0.00  0.00    +0.112 C 
BRANCH  14  15
ATOM     15  C   UNL     1       1.411  -2.323   3.686  0.00  0.00    +0.047 C 
BRANCH  15  16
ATOM     16  C   UNL     1       1.453  -0.797   3.795  0.00  0.00    +0.161 C 
BRANCH  16  18
ATOM     17  C   UNL     1       1.551   0.992   5.387  0.00  0.00    +0.193 C 
ATOM     18  O   UNL     1       1.509  -0.420   5.172  0.00  0.00    -0.383 OA
ENDBRANCH  16  18
ENDBRANCH  15  16
ENDBRANCH  14  15
ENDBRANCH   1  14
BRANCH  10  19
ATOM     19  C   UNL     1       4.972  -1.659   0.405  0.00  0.00    -0.045 C 
BRANCH  19  20
ATOM     20  C   UNL     1       5.278  -1.444  -1.055  0.00  0.00    -0.058 C 
ATOM     21  C   UNL     1       4.469  -0.881  -1.982  0.00  0.00    -0.003 A 
ATOM     22  C   UNL     1       3.113  -0.323  -1.910  0.00  0.00    +0.010 A 
ATOM     23  C   UNL     1       2.551   0.181  -3.032  0.00  0.00    +0.001 A 
ATOM     24  C   UNL     1       3.229   0.182  -4.259  0.00  0.00    +0.002 A 
ATOM     25  C   UNL     1       4.476  -0.314  -4.404  0.00  0.00    +0.026 A 
ATOM     26  C   UNL     1       5.163  -0.868  -3.289  0.00  0.00    +0.043 A 
ATOM     27  N   UNL     1       6.355  -1.402  -3.175  0.00  0.00    -0.380 N 
ATOM     28  C   UNL     1       6.554  -1.809  -1.780  0.00  0.00    +0.142 C 
ATOM     29  H   UNL     1       6.999  -1.506  -3.893  0.00  0.00    +0.160 HD
ENDBRANCH  19  20
ENDBRANCH  10  19
BRANCH   4  30
ATOM     30  C   UNL     1       0.083  -7.517   2.626  0.00  0.00    +0.153 C 
BRANCH  30  31
ATOM     31  C   UNL     1      -0.833  -7.860   1.479  0.00  0.00    -0.030 A 
ATOM     32  C   UNL     1      -2.095  -7.299   1.411  0.00  0.00    +0.005 A 
ATOM     33  C   UNL     1      -2.935  -7.614   0.360  0.00  0.00    +0.000 A 
ATOM     34  C   UNL     1      -2.514  -8.489  -0.624  0.00  0.00    +0.000 A 
ATOM     35  C   UNL     1      -1.251  -9.048  -0.557  0.00  0.00    +0.000 A 
ATOM     36  C   UNL     1      -0.409  -8.731   0.493  0.00  0.00    +0.005 A 
ENDBRANCH  30  31
ENDBRANCH   4  30
TORSDOF 8
