REMARK  Name = ZINC17115230
REMARK  2 active torsions:
REMARK  status: ('A' for Active; 'I' for Inactive)
REMARK    1  A    between atoms: C_9  and  C_13
REMARK    2  A    between atoms: N_15  and  N_16
REMARK                            x       y       z     vdW  Elec       q    Type
REMARK                         _______ _______ _______ _____ _____    ______ ____
ROOT
ATOM      1  C   UNL     1       6.166  -0.499   0.067  0.00  0.00    +0.236 C 
ATOM      2  O   UNL     1       6.185  -1.597  -0.447  0.00  0.00    -0.274 OA
ATOM      3  N   UNL     1       7.323   0.127   0.362  0.00  0.00    -0.223 N 
ATOM      4  H   UNL     1       7.308   1.006   0.773  0.00  0.00    +0.174 HD
ENDROOT
BRANCH   3   5
ATOM      5  N   UNL     1       8.547  -0.492   0.076  0.00  0.00    -0.137 N 
ATOM      6  C   UNL     1       9.345  -1.059   1.004  0.00  0.00    +0.263 C 
ATOM      7  O   UNL     1       9.147  -1.129   2.198  0.00  0.00    -0.271 OA
ATOM      8  C   UNL     1      10.536  -1.591   0.241  0.00  0.00    +0.114 C 
ATOM      9  C   UNL     1      11.817  -0.915   0.718  0.00  0.00    +0.035 C 
ATOM     10  C   UNL     1      13.007  -1.445  -0.087  0.00  0.00    +0.003 C 
ATOM     11  C   UNL     1      13.110  -2.961   0.096  0.00  0.00    +0.000 C 
ATOM     12  C   UNL     1      11.828  -3.626  -0.408  0.00  0.00    +0.003 C 
ATOM     13  C   UNL     1      10.634  -3.105   0.396  0.00  0.00    +0.035 C 
ATOM     14  N   UNL     1      10.254  -1.233  -1.155  0.00  0.00    -0.284 N 
ATOM     15  C   UNL     1       9.067  -0.598  -1.153  0.00  0.00    +0.326 C 
ATOM     16  O   UNL     1       8.529  -0.167  -2.154  0.00  0.00    -0.251 OA
ATOM     17  H   UNL     1      10.812  -1.421  -1.926  0.00  0.00    +0.151 HD
ENDBRANCH   3   5
BRANCH   1  26
ATOM     18  C   UNL     1      -0.017   1.379   0.010  0.00  0.00    +0.023 A 
ATOM     19  C   UNL     1       1.170   2.084   0.002  0.00  0.00    +0.047 A 
ATOM     20  C   UNL     1       2.386   1.409  -0.014  0.00  0.00    +0.124 A 
ATOM     21  C   UNL     1       2.402   0.025  -0.026  0.00  0.00    -0.004 A 
ATOM     22  C   UNL     1       1.209  -0.678  -0.015  0.00  0.00    +0.027 A 
ATOM     23  C   UNL     1       0.002  -0.004   0.002  0.00  0.00    +0.041 A 
ATOM     24 CL   UNL     1      -1.489  -0.893   0.015  0.00  0.00    -0.084 Cl
ATOM     25  C   UNL     1       3.698  -0.745  -0.055  0.00  0.00    +0.055 C 
ATOM     26  C   UNL     1       4.849   0.167   0.374  0.00  0.00    +0.118 C 
ATOM     27  C   UNL     1       4.739   1.483  -0.406  0.00  0.00    +0.242 C 
ATOM     28  O   UNL     1       3.532   2.138  -0.016  0.00  0.00    -0.491 OA
ENDBRANCH   1  26
TORSDOF 2
