REMARK  Name = ZINC61963402
REMARK  6 active torsions:
REMARK  status: ('A' for Active; 'I' for Inactive)
REMARK    1  A    between atoms: C_5  and  C_7
REMARK    2  A    between atoms: C_7  and  C_8
REMARK    3  A    between atoms: C_7  and  O_26
REMARK    4  A    between atoms: C_8  and  N_9
REMARK    5  A    between atoms: N_12  and  C_13
REMARK    6  A    between atoms: C_13  and  C_14
REMARK                            x       y       z     vdW  Elec       q    Type
REMARK                         _______ _______ _______ _____ _____    ______ ____
ROOT
ATOM      1  N   UNL     1       1.366  -4.151  -1.472  0.00  0.00    -0.297 N 
ATOM      2  C   UNL     1       1.466  -4.817  -2.639  0.00  0.00    +0.300 C 
ATOM      3  O   UNL     1       1.539  -4.202  -3.686  0.00  0.00    -0.253 OA
ATOM      4  N   UNL     1       1.484  -6.165  -2.647  0.00  0.00    -0.295 N 
ATOM      5  H   UNL     1       1.308  -4.642  -0.637  0.00  0.00    +0.150 HD
ATOM      6  H   UNL     1       1.425  -6.655  -1.812  0.00  0.00    +0.151 HD
ENDROOT
BRANCH   1   7
ATOM      7  C   UNL     1       1.347  -2.686  -1.463  0.00  0.00    +0.142 C 
BRANCH   7   8
ATOM      8  C   UNL     1       1.228  -2.186  -0.022  0.00  0.00    +0.164 C 
BRANCH   8  13
ATOM      9  C   UNL     1      -0.017   1.378   0.010  0.00  0.00    +0.001 A 
ATOM     10  C   UNL     1       1.171   2.087   0.002  0.00  0.00    +0.003 A 
ATOM     11  C   UNL     1       2.377   1.414  -0.013  0.00  0.00    +0.039 A 
ATOM     12  C   UNL     1       2.397   0.029  -0.021  0.00  0.00    +0.129 A 
ATOM     13  C   UNL     1       1.208  -0.679  -0.013  0.00  0.00    +0.018 A 
ATOM     14  C   UNL     1       0.002  -0.004   0.002  0.00  0.00    +0.009 A 
ATOM     15  F   UNL     1       3.577  -0.630  -0.036  0.00  0.00    -0.205 F 
ENDBRANCH   8  13
BRANCH   8  16
ATOM     16  O   UNL     1       0.019  -2.682   0.556  0.00  0.00    -0.386 OA
ATOM     17  H   UNL     1      -0.782  -2.405   0.091  0.00  0.00    +0.210 HD
ENDBRANCH   8  16
ENDBRANCH   7   8
ENDBRANCH   1   7
BRANCH   4  18
ATOM     18  C   UNL     1       1.591  -6.888  -3.916  0.00  0.00    +0.141 C 
BRANCH  18  19
ATOM     19  C   UNL     1       1.590  -8.372  -3.650  0.00  0.00    -0.025 A 
ATOM     20  C   UNL     1       2.785  -9.034  -3.430  0.00  0.00    +0.054 A 
ATOM     21  C   UNL     1       2.780 -10.397  -3.185  0.00  0.00    +0.164 A 
ATOM     22  C   UNL     1       1.581 -11.094  -3.162  0.00  0.00    +0.180 A 
ATOM     23  C   UNL     1       0.386 -10.429  -3.382  0.00  0.00    +0.086 A 
ATOM     24  C   UNL     1       0.395  -9.065  -3.622  0.00  0.00    +0.029 A 
ATOM     25 CL   UNL     1      -1.116 -11.300  -3.353  0.00  0.00    -0.080 Cl
ATOM     26  O   UNL     1       1.587 -12.438  -2.919  0.00  0.00    -0.487 OA
ATOM     27  C   UNL     1       2.163 -13.254  -3.941  0.00  0.00    +0.232 C 
ATOM     28  C   UNL     1       3.673 -13.332  -3.781  0.00  0.00    +0.082 C 
ATOM     29  C   UNL     1       4.346 -11.983  -3.984  0.00  0.00    +0.232 C 
ATOM     30  O   UNL     1       3.951 -11.061  -2.966  0.00  0.00    -0.488 OA
ENDBRANCH  18  19
ENDBRANCH   4  18
TORSDOF 6
