REMARK  Name = ZINC34792493
REMARK  10 active torsions:
REMARK  status: ('A' for Active; 'I' for Inactive)
REMARK    1  A    between atoms: C_1  and  C_2
REMARK    2  A    between atoms: C_7  and  C_10
REMARK    3  A    between atoms: C_11  and  C_13
REMARK    4  A    between atoms: C_13  and  N_14
REMARK    5  A    between atoms: C_20  and  C_27
REMARK    6  A    between atoms: N_25  and  C_26
REMARK    7  A    between atoms: C_30  and  C_33
REMARK    8  A    between atoms: C_33  and  C_34
REMARK    9  A    between atoms: C_33  and  C_35
REMARK   10  A    between atoms: C_33  and  C_36
REMARK                            x       y       z     vdW  Elec       q    Type
REMARK                         _______ _______ _______ _____ _____    ______ ____
ROOT
ATOM      1  N   UNL     1       0.232  -4.926  -3.240  0.00  0.00    -0.283 N 
ATOM      2  C   UNL     1      -1.135  -5.408  -3.493  0.00  0.00    +0.160 C 
ATOM      3  C   UNL     1      -1.087  -6.002  -4.882  0.00  0.00    +0.042 C 
ATOM      4  C   UNL     1       0.180  -5.848  -5.317  0.00  0.00    +0.058 C 
ATOM      5  C   UNL     1       0.960  -5.202  -4.337  0.00  0.00    +0.247 C 
ATOM      6  O   UNL     1       2.140  -4.931  -4.465  0.00  0.00    -0.270 OA
ATOM      7  C   UNL     1       0.517  -6.362  -6.703  0.00  0.00    +0.142 C 
ATOM      8  N   UNL     1      -0.575  -6.992  -7.464  0.00  0.00    -0.288 N 
ATOM      9  C   UNL     1      -1.793  -7.073  -6.892  0.00  0.00    +0.307 C 
ATOM     10  O   UNL     1      -2.701  -7.592  -7.512  0.00  0.00    -0.252 OA
ATOM     11  N   UNL     1      -2.035  -6.601  -5.662  0.00  0.00    -0.260 N 
ATOM     12  C   UNL     1      -3.391  -6.735  -5.123  0.00  0.00    +0.139 C 
ATOM     13  H   UNL     1      -0.422  -7.340  -8.356  0.00  0.00    +0.151 HD
ENDROOT
BRANCH   7  14
ATOM     14  C   UNL     1       1.040  -5.205  -7.513  0.00  0.00    -0.023 A 
ATOM     15  C   UNL     1       0.159  -4.300  -8.075  0.00  0.00    +0.006 A 
ATOM     16  C   UNL     1       0.638  -3.238  -8.819  0.00  0.00    +0.004 A 
ATOM     17  C   UNL     1       2.000  -3.081  -9.001  0.00  0.00    -0.042 A 
ATOM     18  C   UNL     1       2.881  -3.985  -8.439  0.00  0.00    +0.004 A 
ATOM     19  C   UNL     1       2.402  -5.045  -7.691  0.00  0.00    +0.006 A 
BRANCH  17  20
ATOM     20  C   UNL     1       2.523  -1.924  -9.812  0.00  0.00    -0.013 C 
ATOM     21  C   UNL     1       2.082  -0.608  -9.168  0.00  0.00    +0.015 C 
ATOM     22  C   UNL     1       4.051  -1.982  -9.858  0.00  0.00    +0.015 C 
ATOM     23  C   UNL     1       1.966  -2.006 -11.235  0.00  0.00    +0.015 C 
ENDBRANCH  17  20
ENDBRANCH   7  14
BRANCH   1  24
ATOM     24  C   UNL     1       0.709  -4.264  -2.023  0.00  0.00    +0.204 C 
BRANCH  24  33
ATOM     25  C   UNL     1      -0.019   1.526   0.010  0.00  0.00    +0.039 C 
ATOM     26  C   UNL     1       0.002  -0.004   0.002  0.00  0.00    +0.133 C 
ATOM     27  C   UNL     1       0.722  -0.499  -1.258  0.00  0.00    +0.139 C 
ATOM     28  N   UNL     1       0.894  -1.957  -1.151  0.00  0.00    -0.295 N 
ATOM     29  C   UNL     1       1.483  -2.495   0.085  0.00  0.00    +0.139 C 
ATOM     30  C   UNL     1       0.726  -1.903   1.280  0.00  0.00    +0.133 C 
ATOM     31  O   UNL     1       0.695  -0.479   1.159  0.00  0.00    -0.371 OA
ATOM     32  C   UNL     1       1.436  -2.291   2.578  0.00  0.00    +0.039 C 
ATOM     33  C   UNL     1       0.523  -2.775  -2.156  0.00  0.00    +0.233 C 
ATOM     34  O   UNL     1       0.039  -2.312  -3.167  0.00  0.00    -0.274 OA
ENDBRANCH  24  33
ENDBRANCH   1  24
TORSDOF 4
