REMARK  Name = ZINC36701661
REMARK  8 active torsions:
REMARK  status: ('A' for Active; 'I' for Inactive)
REMARK    1  A    between atoms: C_1  and  C_2
REMARK    2  A    between atoms: C_2  and  O_3
REMARK    3  A    between atoms: O_3  and  C_4
REMARK    4  A    between atoms: C_6  and  C_11
REMARK    5  A    between atoms: C_9  and  O_10
REMARK    6  A    between atoms: C_13  and  C_24
REMARK    7  A    between atoms: C_15  and  C_23
REMARK    8  A    between atoms: N_26  and  C_27
REMARK                            x       y       z     vdW  Elec       q    Type
REMARK                         _______ _______ _______ _____ _____    ______ ____
ROOT
ATOM      1  C   UNL     1       0.690  -4.197   1.934  0.00  0.00    +0.154 C 
ATOM      2  C   UNL     1       0.630  -5.614   1.350  0.00  0.00    +0.124 C 
ATOM      3  C   UNL     1       0.847  -5.559  -0.166  0.00  0.00    +0.084 C 
ATOM      4  N   UNL     1      -0.249  -4.777  -0.771  0.00  0.00    -0.310 N 
ATOM      5  C   UNL     1      -0.604  -3.608  -0.112  0.00  0.00    +0.214 A 
ATOM      6  N   UNL     1      -0.173  -3.321   1.142  0.00  0.00    -0.225 N 
ATOM      7  N   UNL     1      -0.715  -2.080   1.477  0.00  0.00    -0.156 NA
ATOM      8  C   UNL     1      -1.422  -1.686   0.447  0.00  0.00    +0.247 A 
ATOM      9  N   UNL     1      -1.356  -2.619  -0.515  0.00  0.00    -0.202 NA
ATOM     10  C   UNL     1       2.189  -4.889  -0.469  0.00  0.00    +0.028 C 
ATOM     11  H   UNL     1      -0.695  -5.064  -1.583  0.00  0.00    +0.149 HD
ENDROOT
BRANCH   1  14
ATOM     12  C   UNL     1       0.692  -4.207   5.712  0.00  0.00    +0.162 A 
ATOM     13  C   UNL     1       1.129  -4.187   4.397  0.00  0.00    +0.055 A 
ATOM     14  C   UNL     1       0.213  -4.219   3.363  0.00  0.00    -0.019 A 
ATOM     15  C   UNL     1      -1.141  -4.271   3.637  0.00  0.00    +0.009 A 
ATOM     16  C   UNL     1      -1.585  -4.291   4.947  0.00  0.00    +0.049 A 
ATOM     17  C   UNL     1      -0.670  -4.265   5.988  0.00  0.00    +0.158 A 
BRANCH  17  18
ATOM     18  O   UNL     1      -1.104  -4.291   7.276  0.00  0.00    -0.503 OA
ATOM     19  H   UNL     1      -1.266  -3.416   7.654  0.00  0.00    +0.292 HD
ENDBRANCH  17  18
BRANCH  12  20
ATOM     20  O   UNL     1       1.593  -4.176   6.730  0.00  0.00    -0.489 OA
BRANCH  20  22
ATOM     21  C   UNL     1       3.830  -4.089   7.641  0.00  0.00    +0.048 C 
ATOM     22  C   UNL     1       2.975  -4.117   6.372  0.00  0.00    +0.226 C 
ENDBRANCH  20  22
ENDBRANCH  12  20
ENDBRANCH   1  14
BRANCH   2  23
ATOM     23  C   UNL     1      -0.719  -6.220   1.641  0.00  0.00    +0.224 C 
ATOM     24  O   UNL     1      -1.668  -5.954   0.934  0.00  0.00    -0.275 OA
ATOM     25  N   UNL     1      -0.871  -7.057   2.686  0.00  0.00    -0.285 N 
ATOM     26  H   UNL     1      -0.137  -7.199   3.304  0.00  0.00    +0.155 HD
BRANCH  25  27
ATOM     27  C   UNL     1      -2.087  -7.721   2.880  0.00  0.00    +0.033 A 
ATOM     28  C   UNL     1      -2.554  -7.958   4.166  0.00  0.00    +0.025 A 
ATOM     29  C   UNL     1      -3.754  -8.614   4.354  0.00  0.00    +0.022 A 
ATOM     30  C   UNL     1      -4.493  -9.035   3.262  0.00  0.00    +0.041 A 
ATOM     31  C   UNL     1      -4.031  -8.800   1.979  0.00  0.00    +0.022 A 
ATOM     32  C   UNL     1      -2.833  -8.139   1.785  0.00  0.00    +0.025 A 
ATOM     33 CL   UNL     1      -6.002  -9.859   3.502  0.00  0.00    -0.084 Cl
ENDBRANCH  25  27
ENDBRANCH   2  23
TORSDOF 6
