REMARK  Name = ZINC44010651
REMARK  7 active torsions:
REMARK  status: ('A' for Active; 'I' for Inactive)
REMARK    1  A    between atoms: C_1  and  C_2
REMARK    2  A    between atoms: C_2  and  C_4
REMARK    3  A    between atoms: C_2  and  N_17
REMARK    4  A    between atoms: C_7  and  N_10
REMARK    5  A    between atoms: N_13  and  C_14
REMARK    6  A    between atoms: C_18  and  C_19
REMARK    7  A    between atoms: C_21  and  N_26
REMARK                            x       y       z     vdW  Elec       q    Type
REMARK                         _______ _______ _______ _____ _____    ______ ____
ROOT
ATOM      1  C   UNL     1      -0.127   1.267  -0.457  0.00  0.00    +0.035 C 
ATOM      2  C   UNL     1       0.310  -0.194  -0.332  0.00  0.00    +0.106 C 
ENDROOT
BRANCH   2   3
ATOM      3  C   UNL     1       1.119  -0.582  -1.543  0.00  0.00    -0.025 A 
ATOM      4  C   UNL     1       2.454  -0.230  -1.622  0.00  0.00    +0.007 A 
ATOM      5  C   UNL     1       3.199  -0.583  -2.730  0.00  0.00    +0.024 A 
ATOM      6  C   UNL     1       2.606  -1.293  -3.765  0.00  0.00    +0.035 A 
ATOM      7  C   UNL     1       1.265  -1.645  -3.683  0.00  0.00    +0.024 A 
ATOM      8  C   UNL     1       0.527  -1.293  -2.570  0.00  0.00    +0.007 A 
BRANCH   6   9
ATOM      9  N   UNL     1       3.357  -1.653  -4.890  0.00  0.00    -0.269 N 
ATOM     10  C   UNL     1       4.669  -1.933  -4.762  0.00  0.00    +0.304 C 
ATOM     11  O   UNL     1       5.177  -1.976  -3.658  0.00  0.00    -0.253 OA
ATOM     12  N   UNL     1       5.418  -2.167  -5.858  0.00  0.00    -0.296 N 
ATOM     13  H   UNL     1       2.934  -1.700  -5.761  0.00  0.00    +0.156 HD
ATOM     14  H   UNL     1       5.013  -2.133  -6.739  0.00  0.00    +0.151 HD
BRANCH  12  15
ATOM     15  C   UNL     1       6.844  -2.472  -5.719  0.00  0.00    +0.075 C 
ATOM     16  C   UNL     1       7.811  -1.785  -6.685  0.00  0.00    +0.024 C 
ATOM     17  C   UNL     1       7.507  -3.277  -6.839  0.00  0.00    +0.024 C 
ENDBRANCH  12  15
ENDBRANCH   6   9
ENDBRANCH   2   3
BRANCH   2  18
ATOM     18  N   UNL     1       1.126  -0.358   0.874  0.00  0.00    -0.383 N 
ATOM     19  C   UNL     1       0.732  -1.200   1.840  0.00  0.00    +0.090 C 
ATOM     20  H   UNL     1       1.951   0.143   0.973  0.00  0.00    +0.160 HD
BRANCH  19  21
ATOM     21  C   UNL     1       1.572  -1.458   2.927  0.00  0.00    +0.039 A 
ATOM     22  C   UNL     1       1.129  -2.249   4.010  0.00  0.00    +0.045 A 
ATOM     23  C   UNL     1       1.960  -2.488   5.058  0.00  0.00    +0.127 A 
ATOM     24  C   UNL     1       3.251  -1.968   5.096  0.00  0.00    +0.036 A 
ATOM     25  C   UNL     1       3.739  -1.198   4.085  0.00  0.00    +0.054 A 
ATOM     26  C   UNL     1       2.936  -0.916   2.967  0.00  0.00    +0.188 A 
ATOM     27  O   UNL     1       3.363  -0.230   2.048  0.00  0.00    -0.287 OA
BRANCH  23  28
ATOM     28  N   UNL     1       1.482  -3.320   6.185  0.00  0.00    +0.056 N 
ATOM     29  O   UNL     1       0.363  -3.778   6.167  0.00  0.00    -0.126 OA
ATOM     30  O   UNL     1       2.210  -3.541   7.125  0.00  0.00    -0.126 OA
ENDBRANCH  23  28
ENDBRANCH  19  21
ENDBRANCH   2  18
TORSDOF 6
