REMARK  Name = ZINC59381747
REMARK  4 active torsions:
REMARK  status: ('A' for Active; 'I' for Inactive)
REMARK    1  A    between atoms: C_4  and  O_22
REMARK    2  A    between atoms: C_5  and  C_7
REMARK    3  A    between atoms: C_10  and  C_14
REMARK    4  A    between atoms: C_10  and  O_21
REMARK                            x       y       z     vdW  Elec       q    Type
REMARK                         _______ _______ _______ _____ _____    ______ ____
ROOT
ATOM      1  C   UNL     1       1.250  -2.159  -0.023  0.00  0.00    +0.272 C 
ATOM      2  O   UNL     1       2.309  -2.747  -0.131  0.00  0.00    -0.268 OA
ATOM      3  N   UNL     1       0.101  -2.855   0.086  0.00  0.00    -0.153 N 
ATOM      4  C   UNL     1      -0.008  -4.319   0.201  0.00  0.00    +0.187 C 
ATOM      5  C   UNL     1      -1.529  -4.554   0.295  0.00  0.00    +0.111 C 
ATOM      6  C   UNL     1      -2.115  -3.162   0.220  0.00  0.00    +0.108 C 
ATOM      7  N   UNL     1      -1.180  -2.308   0.116  0.00  0.00    -0.187 NA
ENDROOT
BRANCH   4   8
ATOM      8  C   UNL     1       0.560  -4.992  -1.022  0.00  0.00    +0.005 A 
ATOM      9  C   UNL     1       1.002  -6.300  -0.948  0.00  0.00    +0.008 A 
ATOM     10  C   UNL     1       1.523  -6.917  -2.069  0.00  0.00    +0.001 A 
ATOM     11  C   UNL     1       1.602  -6.228  -3.265  0.00  0.00    +0.015 A 
ATOM     12  C   UNL     1       1.159  -4.920  -3.339  0.00  0.00    +0.018 A 
ATOM     13  C   UNL     1       0.633  -4.304  -2.218  0.00  0.00    +0.023 A 
ATOM     14 BR   UNL     1       1.267  -3.976  -4.974  0.00  0.00    -0.050 Br
ENDBRANCH   4   8
BRANCH   1  19
ATOM     15  C   UNL     1      -0.016   1.374  -0.008  0.00  0.00    +0.001 A 
ATOM     16  C   UNL     1       1.171   2.089   0.007  0.00  0.00    +0.004 A 
ATOM     17  C   UNL     1       2.383   1.429   0.013  0.00  0.00    +0.046 A 
ATOM     18  C   UNL     1       2.421   0.043   0.003  0.00  0.00    +0.129 A 
ATOM     19  C   UNL     1       1.223  -0.684  -0.012  0.00  0.00    +0.080 A 
ATOM     20  C   UNL     1       0.002  -0.004  -0.017  0.00  0.00    +0.017 A 
BRANCH  18  21
ATOM     21  O   UNL     1       3.612  -0.607   0.008  0.00  0.00    -0.506 OA
ATOM     22  H   UNL     1       3.950  -0.801   0.892  0.00  0.00    +0.292 HD
ENDBRANCH  18  21
ENDBRANCH   1  19
BRANCH   4  23
ATOM     23  O   UNL     1       0.647  -4.782   1.384  0.00  0.00    -0.366 OA
ATOM     24  H   UNL     1       0.294  -4.406   2.202  0.00  0.00    +0.212 HD
ENDBRANCH   4  23
TORSDOF 4
