REMARK  Name = ZINC06825143
REMARK  9 active torsions:
REMARK  status: ('A' for Active; 'I' for Inactive)
REMARK    1  A    between atoms: C_1  and  C_2
REMARK    2  A    between atoms: C_3  and  N_9
REMARK    3  A    between atoms: C_10  and  C_12
REMARK    4  A    between atoms: C_12  and  C_13
REMARK    5  A    between atoms: C_13  and  C_14
REMARK    6  A    between atoms: N_16  and  N_17
REMARK    7  A    between atoms: N_17  and  C_18
REMARK    8  A    between atoms: C_18  and  N_20
REMARK    9  A    between atoms: C_21  and  C_23
REMARK                            x       y       z     vdW  Elec       q    Type
REMARK                         _______ _______ _______ _____ _____    ______ ____
ROOT
ATOM      1  C   UNL     1      -1.479   7.648  -0.373  0.00  0.00    +0.230 C 
ATOM      2  O   UNL     1      -0.433   8.263  -0.380  0.00  0.00    -0.274 OA
ATOM      3  N   UNL     1      -2.650   8.309  -0.460  0.00  0.00    -0.235 N 
ATOM      4  H   UNL     1      -3.486   7.816  -0.455  0.00  0.00    +0.173 HD
ENDROOT
BRANCH   3   5
ATOM      5  N   UNL     1      -2.660   9.706  -0.558  0.00  0.00    -0.246 N 
ATOM      6  H   UNL     1      -1.825  10.198  -0.563  0.00  0.00    +0.172 HD
BRANCH   5   7
ATOM      7  C   UNL     1      -3.832  10.367  -0.645  0.00  0.00    +0.153 C 
ATOM      8  S   UNL     1      -3.845  12.075  -0.765  0.00  0.00    -0.017 S 
BRANCH   7   9
ATOM      9  N   UNL     1      -4.993   9.683  -0.638  0.00  0.00    -0.260 N 
ATOM     10  C   UNL     1      -6.165  10.344  -0.725  0.00  0.00    +0.285 C 
ATOM     11  O   UNL     1      -6.174  11.558  -0.810  0.00  0.00    -0.266 OA
ATOM     12  H   UNL     1      -4.986   8.716  -0.570  0.00  0.00    +0.157 HD
BRANCH  10  13
ATOM     13  C   UNL     1      -7.428   9.601  -0.717  0.00  0.00    +0.189 A 
ATOM     14  C   UNL     1      -8.679  10.143  -0.798  0.00  0.00    +0.054 A 
ATOM     15  C   UNL     1      -9.586   9.073  -0.756  0.00  0.00    +0.042 A 
ATOM     16  C   UNL     1      -8.858   7.938  -0.651  0.00  0.00    +0.196 A 
ATOM     17  O   UNL     1      -7.558   8.260  -0.634  0.00  0.00    -0.458 OA
ENDBRANCH  10  13
ENDBRANCH   7   9
ENDBRANCH   5   7
ENDBRANCH   3   5
BRANCH   1  18
ATOM     18  C   UNL     1      -1.468   6.145  -0.268  0.00  0.00    +0.106 C 
BRANCH  18  19
ATOM     19  C   UNL     1      -0.022   5.650  -0.183  0.00  0.00    +0.105 C 
BRANCH  19  21
ATOM     20  N   UNL     1       1.161   3.486   0.010  0.00  0.00    -0.285 N 
ATOM     21  C   UNL     1      -0.011   4.147  -0.077  0.00  0.00    +0.218 C 
ATOM     22  O   UNL     1      -1.056   3.531  -0.071  0.00  0.00    -0.275 OA
ATOM     23  H   UNL     1       1.992   3.980   0.085  0.00  0.00    +0.155 HD
BRANCH  20  26
ATOM     24  C   UNL     1       3.359   2.153   1.228  0.00  0.00    +0.047 C 
ATOM     25  C   UNL     1       2.232   1.396   0.575  0.00  0.00    -0.011 A 
ATOM     26  C   UNL     1       1.178   2.087  -0.009  0.00  0.00    +0.038 A 
ATOM     27  C   UNL     1       0.141   1.387  -0.611  0.00  0.00    +0.023 A 
ATOM     28  C   UNL     1       0.160   0.005  -0.628  0.00  0.00    +0.003 A 
ATOM     29  C   UNL     1       1.210  -0.680  -0.047  0.00  0.00    +0.020 A 
ATOM     30  C   UNL     1       2.246   0.015   0.554  0.00  0.00    +0.046 A 
ATOM     31 CL   UNL     1       3.563  -0.850   1.283  0.00  0.00    -0.083 Cl
ENDBRANCH  20  26
ENDBRANCH  19  21
ENDBRANCH  18  19
ENDBRANCH   1  18
TORSDOF 8
