REMARK  Name = ZINC06410001
REMARK  9 active torsions:
REMARK  status: ('A' for Active; 'I' for Inactive)
REMARK    1  A    between atoms: C_1  and  C_2
REMARK    2  A    between atoms: C_7  and  C_14
REMARK    3  A    between atoms: C_14  and  C_16
REMARK    4  A    between atoms: C_14  and  N_70
REMARK    5  A    between atoms: N_20  and  C_21
REMARK    6  A    between atoms: C_27  and  C_28
REMARK    7  A    between atoms: C_27  and  N_70
REMARK    8  A    between atoms: C_34  and  C_35
REMARK    9  A    between atoms: C_34  and  N_70
REMARK                            x       y       z     vdW  Elec       q    Type
REMARK                         _______ _______ _______ _____ _____    ______ ____
ROOT
ATOM      1  C   UNL     1       4.570  -0.256  -2.120  0.00  0.00    +0.040 C 
ENDROOT
BRANCH   1   8
ATOM      2  C   UNL     1       5.105  -1.034 -10.041  0.00  0.00    +0.044 C 
ATOM      3  C   UNL     1       4.873  -0.699  -8.590  0.00  0.00    -0.048 A 
ATOM      4  C   UNL     1       4.106   0.408  -8.255  0.00  0.00    +0.004 A 
ATOM      5  C   UNL     1       3.883   0.730  -6.946  0.00  0.00    +0.010 A 
ATOM      6  C   UNL     1       4.434  -0.064  -5.934  0.00  0.00    -0.001 A 
ATOM      7  C   UNL     1       4.216   0.252  -4.521  0.00  0.00    +0.017 A 
ATOM      8  C   UNL     1       4.775  -0.553  -3.584  0.00  0.00    +0.011 A 
ATOM      9  C   UNL     1       5.553  -1.664  -3.974  0.00  0.00    +0.251 A 
ATOM     10  O   UNL     1       6.050  -2.372  -3.115  0.00  0.00    -0.268 OA
ATOM     11  N   UNL     1       5.754  -1.965  -5.269  0.00  0.00    -0.322 N 
ATOM     12  H   UNL     1       6.290  -2.739  -5.502  0.00  0.00    +0.169 HD
ATOM     13  C   UNL     1       5.213  -1.187  -6.270  0.00  0.00    +0.049 A 
ATOM     14  C   UNL     1       5.426  -1.494  -7.610  0.00  0.00    +0.029 A 
ENDBRANCH   1   8
BRANCH   1  15
ATOM     15  C   UNL     1       5.902   0.024  -1.474  0.00  0.00    +0.143 A 
ATOM     16  N   UNL     1       6.838  -0.851  -1.199  0.00  0.00    -0.115 NA
ATOM     17  N   UNL     1       7.822  -0.223  -0.653  0.00  0.00    -0.023 NA
ATOM     18  N   UNL     1       7.534   1.029  -0.565  0.00  0.00    -0.044 NA
ATOM     19  N   UNL     1       6.359   1.221  -1.060  0.00  0.00    -0.227 N 
BRANCH  19  20
ATOM     20  C   UNL     1       5.653   2.502  -1.155  0.00  0.00    +0.111 C 
ATOM     21  C   UNL     1       6.475   3.475  -2.003  0.00  0.00    +0.027 C 
ATOM     22  C   UNL     1       5.738   4.812  -2.102  0.00  0.00    +0.002 C 
ATOM     23  C   UNL     1       5.546   5.394  -0.700  0.00  0.00    +0.000 C 
ATOM     24  C   UNL     1       4.725   4.421   0.148  0.00  0.00    +0.002 C 
ATOM     25  C   UNL     1       5.462   3.083   0.247  0.00  0.00    +0.027 C 
ENDBRANCH  19  20
ENDBRANCH   1  15
BRANCH   1  26
ATOM     26  N   UNL     1       3.961  -1.436  -1.471  0.00  0.00    +0.395 N 
ATOM     27  H   UNL     1       4.612  -2.227  -1.540  0.00  0.00    -0.079 HD
BRANCH  26  28
ATOM     28  C   UNL     1       2.699  -1.792  -2.152  0.00  0.00    -0.041 C 
BRANCH  28  29
ATOM     29  C   UNL     1       3.010  -2.767  -3.259  0.00  0.00    -0.064 A 
ATOM     30  C   UNL     1       3.365  -4.067  -2.955  0.00  0.00    +0.002 A 
ATOM     31  C   UNL     1       3.651  -4.961  -3.971  0.00  0.00    +0.000 A 
ATOM     32  C   UNL     1       3.580  -4.554  -5.290  0.00  0.00    +0.000 A 
ATOM     33  C   UNL     1       3.223  -3.253  -5.593  0.00  0.00    +0.000 A 
ATOM     34  C   UNL     1       2.938  -2.359  -4.578  0.00  0.00    +0.002 A 
ENDBRANCH  28  29
ENDBRANCH  26  28
BRANCH  26  35
ATOM     35  C   UNL     1       3.703  -1.150  -0.044  0.00  0.00    -0.034 C 
BRANCH  35  36
ATOM     36  C   UNL     1       5.000  -1.262   0.714  0.00  0.00    -0.027 A 
ATOM     37  C   UNL     1       5.716  -0.289   1.329  0.00  0.00    +0.009 A 
ATOM     38  C   UNL     1       6.892  -0.627   1.972  0.00  0.00    +0.008 A 
ATOM     39  C   UNL     1       7.295  -1.921   1.968  0.00  0.00    +0.045 A 
ATOM     40  S   UNL     1       5.990  -2.711   1.041  0.00  0.00    -0.103 S 
ENDBRANCH  35  36
ENDBRANCH  26  35
ENDBRANCH   1  26
TORSDOF 8
