REMARK  Name = ZINC41021494
REMARK  4 active torsions:
REMARK  status: ('A' for Active; 'I' for Inactive)
REMARK    1  A    between atoms: C_3  and  O_10
REMARK    2  A    between atoms: C_4  and  C_8
REMARK    3  A    between atoms: C_6  and  N_7
REMARK    4  A    between atoms: O_10  and  C_11
REMARK                            x       y       z     vdW  Elec       q    Type
REMARK                         _______ _______ _______ _____ _____    ______ ____
ROOT
ATOM      1  C   UNL     1       0.138   1.325  -1.013  0.00  0.00    +0.026 A 
ATOM      2  C   UNL     1       1.269   2.058  -0.712  0.00  0.00    +0.049 A 
ATOM      3  C   UNL     1       2.431   1.415  -0.316  0.00  0.00    +0.146 A 
ATOM      4  C   UNL     1       2.457   0.016  -0.221  0.00  0.00    +0.096 A 
ATOM      5  C   UNL     1       1.309  -0.719  -0.527  0.00  0.00    +0.045 A 
ATOM      6  C   UNL     1       0.155  -0.062  -0.921  0.00  0.00    +0.026 A 
ENDROOT
BRANCH   6   7
ATOM      7  N   UNL     1      -0.996  -0.796  -1.229  0.00  0.00    -0.358 N 
ATOM      8  H   UNL     1      -1.804  -0.337  -1.505  0.00  0.00    +0.142 HD
ATOM      9  H   UNL     1      -0.985  -1.764  -1.165  0.00  0.00    +0.142 HD
ENDBRANCH   6   7
BRANCH   4  10
ATOM     10  C   UNL     1       3.654  -0.656   0.187  0.00  0.00    +0.103 C 
ATOM     11  N   UNL     1       4.603  -1.189   0.511  0.00  0.00    -0.191 NA
ENDBRANCH   4  10
BRANCH   3  12
ATOM     12  O   UNL     1       3.542   2.137  -0.021  0.00  0.00    -0.455 OA
BRANCH  12  13
ATOM     13  C   UNL     1       3.468   3.491  -0.118  0.00  0.00    +0.132 A 
ATOM     14  C   UNL     1       3.776   4.118  -1.316  0.00  0.00    +0.050 A 
ATOM     15  C   UNL     1       3.701   5.494  -1.417  0.00  0.00    +0.053 A 
ATOM     16  C   UNL     1       3.319   6.252  -0.322  0.00  0.00    +0.166 A 
ATOM     17  C   UNL     1       3.009   5.624   0.882  0.00  0.00    +0.170 A 
ATOM     18  C   UNL     1       3.079   4.244   0.980  0.00  0.00    +0.095 A 
ATOM     19  O   UNL     1       2.666   6.579   1.796  0.00  0.00    -0.452 OA
ATOM     20  C   UNL     1       3.163   7.820   1.261  0.00  0.00    +0.466 C 
ATOM     21  O   UNL     1       3.170   7.600  -0.162  0.00  0.00    -0.453 OA
ENDBRANCH  12  13
ENDBRANCH   3  12
TORSDOF 4
