REMARK  Name = ZINC63974674
REMARK  14 active torsions:
REMARK  status: ('A' for Active; 'I' for Inactive)
REMARK    1  A    between atoms: C_1  and  O_2
REMARK    2  A    between atoms: O_2  and  C_3
REMARK    3  A    between atoms: C_7  and  O_37
REMARK    4  A    between atoms: C_8  and  O_9
REMARK    5  A    between atoms: O_9  and  C_10
REMARK    6  A    between atoms: C_10  and  C_11
REMARK    7  A    between atoms: C_11  and  C_13
REMARK    8  A    between atoms: C_11  and  O_36
REMARK    9  A    between atoms: C_13  and  N_14
REMARK   10  A    between atoms: C_15  and  C_17
REMARK   11  A    between atoms: C_17  and  C_18
REMARK   12  A    between atoms: C_18  and  C_19
REMARK   13  A    between atoms: C_27  and  C_29
REMARK   14  A    between atoms: O_37  and  C_38
REMARK                            x       y       z     vdW  Elec       q    Type
REMARK                         _______ _______ _______ _____ _____    ______ ____
ROOT
ATOM      1  N   UNL     1       0.163  -4.876  -4.254  0.00  0.00    -0.313 N 
ATOM      2  C   UNL     1       0.700  -5.207  -5.445  0.00  0.00    +0.213 C 
ATOM      3  O   UNL     1       1.855  -4.929  -5.687  0.00  0.00    -0.276 OA
ATOM      4  H   UNL     1      -0.761  -5.098  -4.060  0.00  0.00    +0.149 HD
ENDROOT
BRANCH   1   5
ATOM      5  C   UNL     1       0.975  -4.180  -3.252  0.00  0.00    +0.138 C 
BRANCH   5   6
ATOM      6  C   UNL     1       0.132  -3.925  -2.001  0.00  0.00    +0.169 C 
BRANCH   6   7
ATOM      7  O   UNL     1      -0.221  -5.173  -1.401  0.00  0.00    -0.387 OA
ATOM      8  H   UNL     1       0.537  -5.707  -1.130  0.00  0.00    +0.210 HD
ENDBRANCH   6   7
BRANCH   6   9
ATOM      9  C   UNL     1       0.939  -3.090  -1.004  0.00  0.00    +0.262 C 
BRANCH   9  10
ATOM     10  O   UNL     1       0.114  -2.753   0.113  0.00  0.00    -0.483 OA
BRANCH  10  16
ATOM     11  C   UNL     1       0.626  -0.619   1.042  0.00  0.00    +0.165 A 
ATOM     12  C   UNL     1       1.202   0.138   2.051  0.00  0.00    +0.049 A 
ATOM     13  C   UNL     1       1.837  -0.486   3.109  0.00  0.00    +0.007 A 
ATOM     14  C   UNL     1       1.900  -1.866   3.166  0.00  0.00    +0.049 A 
ATOM     15  C   UNL     1       1.327  -2.630   2.160  0.00  0.00    +0.165 A 
ATOM     16  C   UNL     1       0.683  -2.006   1.098  0.00  0.00    +0.204 A 
BRANCH  11  18
ATOM     17  C   UNL     1      -0.017   1.425   0.010  0.00  0.00    +0.277 C 
ATOM     18  O   UNL     1       0.002  -0.004   0.002  0.00  0.00    -0.491 OA
ENDBRANCH  11  18
BRANCH  15  19
ATOM     19  O   UNL     1       1.390  -3.987   2.217  0.00  0.00    -0.491 OA
ATOM     20  C   UNL     1       2.062  -4.559   3.340  0.00  0.00    +0.277 C 
ENDBRANCH  15  19
ENDBRANCH  10  16
ENDBRANCH   9  10
ENDBRANCH   6   9
ENDBRANCH   5   6
ENDBRANCH   1   5
BRANCH   2  21
ATOM     21  C   UNL     1      -0.135  -5.922  -6.475  0.00  0.00    +0.100 C 
BRANCH  21  22
ATOM     22  C   UNL     1       0.708  -6.178  -7.726  0.00  0.00    +0.043 C 
BRANCH  22  23
ATOM     23  C   UNL     1      -0.127  -6.894  -8.757  0.00  0.00    -0.034 C 
ATOM     24  C   UNL     1      -1.422  -7.264  -8.639  0.00  0.00    +0.002 A 
ATOM     25  C   UNL     1      -2.403  -7.118  -7.557  0.00  0.00    +0.048 A 
ATOM     26  C   UNL     1      -3.655  -7.603  -7.736  0.00  0.00    +0.124 A 
ATOM     27  C   UNL     1      -4.036  -8.240  -8.928  0.00  0.00    +0.040 A 
ATOM     28  C   UNL     1      -3.189  -8.411  -9.965  0.00  0.00    +0.029 A 
ATOM     29  C   UNL     1      -1.849  -7.940  -9.885  0.00  0.00    +0.043 A 
ATOM     30  N   UNL     1      -0.857  -7.985 -10.740  0.00  0.00    -0.374 N 
ATOM     31  C   UNL     1       0.312  -7.337 -10.135  0.00  0.00    +0.137 C 
ATOM     32  F   UNL     1      -4.561  -7.470  -6.742  0.00  0.00    -0.205 F 
ATOM     33  H   UNL     1      -0.890  -8.378 -11.626  0.00  0.00    +0.161 HD
BRANCH  31  34
ATOM     34  C   UNL     1       0.731  -6.144 -10.955  0.00  0.00    -0.021 A 
ATOM     35  C   UNL     1      -0.226  -5.348 -11.557  0.00  0.00    +0.006 A 
ATOM     36  C   UNL     1       0.159  -4.254 -12.309  0.00  0.00    +0.000 A 
ATOM     37  C   UNL     1       1.500  -3.955 -12.459  0.00  0.00    +0.000 A 
ATOM     38  C   UNL     1       2.457  -4.750 -11.856  0.00  0.00    +0.000 A 
ATOM     39  C   UNL     1       2.072  -5.842 -11.100  0.00  0.00    +0.006 A 
ENDBRANCH  31  34
ENDBRANCH  22  23
ENDBRANCH  21  22
ENDBRANCH   2  21
TORSDOF 12
