REMARK  Name = ZINC06190140
REMARK  7 active torsions:
REMARK  status: ('A' for Active; 'I' for Inactive)
REMARK    1  A    between atoms: C_1  and  C_2
REMARK    2  A    between atoms: C_5  and  C_8
REMARK    3  A    between atoms: C_8  and  C_10
REMARK    4  A    between atoms: C_11  and  N_31
REMARK    5  A    between atoms: C_15  and  C_17
REMARK    6  A    between atoms: C_27  and  C_29
REMARK    7  A    between atoms: C_27  and  C_30
REMARK                            x       y       z     vdW  Elec       q    Type
REMARK                         _______ _______ _______ _____ _____    ______ ____
ROOT
ATOM      1  C   UNL     1      -1.796  -4.714  -0.387  0.00  0.00    +0.069 C 
ATOM      2  C   UNL     1      -2.753  -3.832   0.009  0.00  0.00    +0.192 C 
ATOM      3  O   UNL     1      -2.447  -2.563   0.317  0.00  0.00    -0.446 OA
ATOM      4  C   UNL     1      -1.315  -2.012  -0.159  0.00  0.00    +0.115 C 
ATOM      5  C   UNL     1      -0.279  -2.772  -0.557  0.00  0.00    +0.045 C 
ATOM      6  C   UNL     1      -0.361  -4.278  -0.494  0.00  0.00    +0.096 C 
ATOM      7  C   UNL     1       0.912  -2.193  -1.039  0.00  0.00    +0.164 C 
ATOM      8  O   UNL     1       1.818  -2.913  -1.407  0.00  0.00    -0.292 OA
ATOM      9  C   UNL     1       1.085  -0.700  -1.103  0.00  0.00    +0.086 C 
ATOM     10  C   UNL     1       0.209  -0.053  -0.024  0.00  0.00    -0.021 C 
ATOM     11  C   UNL     1      -1.237  -0.505  -0.233  0.00  0.00    +0.081 C 
ATOM     12  C   UNL     1       0.294   1.470  -0.138  0.00  0.00    +0.012 C 
ATOM     13  C   UNL     1       0.690  -0.493   1.361  0.00  0.00    +0.012 C 
ENDROOT
BRANCH   6  14
ATOM     14  C   UNL     1       0.402  -4.770   0.710  0.00  0.00    -0.017 A 
ATOM     15  C   UNL     1       0.074  -4.309   1.971  0.00  0.00    +0.006 A 
ATOM     16  C   UNL     1       0.774  -4.760   3.075  0.00  0.00    +0.000 A 
ATOM     17  C   UNL     1       1.800  -5.673   2.918  0.00  0.00    +0.001 A 
ATOM     18  C   UNL     1       2.128  -6.135   1.657  0.00  0.00    +0.020 A 
ATOM     19  C   UNL     1       1.425  -5.688   0.553  0.00  0.00    +0.045 A 
ATOM     20 CL   UNL     1       1.831  -6.273  -1.030  0.00  0.00    -0.083 Cl
ENDBRANCH   6  14
BRANCH   2  21
ATOM     21  N   UNL     1      -4.054  -4.248   0.095  0.00  0.00    -0.329 N 
ATOM     22  H   UNL     1      -4.277  -5.178  -0.062  0.00  0.00    +0.145 HD
ATOM     23  H   UNL     1      -4.753  -3.612   0.313  0.00  0.00    +0.145 HD
ENDBRANCH   2  21
BRANCH   1  24
ATOM     24  C   UNL     1      -2.150  -6.036  -0.698  0.00  0.00    +0.195 C 
ATOM     25  O   UNL     1      -2.560  -6.779   0.177  0.00  0.00    -0.287 OA
BRANCH  24  30
ATOM     26  C   UNL     1      -1.663  -7.949  -6.106  0.00  0.00    +0.044 C 
ATOM     27  C   UNL     1      -1.790  -7.449  -4.690  0.00  0.00    -0.050 A 
ATOM     28  C   UNL     1      -2.166  -8.319  -3.683  0.00  0.00    +0.004 A 
ATOM     29  C   UNL     1      -2.285  -7.866  -2.385  0.00  0.00    +0.012 A 
ATOM     30  C   UNL     1      -2.024  -6.528  -2.089  0.00  0.00    +0.022 A 
ATOM     31  C   UNL     1      -1.650  -5.654  -3.111  0.00  0.00    +0.012 A 
ATOM     32  C   UNL     1      -1.529  -6.120  -4.404  0.00  0.00    +0.004 A 
ENDBRANCH  24  30
ENDBRANCH   1  24
TORSDOF 4
