REMARK  Name = ZINC67392832
REMARK  9 active torsions:
REMARK  status: ('A' for Active; 'I' for Inactive)
REMARK    1  A    between atoms: C_1  and  C_2
REMARK    2  A    between atoms: C_7  and  N_11
REMARK    3  A    between atoms: C_12  and  C_14
REMARK    4  A    between atoms: N_16  and  C_17
REMARK    5  A    between atoms: C_17  and  C_18
REMARK    6  A    between atoms: C_18  and  C_19
REMARK    7  A    between atoms: C_18  and  C_20
REMARK    8  A    between atoms: C_18  and  N_21
REMARK    9  A    between atoms: C_25  and  C_28
REMARK                            x       y       z     vdW  Elec       q    Type
REMARK                         _______ _______ _______ _____ _____    ______ ____
ROOT
ATOM      1  C   UNL     1       1.864  -9.634   2.929  0.00  0.00    +0.299 C 
ATOM      2  O   UNL     1       1.022  -8.828   3.267  0.00  0.00    -0.265 OA
ATOM      3  N   UNL     1       1.635 -10.448   1.880  0.00  0.00    -0.309 N 
ATOM      4  H   UNL     1       2.308 -11.092   1.611  0.00  0.00    +0.149 HD
ENDROOT
BRANCH   1   6
ATOM      5  N   UNL     1       3.383  -8.909   4.726  0.00  0.00    -0.278 N 
ATOM      6  C   UNL     1       3.154  -9.723   3.677  0.00  0.00    +0.303 C 
ATOM      7  O   UNL     1       3.996 -10.530   3.339  0.00  0.00    -0.265 OA
ATOM      8  H   UNL     1       2.683  -8.317   5.042  0.00  0.00    +0.155 HD
BRANCH   5  15
ATOM      9  C   UNL     1       8.546  -8.493   9.888  0.00  0.00    +0.109 C 
ATOM     10  C   UNL     1       7.697  -8.630   8.650  0.00  0.00    +0.194 A 
ATOM     11  N   UNL     1       8.154  -8.884   7.461  0.00  0.00    -0.214 NA
ATOM     12  C   UNL     1       7.109  -8.937   6.591  0.00  0.00    +0.110 A 
ATOM     13  C   UNL     1       7.007  -9.169   5.218  0.00  0.00    +0.033 A 
ATOM     14  C   UNL     1       5.783  -9.159   4.614  0.00  0.00    +0.025 A 
ATOM     15  C   UNL     1       4.629  -8.917   5.358  0.00  0.00    +0.037 A 
ATOM     16  C   UNL     1       4.713  -8.685   6.722  0.00  0.00    +0.071 A 
ATOM     17  C   UNL     1       5.950  -8.694   7.345  0.00  0.00    +0.157 A 
ATOM     18  O   UNL     1       6.360  -8.513   8.620  0.00  0.00    -0.440 OA
ENDBRANCH   5  15
ENDBRANCH   1   6
BRANCH   3  19
ATOM     19  C   UNL     1       0.369 -10.360   1.147  0.00  0.00    +0.092 C 
BRANCH  19  20
ATOM     20  C   UNL     1       0.316 -11.463   0.088  0.00  0.00    -0.055 C 
ATOM     21  C   UNL     1       0.287 -12.830   0.776  0.00  0.00    -0.008 C 
ATOM     22  C   UNL     1      -0.945 -11.293  -0.762  0.00  0.00    -0.008 C 
BRANCH  20  23
ATOM     23  N   UNL     1       1.503 -11.373  -0.773  0.00  0.00    +0.384 N 
ATOM     24  C   UNL     1       1.553 -10.045  -1.396  0.00  0.00    -0.078 C 
ATOM     25  C   UNL     1       2.830  -9.917  -2.230  0.00  0.00    -0.018 C 
ATOM     26  C   UNL     1       2.832 -10.994  -3.319  0.00  0.00    -0.001 C 
ATOM     27  C   UNL     1       2.704 -12.371  -2.661  0.00  0.00    -0.031 C 
ATOM     28  C   UNL     1       1.432 -12.408  -1.811  0.00  0.00    -0.075 C 
ATOM     29  C   UNL     1       2.628 -13.449  -3.744  0.00  0.00    +0.005 C 
ATOM     30  H   UNL     1       2.333 -11.512  -0.216  0.00  0.00    -0.081 HD
ENDBRANCH  20  23
ENDBRANCH  19  20
ENDBRANCH   3  19
TORSDOF 5
