REMARK  Name = ZINC57815073
REMARK  7 active torsions:
REMARK  status: ('A' for Active; 'I' for Inactive)
REMARK    1  A    between atoms: C_1  and  C_2
REMARK    2  A    between atoms: C_3  and  C_25
REMARK    3  A    between atoms: C_7  and  N_11
REMARK    4  A    between atoms: N_11  and  C_12
REMARK    5  A    between atoms: C_12  and  C_13
REMARK    6  A    between atoms: C_17  and  C_24
REMARK    7  A    between atoms: C_20  and  C_23
REMARK                            x       y       z     vdW  Elec       q    Type
REMARK                         _______ _______ _______ _____ _____    ______ ____
ROOT
ATOM      1  N   UNL     1       0.262   1.092   2.839  0.00  0.00    -0.320 N 
ATOM      2  H   UNL     1       0.110   1.724   2.119  0.00  0.00    +0.148 HD
ENDROOT
BRANCH   1   9
ATOM      3  C   UNL     1      -0.556   1.486   0.114  0.00  0.00    +0.045 C 
ATOM      4  C   UNL     1      -0.484  -0.020   0.096  0.00  0.00    -0.028 A 
ATOM      5  C   UNL     1      -0.771  -0.699  -1.024  0.00  0.00    -0.008 A 
ATOM      6  S   UNL     1      -0.546  -2.402  -0.548  0.00  0.00    -0.074 S 
ATOM      7  C   UNL     1      -0.073  -2.156   1.143  0.00  0.00    +0.114 A 
ATOM      8  C   UNL     1      -0.097  -0.751   1.289  0.00  0.00    +0.051 A 
ATOM      9  C   UNL     1       0.255  -0.267   2.579  0.00  0.00    +0.131 A 
ATOM     10  N   UNL     1       0.577  -1.132   3.527  0.00  0.00    -0.220 NA
ATOM     11  C   UNL     1       0.583  -2.436   3.318  0.00  0.00    +0.224 A 
ATOM     12  N   UNL     1       0.256  -2.946   2.146  0.00  0.00    -0.228 NA
ATOM     13  C   UNL     1      -1.185  -0.153  -2.366  0.00  0.00    +0.052 C 
ENDBRANCH   1   9
BRANCH   1  14
ATOM     14  C   UNL     1       0.498   1.576   4.201  0.00  0.00    +0.199 C 
BRANCH  14  15
ATOM     15  C   UNL     1       0.455   3.082   4.214  0.00  0.00    +0.233 C 
ATOM     16  O   UNL     1       0.247   3.691   3.186  0.00  0.00    -0.274 OA
ATOM     17  N   UNL     1       0.646   3.752   5.367  0.00  0.00    -0.300 N 
ATOM     18  C   UNL     1       0.905   3.029   6.619  0.00  0.00    +0.111 C 
ATOM     19  C   UNL     1       2.192   3.574   7.247  0.00  0.00    +0.004 C 
ATOM     20  C   UNL     1       2.071   5.091   7.411  0.00  0.00    +0.009 C 
ATOM     21  C   UNL     1       1.891   5.741   6.038  0.00  0.00    +0.004 C 
ATOM     22  C   UNL     1       0.607   5.221   5.395  0.00  0.00    +0.111 C 
ATOM     23  C   UNL     1       1.805   7.260   6.200  0.00  0.00    +0.009 C 
ATOM     24  C   UNL     1       3.380   3.250   6.339  0.00  0.00    +0.009 C 
ENDBRANCH  14  15
ENDBRANCH   1  14
TORSDOF 3
