REMARK  Name = ZINC32072616
REMARK  8 active torsions:
REMARK  status: ('A' for Active; 'I' for Inactive)
REMARK    1  A    between atoms: C_1  and  C_2
REMARK    2  A    between atoms: C_18  and  C_20
REMARK    3  A    between atoms: C_23  and  O_30
REMARK    4  A    between atoms: C_24  and  O_26
REMARK    5  A    between atoms: O_26  and  C_27
REMARK    6  A    between atoms: C_27  and  C_28
REMARK    7  A    between atoms: C_27  and  C_29
REMARK    8  A    between atoms: O_30  and  C_31
REMARK                            x       y       z     vdW  Elec       q    Type
REMARK                         _______ _______ _______ _____ _____    ______ ____
ROOT
ATOM      1  C   UNL     1       0.801   1.812  -0.394  0.00  0.00    +0.068 C 
ATOM      2  C   UNL     1       0.931   0.317  -0.252  0.00  0.00    +0.067 A 
ATOM      3  C   UNL     1       0.574  -0.635  -1.231  0.00  0.00    +0.033 A 
ATOM      4  C   UNL     1       0.840  -1.861  -0.732  0.00  0.00    +0.137 A 
ATOM      5  N   UNL     1       1.350  -1.677   0.536  0.00  0.00    -0.183 N 
ATOM      6  N   UNL     1       1.395  -0.307   0.792  0.00  0.00    -0.167 NA
ATOM      7  C   UNL     1       1.754  -2.686   1.409  0.00  0.00    +0.253 A 
ATOM      8  N   UNL     1       2.114  -2.367   2.642  0.00  0.00    -0.219 NA
ATOM      9  C   UNL     1       2.503  -3.300   3.496  0.00  0.00    +0.116 A 
ATOM     10  C   UNL     1       2.530  -4.623   3.085  0.00  0.00    +0.039 A 
ATOM     11  C   UNL     1       2.147  -4.921   1.786  0.00  0.00    +0.116 A 
ATOM     12  N   UNL     1       1.764  -3.940   0.986  0.00  0.00    -0.219 NA
ATOM     13  N   UNL     1       0.689  -3.119  -1.261  0.00  0.00    -0.269 N 
ATOM     14  C   UNL     1       0.210  -3.597  -2.370  0.00  0.00    +0.228 C 
ATOM     15  O   UNL     1       0.158  -4.808  -2.423  0.00  0.00    -0.275 OA
ATOM     16  C   UNL     1      -0.283  -2.900  -3.577  0.00  0.00    +0.166 C 
ATOM     17  S   UNL     1      -1.198  -1.400  -3.196  0.00  0.00    -0.138 S 
ATOM     18  C   UNL     1       0.007  -0.233  -2.557  0.00  0.00    +0.112 C 
ATOM     19  H   UNL     1       1.018  -3.813  -0.669  0.00  0.00    +0.156 HD
ENDROOT
BRANCH  18  20
ATOM     20  C   UNL     1      -0.654   1.114  -2.413  0.00  0.00    -0.026 A 
ATOM     21  C   UNL     1      -1.851   1.225  -1.730  0.00  0.00    +0.009 A 
ATOM     22  C   UNL     1      -2.460   2.459  -1.595  0.00  0.00    +0.050 A 
ATOM     23  C   UNL     1      -1.871   3.587  -2.144  0.00  0.00    +0.162 A 
ATOM     24  C   UNL     1      -0.666   3.474  -2.830  0.00  0.00    +0.163 A 
ATOM     25  C   UNL     1      -0.058   2.236  -2.958  0.00  0.00    +0.054 A 
BRANCH  23  26
ATOM     26  O   UNL     1      -2.470   4.801  -2.012  0.00  0.00    -0.491 OA
ATOM     27  C   UNL     1      -3.706   4.840  -1.295  0.00  0.00    +0.277 C 
ENDBRANCH  23  26
BRANCH  24  28
ATOM     28  O   UNL     1      -0.084   4.578  -3.371  0.00  0.00    -0.486 OA
BRANCH  28  29
ATOM     29  C   UNL     1       1.182   4.398  -4.008  0.00  0.00    +0.167 C 
ATOM     30  C   UNL     1       1.399   5.511  -5.035  0.00  0.00    +0.051 C 
ATOM     31  C   UNL     1       2.294   4.448  -2.958  0.00  0.00    +0.051 C 
ENDBRANCH  28  29
ENDBRANCH  24  28
ENDBRANCH  18  20
TORSDOF 4
