REMARK  Name = ZINC36253190
REMARK  15 active torsions:
REMARK  status: ('A' for Active; 'I' for Inactive)
REMARK    1  A    between atoms: C_1  and  C_2
REMARK    2  A    between atoms: C_2  and  C_3
REMARK    3  A    between atoms: C_3  and  C_5
REMARK    4  A    between atoms: C_3  and  C_6
REMARK    5  A    between atoms: C_11  and  N_12
REMARK    6  A    between atoms: C_13  and  C_15
REMARK    7  A    between atoms: C_15  and  C_17
REMARK    8  A    between atoms: C_15  and  O_18
REMARK    9  A    between atoms: O_18  and  C_19
REMARK   10  A    between atoms: C_19  and  C_21
REMARK   11  A    between atoms: C_23  and  S_28
REMARK   12  A    between atoms: C_26  and  C_27
REMARK   13  A    between atoms: S_28  and  N_31
REMARK   14  A    between atoms: N_31  and  C_32
REMARK   15  A    between atoms: C_32  and  C_33
REMARK                            x       y       z     vdW  Elec       q    Type
REMARK                         _______ _______ _______ _____ _____    ______ ____
ROOT
ATOM      1  C   UNL     1      -3.657  -1.387  -7.203  0.00  0.00    +0.340 C 
ATOM      2  O   UNL     1      -3.807  -0.191  -7.054  0.00  0.00    -0.245 OA
ENDROOT
BRANCH   1   3
ATOM      3  C   UNL     1      -4.719  -2.191  -7.842  0.00  0.00    +0.064 A 
ATOM      4  C   UNL     1      -4.498  -3.538  -8.137  0.00  0.00    +0.043 A 
ATOM      5  C   UNL     1      -5.494  -4.282  -8.733  0.00  0.00    +0.106 A 
ATOM      6  C   UNL     1      -6.710  -3.698  -9.039  0.00  0.00    +0.029 A 
ATOM      7  C   UNL     1      -6.936  -2.364  -8.750  0.00  0.00    +0.006 A 
ATOM      8  C   UNL     1      -5.950  -1.609  -8.148  0.00  0.00    -0.036 A 
ATOM      9  C   UNL     1      -6.200  -0.158  -7.828  0.00  0.00    +0.044 C 
BRANCH   5  10
ATOM     10  S   UNL     1      -5.217  -5.982  -9.106  0.00  0.00    +0.059 S 
ATOM     11  O   UNL     1      -6.111  -6.318 -10.158  0.00  0.00    -0.153 OA
ATOM     12  O   UNL     1      -3.810  -6.149  -9.220  0.00  0.00    -0.153 OA
BRANCH  10  13
ATOM     13  N   UNL     1      -5.692  -6.858  -7.783  0.00  0.00    -0.183 NA
ATOM     14  H   UNL     1      -5.038  -7.363  -7.276  0.00  0.00    +0.148 HD
BRANCH  13  15
ATOM     15  C   UNL     1      -7.100  -6.869  -7.380  0.00  0.00    +0.180 C 
BRANCH  15  16
ATOM     16  C   UNL     1      -7.335  -7.998  -6.409  0.00  0.00    +0.120 A 
ATOM     17  C   UNL     1      -7.231  -7.918  -5.070  0.00  0.00    +0.046 A 
ATOM     18  C   UNL     1      -7.535  -9.200  -4.559  0.00  0.00    +0.041 A 
ATOM     19  C   UNL     1      -7.808  -9.987  -5.615  0.00  0.00    +0.195 A 
ATOM     20  O   UNL     1      -7.691  -9.252  -6.733  0.00  0.00    -0.466 OA
ENDBRANCH  15  16
ENDBRANCH  13  15
ENDBRANCH  10  13
ENDBRANCH   5  10
ENDBRANCH   1   3
BRANCH   1  21
ATOM     21  O   UNL     1      -2.521  -1.980  -6.787  0.00  0.00    -0.449 OA
BRANCH  21  22
ATOM     22  C   UNL     1      -1.537  -1.142  -6.178  0.00  0.00    +0.259 C 
ATOM     23  C   UNL     1      -0.588  -0.607  -7.252  0.00  0.00    +0.062 C 
BRANCH  22  25
ATOM     24  N   UNL     1       0.167  -1.330  -4.394  0.00  0.00    -0.282 N 
ATOM     25  C   UNL     1      -0.753  -1.940  -5.168  0.00  0.00    +0.258 C 
ATOM     26  O   UNL     1      -0.950  -3.131  -5.051  0.00  0.00    -0.271 OA
ATOM     27  H   UNL     1       0.281  -0.368  -4.444  0.00  0.00    +0.155 HD
BRANCH  24  33
ATOM     28  C   UNL     1       2.226  -1.644  -3.172  0.00  0.00    -0.023 A 
ATOM     29  C   UNL     1       3.001  -2.388  -2.304  0.00  0.00    +0.006 A 
ATOM     30  C   UNL     1       2.514  -3.573  -1.783  0.00  0.00    +0.000 A 
ATOM     31  C   UNL     1       1.251  -4.017  -2.130  0.00  0.00    +0.002 A 
ATOM     32  C   UNL     1       0.472  -3.277  -2.998  0.00  0.00    +0.023 A 
ATOM     33  C   UNL     1       0.956  -2.084  -3.519  0.00  0.00    +0.037 A 
BRANCH  28  34
ATOM     34  C   UNL     1       2.757  -0.352  -3.739  0.00  0.00    +0.017 C 
ATOM     35  C   UNL     1       4.099  -0.611  -4.428  0.00  0.00    +0.012 C 
BRANCH  34  37
ATOM     36  C   UNL     1       3.372   2.008  -3.196  0.00  0.00    +0.004 C 
ATOM     37  C   UNL     1       2.952   0.659  -2.608  0.00  0.00    +0.004 C 
ENDBRANCH  34  37
ENDBRANCH  28  34
ENDBRANCH  24  33
ENDBRANCH  22  25
ENDBRANCH  21  22
ENDBRANCH   1  21
TORSDOF 11
