REMARK  Name = ZINC03446573
REMARK  6 active torsions:
REMARK  status: ('A' for Active; 'I' for Inactive)
REMARK    1  A    between atoms: C_1  and  C_2
REMARK    2  A    between atoms: C_5  and  C_16
REMARK    3  A    between atoms: C_7  and  N_8
REMARK    4  A    between atoms: C_9  and  C_11
REMARK    5  A    between atoms: C_16  and  O_18
REMARK    6  A    between atoms: O_18  and  C_19
REMARK                            x       y       z     vdW  Elec       q    Type
REMARK                         _______ _______ _______ _____ _____    ______ ____
ROOT
ATOM      1  C   UNL     1      -0.025   1.493   0.016  0.00  0.00    +0.045 C 
ATOM      2  C   UNL     1      -0.009  -0.014   0.002  0.00  0.00    -0.029 A 
ATOM      3  C   UNL     1       0.004  -0.714   1.194  0.00  0.00    +0.006 A 
ATOM      4  C   UNL     1       0.018  -2.093   1.190  0.00  0.00    +0.015 A 
ATOM      5  C   UNL     1       0.019  -2.788  -0.022  0.00  0.00    +0.061 A 
ATOM      6  C   UNL     1       0.005  -2.081  -1.225  0.00  0.00    +0.038 A 
ATOM      7  C   UNL     1      -0.014  -0.695  -1.209  0.00  0.00    +0.037 A 
ENDROOT
BRANCH   7   8
ATOM      8  N   UNL     1      -0.032   0.018  -2.413  0.00  0.00    -0.279 N 
ATOM      9  C   UNL     1       0.633  -0.454  -3.486  0.00  0.00    +0.284 C 
ATOM     10  O   UNL     1       1.180  -1.539  -3.433  0.00  0.00    -0.266 OA
ATOM     11  H   UNL     1      -0.524   0.852  -2.474  0.00  0.00    +0.155 HD
BRANCH   9  12
ATOM     12  C   UNL     1       0.697   0.341  -4.716  0.00  0.00    +0.189 A 
ATOM     13  C   UNL     1       1.333  -0.016  -5.870  0.00  0.00    +0.054 A 
ATOM     14  C   UNL     1       1.139   1.034  -6.780  0.00  0.00    +0.042 A 
ATOM     15  C   UNL     1       0.401   1.975  -6.150  0.00  0.00    +0.196 A 
ATOM     16  O   UNL     1       0.132   1.551  -4.909  0.00  0.00    -0.458 OA
ENDBRANCH   9  12
ENDBRANCH   7   8
BRANCH   5  17
ATOM     17  C   UNL     1       0.034  -4.265  -0.030  0.00  0.00    +0.340 C 
ATOM     18  O   UNL     1       0.034  -4.867  -1.086  0.00  0.00    -0.245 OA
BRANCH  17  19
ATOM     19  O   UNL     1       0.046  -4.945   1.132  0.00  0.00    -0.450 OA
BRANCH  19  20
ATOM     20  C   UNL     1       0.060  -6.394   1.048  0.00  0.00    +0.242 C 
ATOM     21  C   UNL     1      -0.649  -6.987   2.270  0.00  0.00    +0.052 C 
ATOM     22  C   UNL     1      -0.509  -8.511   2.249  0.00  0.00    +0.004 C 
ATOM     23  C   UNL     1       0.965  -8.897   2.377  0.00  0.00    +0.008 C 
ATOM     24  C   UNL     1       1.735  -8.376   1.159  0.00  0.00    +0.078 C 
ATOM     25  C   UNL     1       1.490  -6.889   1.036  0.00  0.00    +0.174 C 
ATOM     26  O   UNL     1       2.412  -6.116   0.929  0.00  0.00    -0.293 OA
ENDBRANCH  19  20
ENDBRANCH  17  19
ENDBRANCH   5  17
TORSDOF 5
