REMARK  Name = ZINC58161621
REMARK  5 active torsions:
REMARK  status: ('A' for Active; 'I' for Inactive)
REMARK    1  A    between atoms: C_1  and  C_2
REMARK    2  A    between atoms: C_2  and  C_4
REMARK    3  A    between atoms: C_2  and  N_17
REMARK    4  A    between atoms: N_6  and  C_7
REMARK    5  A    between atoms: C_24  and  C_29
REMARK                            x       y       z     vdW  Elec       q    Type
REMARK                         _______ _______ _______ _____ _____    ______ ____
ROOT
ATOM      1  N   UNL     1      -1.278  -0.406  -0.239  0.00  0.00    -0.289 NA
ATOM      2  C   UNL     1      -2.147   0.128   0.818  0.00  0.00    +0.104 C 
ATOM      3  C   UNL     1      -3.609  -0.182   0.479  0.00  0.00    +0.122 C 
ATOM      4  N   UNL     1      -3.736  -1.627   0.241  0.00  0.00    -0.312 N 
ATOM      5  C   UNL     1      -2.807  -2.261  -0.707  0.00  0.00    +0.122 C 
ATOM      6  C   UNL     1      -1.377  -1.869  -0.321  0.00  0.00    +0.104 C 
ATOM      7  C   UNL     1      -4.705  -2.371   0.889  0.00  0.00    +0.133 A 
ATOM      8  C   UNL     1      -5.939  -2.611   0.262  0.00  0.00    +0.076 A 
ATOM      9  C   UNL     1      -6.904  -3.366   0.938  0.00  0.00    +0.018 A 
ATOM     10  C   UNL     1      -6.598  -3.845   2.199  0.00  0.00    +0.021 A 
ATOM     11  C   UNL     1      -5.360  -3.568   2.752  0.00  0.00    +0.113 A 
ATOM     12  N   UNL     1      -4.463  -2.858   2.097  0.00  0.00    -0.240 NA
ENDROOT
BRANCH   8  13
ATOM     13  C   UNL     1      -6.213  -2.076  -1.085  0.00  0.00    +0.245 C 
ATOM     14  O   UNL     1      -5.408  -1.340  -1.622  0.00  0.00    -0.270 OA
ATOM     15  N   UNL     1      -7.357  -2.402  -1.720  0.00  0.00    -0.325 N 
ATOM     16  H   UNL     1      -7.999  -2.988  -1.291  0.00  0.00    +0.145 HD
ATOM     17  H   UNL     1      -7.537  -2.050  -2.605  0.00  0.00    +0.145 HD
ENDBRANCH   8  13
BRANCH   1  19
ATOM     18  C   UNL     1       0.183   1.546  -0.012  0.00  0.00    +0.034 C 
ATOM     19  C   UNL     1       0.114   0.018  -0.042  0.00  0.00    +0.140 C 
BRANCH  19  20
ATOM     20  C   UNL     1       0.626  -0.534   1.264  0.00  0.00    +0.230 C 
ATOM     21  O   UNL     1      -0.130  -1.110   2.017  0.00  0.00    -0.274 OA
ATOM     22  N   UNL     1       1.925  -0.386   1.595  0.00  0.00    -0.308 N 
ATOM     23  H   UNL     1       2.529   0.075   0.992  0.00  0.00    +0.149 HD
BRANCH  22  24
ATOM     24  C   UNL     1       2.423  -0.922   2.864  0.00  0.00    +0.035 C 
ATOM     25  C   UNL     1       2.202  -2.436   2.900  0.00  0.00    +0.029 C 
ATOM     26  C   UNL     1       2.722  -2.996   4.225  0.00  0.00    -0.008 C 
ATOM     27  C   UNL     1       4.216  -2.696   4.354  0.00  0.00    +0.007 C 
ATOM     28  C   UNL     1       4.437  -1.182   4.318  0.00  0.00    -0.008 C 
ATOM     29  C   UNL     1       3.917  -0.622   2.993  0.00  0.00    +0.029 C 
ATOM     30  C   UNL     1       3.684  -0.529   5.479  0.00  0.00    +0.007 C 
ATOM     31  C   UNL     1       2.189  -0.829   5.349  0.00  0.00    -0.008 C 
ATOM     32  C   UNL     1       1.968  -2.343   5.386  0.00  0.00    +0.007 C 
ATOM     33  C   UNL     1       1.669  -0.269   4.024  0.00  0.00    +0.029 C 
ENDBRANCH  22  24
ENDBRANCH  19  20
ENDBRANCH   1  19
TORSDOF 4
