REMARK  Name = ZINC67119865
REMARK  4 active torsions:
REMARK  status: ('A' for Active; 'I' for Inactive)
REMARK    1  A    between atoms: C_3  and  N_17
REMARK    2  A    between atoms: C_6  and  C_7
REMARK    3  A    between atoms: C_7  and  C_8
REMARK    4  A    between atoms: C_8  and  N_9
REMARK                            x       y       z     vdW  Elec       q    Type
REMARK                         _______ _______ _______ _____ _____    ______ ____
ROOT
ATOM      1  C   UNL     1      -1.293  -0.775   0.010  0.00  0.00    +0.054 C 
ENDROOT
BRANCH   1   7
ATOM      2  C   UNL     1      -0.017   1.378   0.010  0.00  0.00    +0.006 A 
ATOM      3  C   UNL     1       1.171   2.086   0.002  0.00  0.00    +0.033 A 
ATOM      4  C   UNL     1       2.377   1.411  -0.013  0.00  0.00    +0.126 A 
ATOM      5  C   UNL     1       2.396   0.029  -0.020  0.00  0.00    +0.033 A 
ATOM      6  C   UNL     1       1.208  -0.679  -0.012  0.00  0.00    +0.006 A 
ATOM      7  C   UNL     1       0.002  -0.004   0.002  0.00  0.00    -0.046 A 
BRANCH   4   8
ATOM      8  N   UNL     1       3.649   2.168  -0.022  0.00  0.00    +0.056 N 
ATOM      9  O   UNL     1       3.633   3.377  -0.016  0.00  0.00    -0.126 OA
ATOM     10  O   UNL     1       4.704   1.578  -0.035  0.00  0.00    -0.126 OA
ENDBRANCH   4   8
ENDBRANCH   1   7
BRANCH   1  11
ATOM     11  C   UNL     1      -1.744  -1.028  -1.429  0.00  0.00    +0.109 C 
BRANCH  11  12
ATOM     12  N   UNL     1      -3.003  -1.778  -1.421  0.00  0.00    -0.313 N 
ATOM     13  C   UNL     1      -3.609  -2.126  -2.617  0.00  0.00    +0.215 A 
ATOM     14  N   UNL     1      -3.035  -1.778  -3.758  0.00  0.00    -0.222 NA
ATOM     15  C   UNL     1      -3.587  -2.094  -4.918  0.00  0.00    +0.131 A 
ATOM     16  C   UNL     1      -4.781  -2.799  -4.928  0.00  0.00    +0.054 A 
ATOM     17  C   UNL     1      -5.355  -3.147  -3.715  0.00  0.00    +0.131 A 
ATOM     18  N   UNL     1      -4.747  -2.804  -2.591  0.00  0.00    -0.222 NA
ATOM     19 BR   UNL     1      -5.610  -3.273  -6.560  0.00  0.00    -0.047 Br
ATOM     20  H   UNL     1      -3.412  -2.031  -0.579  0.00  0.00    +0.149 HD
ENDBRANCH  11  12
ENDBRANCH   1  11
TORSDOF 4
