REMARK  Name = ZINC54155562
REMARK  8 active torsions:
REMARK  status: ('A' for Active; 'I' for Inactive)
REMARK    1  A    between atoms: C_1  and  C_2
REMARK    2  A    between atoms: C_5  and  C_19
REMARK    3  A    between atoms: C_6  and  C_8
REMARK    4  A    between atoms: N_10  and  C_11
REMARK    5  A    between atoms: C_11  and  C_12
REMARK    6  A    between atoms: C_12  and  C_14
REMARK    7  A    between atoms: C_12  and  C_15
REMARK    8  A    between atoms: N_16  and  O_17
REMARK                            x       y       z     vdW  Elec       q    Type
REMARK                         _______ _______ _______ _____ _____    ______ ____
ROOT
ATOM      1  C   UNL     1       0.589  -2.757   2.443  0.00  0.00    +0.244 C 
ATOM      2  O   UNL     1       0.711  -3.966   2.451  0.00  0.00    -0.270 OA
ATOM      3  N   UNL     1       0.720  -2.059   3.589  0.00  0.00    -0.311 N 
ATOM      4  H   UNL     1       0.623  -1.094   3.583  0.00  0.00    +0.149 HD
ENDROOT
BRANCH   1  10
ATOM      5  C   UNL     1      -0.013   1.502  -0.086  0.00  0.00    +0.044 C 
ATOM      6  C   UNL     1       0.006  -0.004  -0.044  0.00  0.00    -0.050 A 
ATOM      7  C   UNL     1      -0.252  -0.730  -1.194  0.00  0.00    +0.003 A 
ATOM      8  C   UNL     1      -0.236  -2.113  -1.164  0.00  0.00    +0.004 A 
ATOM      9  C   UNL     1       0.036  -2.778   0.014  0.00  0.00    -0.038 A 
ATOM     10  C   UNL     1       0.297  -2.052   1.177  0.00  0.00    +0.040 A 
ATOM     11  C   UNL     1       0.285  -0.656   1.139  0.00  0.00    +0.016 A 
ATOM     12  C   UNL     1       0.051  -4.284   0.045  0.00  0.00    +0.044 C 
ENDBRANCH   1  10
BRANCH   3  13
ATOM     13  C   UNL     1       1.010  -2.759   4.843  0.00  0.00    +0.115 C 
BRANCH  13  14
ATOM     14  C   UNL     1       1.108  -1.742   5.982  0.00  0.00    +0.069 C 
ATOM     15  C   UNL     1       2.308  -0.824   5.745  0.00  0.00    +0.017 C 
BRANCH  14  16
ATOM     16  C   UNL     1       1.283  -2.469   7.291  0.00  0.00    +0.136 C 
ATOM     17  N   UNL     1       2.468  -2.659   7.770  0.00  0.00    -0.076 NA
ATOM     18  N   UNL     1       0.181  -2.932   7.975  0.00  0.00    -0.344 N 
ATOM     19  H   UNL     1      -0.708  -2.789   7.615  0.00  0.00    +0.144 HD
ATOM     20  H   UNL     1       0.294  -3.400   8.817  0.00  0.00    +0.144 HD
BRANCH  17  21
ATOM     21  O   UNL     1       2.632  -3.342   9.000  0.00  0.00    -0.408 OA
ATOM     22  H   UNL     1       3.554  -3.436   9.277  0.00  0.00    +0.328 HD
ENDBRANCH  17  21
ENDBRANCH  14  16
ENDBRANCH  13  14
ENDBRANCH   3  13
TORSDOF 5
