REMARK  Name = ZINC16347485
REMARK  7 active torsions:
REMARK  status: ('A' for Active; 'I' for Inactive)
REMARK    1  A    between atoms: C_1  and  C_2
REMARK    2  A    between atoms: C_5  and  N_24
REMARK    3  A    between atoms: C_7  and  N_8
REMARK    4  A    between atoms: N_11  and  C_12
REMARK    5  A    between atoms: C_12  and  C_13
REMARK    6  A    between atoms: N_27  and  C_28
REMARK    7  A    between atoms: C_28  and  C_29
REMARK                            x       y       z     vdW  Elec       q    Type
REMARK                         _______ _______ _______ _____ _____    ______ ____
ROOT
ATOM      1  C   UNL     1       2.826  11.338  -2.950  0.00  0.00    +0.045 C 
ATOM      2  C   UNL     1       2.014  12.057  -1.905  0.00  0.00    -0.029 A 
ATOM      3  C   UNL     1       2.151  13.422  -1.742  0.00  0.00    +0.007 A 
ATOM      4  C   UNL     1       1.407  14.085  -0.785  0.00  0.00    +0.024 A 
ATOM      5  C   UNL     1       0.518  13.381   0.017  0.00  0.00    +0.037 A 
ATOM      6  C   UNL     1       0.373  12.011  -0.148  0.00  0.00    +0.047 A 
ATOM      7  C   UNL     1       1.126  11.347  -1.106  0.00  0.00    +0.039 A 
ENDROOT
BRANCH   7   8
ATOM      8  N   UNL     1       0.988   9.964  -1.271  0.00  0.00    -0.269 N 
ATOM      9  C   UNL     1       0.550   9.204  -0.248  0.00  0.00    +0.304 C 
ATOM     10  O   UNL     1       0.374   9.701   0.847  0.00  0.00    -0.253 OA
ATOM     11  N   UNL     1       0.308   7.892  -0.439  0.00  0.00    -0.296 N 
ATOM     12  H   UNL     1       1.206   9.553  -2.122  0.00  0.00    +0.156 HD
ATOM     13  H   UNL     1       0.448   7.495  -1.313  0.00  0.00    +0.150 HD
BRANCH  11  14
ATOM     14  C   UNL     1      -0.168   7.065   0.673  0.00  0.00    +0.153 C 
BRANCH  14  15
ATOM     15  C   UNL     1      -0.362   5.626   0.192  0.00  0.00    +0.228 C 
ATOM     16  C   UNL     1      -0.978   4.783   1.317  0.00  0.00    +0.275 C 
ATOM     17  O   UNL     1      -1.133   3.442   0.839  0.00  0.00    -0.485 OA
ATOM     18  C   UNL     1      -0.070   2.899   0.186  0.00  0.00    +0.162 A 
ATOM     19  C   UNL     1      -0.006   1.524   0.014  0.00  0.00    +0.049 A 
ATOM     20  C   UNL     1       1.068   0.958  -0.644  0.00  0.00    +0.004 A 
ATOM     21  C   UNL     1       2.077   1.760  -1.143  0.00  0.00    +0.004 A 
ATOM     22  C   UNL     1       2.018   3.131  -0.980  0.00  0.00    +0.049 A 
ATOM     23  C   UNL     1       0.946   3.705  -0.313  0.00  0.00    +0.163 A 
ATOM     24  O   UNL     1       0.905   5.056  -0.153  0.00  0.00    -0.480 OA
ENDBRANCH  14  15
ENDBRANCH  11  14
ENDBRANCH   7   8
BRANCH   5  25
ATOM     25  N   UNL     1      -0.235  14.053   0.986  0.00  0.00    -0.269 N 
ATOM     26  C   UNL     1      -0.676  15.304   0.748  0.00  0.00    +0.304 C 
ATOM     27  O   UNL     1      -0.348  15.881  -0.270  0.00  0.00    -0.253 OA
ATOM     28  N   UNL     1      -1.480  15.916   1.640  0.00  0.00    -0.296 N 
ATOM     29  H   UNL     1      -0.439  13.618   1.829  0.00  0.00    +0.156 HD
ATOM     30  H   UNL     1      -1.742  15.456   2.453  0.00  0.00    +0.150 HD
BRANCH  28  31
ATOM     31  C   UNL     1      -1.959  17.276   1.382  0.00  0.00    +0.153 C 
BRANCH  31  32
ATOM     32  C   UNL     1      -2.848  17.733   2.541  0.00  0.00    +0.228 C 
ATOM     33  C   UNL     1      -3.442  19.112   2.225  0.00  0.00    +0.275 C 
ATOM     34  O   UNL     1      -4.254  19.514   3.334  0.00  0.00    -0.485 OA
ATOM     35  C   UNL     1      -3.719  19.352   4.575  0.00  0.00    +0.162 A 
ATOM     36  C   UNL     1      -4.276  20.030   5.650  0.00  0.00    +0.049 A 
ATOM     37  C   UNL     1      -3.748  19.870   6.917  0.00  0.00    +0.004 A 
ATOM     38  C   UNL     1      -2.664  19.035   7.117  0.00  0.00    +0.004 A 
ATOM     39  C   UNL     1      -2.105  18.358   6.050  0.00  0.00    +0.049 A 
ATOM     40  C   UNL     1      -2.629  18.514   4.776  0.00  0.00    +0.163 A 
ATOM     41  O   UNL     1      -2.065  17.843   3.735  0.00  0.00    -0.480 OA
ENDBRANCH  31  32
ENDBRANCH  28  31
ENDBRANCH   5  25
TORSDOF 6
