REMARK  Name = ZINC32808457
REMARK  2 active torsions:
REMARK  status: ('A' for Active; 'I' for Inactive)
REMARK    1  A    between atoms: C_6  and  S_7
REMARK    2  A    between atoms: S_7  and  N_10
REMARK                            x       y       z     vdW  Elec       q    Type
REMARK                         _______ _______ _______ _____ _____    ______ ____
ROOT
ATOM      1  N   UNL     1      -1.819  -1.327  -1.575  0.00  0.00    -0.174 NA
ATOM      2  C   UNL     1      -2.841  -0.479  -2.206  0.00  0.00    +0.128 C 
ATOM      3  C   UNL     1      -2.245   0.143  -3.475  0.00  0.00    +0.123 C 
ATOM      4  N   UNL     1      -1.618  -0.922  -4.271  0.00  0.00    -0.312 N 
ATOM      5  C   UNL     1      -0.597  -1.770  -3.640  0.00  0.00    +0.123 C 
ATOM      6  C   UNL     1      -1.188  -2.388  -2.372  0.00  0.00    +0.128 C 
ATOM      7  C   UNL     1      -1.983  -1.123  -5.590  0.00  0.00    +0.133 A 
ATOM      8  C   UNL     1      -1.224  -0.544  -6.645  0.00  0.00    +0.051 A 
ATOM      9  C   UNL     1      -0.025   0.296  -6.553  0.00  0.00    -0.025 A 
ATOM     10  C   UNL     1       0.505   0.724  -7.715  0.00  0.00    -0.004 A 
ATOM     11  S   UNL     1      -0.532   0.039  -8.981  0.00  0.00    -0.073 S 
ATOM     12  C   UNL     1      -1.688  -0.818  -7.945  0.00  0.00    +0.114 A 
ATOM     13  N   UNL     1      -2.757  -1.562  -8.154  0.00  0.00    -0.228 NA
ATOM     14  C   UNL     1      -3.421  -2.073  -7.136  0.00  0.00    +0.224 A 
ATOM     15  N   UNL     1      -3.040  -1.862  -5.888  0.00  0.00    -0.220 NA
ATOM     16  C   UNL     1       1.704   1.599  -7.911  0.00  0.00    +0.043 C 
ATOM     17  C   UNL     1       2.869   1.060  -7.070  0.00  0.00    +0.005 C 
ATOM     18  C   UNL     1       2.807   1.708  -5.691  0.00  0.00    +0.001 C 
ATOM     19  C   UNL     1       1.352   1.962  -5.299  0.00  0.00    +0.005 C 
ATOM     20  C   UNL     1       0.587   0.649  -5.199  0.00  0.00    +0.037 C 
ENDROOT
BRANCH   1  21
ATOM     21  S   UNL     1      -1.383  -1.086   0.004  0.00  0.00    +0.061 S 
ATOM     22  O   UNL     1      -0.850  -2.318   0.471  0.00  0.00    -0.153 OA
ATOM     23  O   UNL     1      -2.481  -0.443   0.635  0.00  0.00    -0.153 OA
BRANCH  21  29
ATOM     24  C   UNL     1      -0.319   1.426   0.086  0.00  0.00    +0.030 A 
ATOM     25  C   UNL     1       0.717   2.340   0.089  0.00  0.00    +0.030 A 
ATOM     26  C   UNL     1       2.028   1.897   0.011  0.00  0.00    +0.067 A 
ATOM     27  C   UNL     1       2.297   0.529  -0.070  0.00  0.00    +0.069 A 
ATOM     28  C   UNL     1       1.251  -0.381  -0.073  0.00  0.00    +0.056 A 
ATOM     29  C   UNL     1      -0.053   0.070   0.006  0.00  0.00    +0.108 A 
ATOM     30  N   UNL     1       3.681   0.394  -0.135  0.00  0.00    -0.306 N 
ATOM     31  H   UNL     1       4.168  -0.443  -0.198  0.00  0.00    +0.170 HD
ATOM     32  C   UNL     1       4.230   1.622  -0.095  0.00  0.00    +0.325 A 
ATOM     33  O   UNL     1       5.423   1.859  -0.134  0.00  0.00    -0.247 OA
ATOM     34  N   UNL     1       3.259   2.550  -0.007  0.00  0.00    -0.306 N 
ATOM     35  H   UNL     1       3.392   3.510   0.036  0.00  0.00    +0.170 HD
ENDBRANCH  21  29
ENDBRANCH   1  21
TORSDOF 2
