REMARK  Name = ZINC42567985
REMARK  5 active torsions:
REMARK  status: ('A' for Active; 'I' for Inactive)
REMARK    1  A    between atoms: C_1  and  C_2
REMARK    2  A    between atoms: N_5  and  C_7
REMARK    3  A    between atoms: C_10  and  C_13
REMARK    4  A    between atoms: N_15  and  N_16
REMARK    5  A    between atoms: C_17  and  C_19
REMARK                            x       y       z     vdW  Elec       q    Type
REMARK                         _______ _______ _______ _____ _____    ______ ____
ROOT
ATOM      1  C   UNL     1       0.109  -6.706   3.909  0.00  0.00    +0.260 C 
ATOM      2  O   UNL     1       0.108  -6.596   5.120  0.00  0.00    -0.269 OA
ATOM      3  N   UNL     1       0.129  -7.929   3.343  0.00  0.00    -0.230 N 
ATOM      4  H   UNL     1       0.130  -8.017   2.377  0.00  0.00    +0.173 HD
ENDROOT
BRANCH   1   8
ATOM      5  C   UNL     1       0.052  -3.235   1.462  0.00  0.00    +0.065 A 
ATOM      6  C   UNL     1       0.050  -3.107   2.846  0.00  0.00    +0.028 A 
ATOM      7  C   UNL     1       0.068  -4.231   3.643  0.00  0.00    +0.015 A 
ATOM      8  C   UNL     1       0.089  -5.499   3.058  0.00  0.00    +0.038 A 
ATOM      9  C   UNL     1       0.091  -5.623   1.667  0.00  0.00    +0.015 A 
ATOM     10  C   UNL     1       0.067  -4.496   0.876  0.00  0.00    +0.028 A 
BRANCH   5  15
ATOM     11  C   UNL     1      -0.018   1.503   0.010  0.00  0.00    +0.047 C 
ATOM     12  C   UNL     1       0.002  -0.004   0.002  0.00  0.00    -0.013 A 
ATOM     13  C   UNL     1       0.009  -0.821  -1.135  0.00  0.00    +0.138 A 
ATOM     14  N   UNL     1       0.027  -2.070  -0.745  0.00  0.00    -0.175 NA
ATOM     15  N   UNL     1       0.033  -2.092   0.656  0.00  0.00    -0.240 N 
ATOM     16  C   UNL     1       0.023  -0.805   1.092  0.00  0.00    +0.117 A 
ENDBRANCH   5  15
ENDBRANCH   1   8
BRANCH   3  17
ATOM     17  N   UNL     1       0.149  -9.074   4.151  0.00  0.00    -0.231 N 
ATOM     18  C   UNL     1       0.169 -10.297   3.585  0.00  0.00    +0.273 C 
ATOM     19  O   UNL     1       0.170 -10.407   2.377  0.00  0.00    -0.270 OA
ATOM     20  H   UNL     1       0.148  -8.986   5.117  0.00  0.00    +0.173 HD
BRANCH  18  21
ATOM     21  C   UNL     1       0.189 -11.529   4.453  0.00  0.00    +0.297 C 
ATOM     22  C   UNL     1      -1.124 -11.629   5.240  0.00  0.00    +0.283 C 
ATOM     23  O   UNL     1      -1.077 -12.815   6.042  0.00  0.00    -0.484 OA
ATOM     24  C   UNL     1      -0.648 -13.951   5.428  0.00  0.00    +0.162 A 
ATOM     25  C   UNL     1      -0.913 -15.181   6.011  0.00  0.00    +0.049 A 
ATOM     26  C   UNL     1      -0.482 -16.344   5.402  0.00  0.00    +0.004 A 
ATOM     27  C   UNL     1       0.214 -16.285   4.209  0.00  0.00    +0.004 A 
ATOM     28  C   UNL     1       0.480 -15.062   3.621  0.00  0.00    +0.049 A 
ATOM     29  C   UNL     1       0.049 -13.892   4.228  0.00  0.00    +0.163 A 
ATOM     30  O   UNL     1       0.312 -12.696   3.633  0.00  0.00    -0.472 OA
ENDBRANCH  18  21
ENDBRANCH   3  17
TORSDOF 4
