REMARK  Name = ZINC39545581
REMARK  3 active torsions:
REMARK  status: ('A' for Active; 'I' for Inactive)
REMARK    1  A    between atoms: C_9  and  C_16
REMARK    2  A    between atoms: N_18  and  C_19
REMARK    3  A    between atoms: C_24  and  O_25
REMARK                            x       y       z     vdW  Elec       q    Type
REMARK                         _______ _______ _______ _____ _____    ______ ____
ROOT
ATOM      1  C   UNL     1      -0.017   1.377   0.010  0.00  0.00    +0.000 A 
ATOM      2  C   UNL     1       1.167   2.092   0.002  0.00  0.00    +0.002 A 
ATOM      3  C   UNL     1       2.376   1.422  -0.004  0.00  0.00    +0.023 A 
ATOM      4  C   UNL     1       2.394   0.035  -0.008  0.00  0.00    +0.027 A 
ATOM      5  C   UNL     1       1.208  -0.684  -0.016  0.00  0.00    -0.043 A 
ATOM      6  C   UNL     1       0.002  -0.004   0.002  0.00  0.00    +0.003 A 
ATOM      7  C   UNL     1       1.218  -2.182  -0.066  0.00  0.00    -0.037 C 
ATOM      8  N   UNL     1       2.468  -2.766   0.434  0.00  0.00    +0.407 N 
ATOM      9  C   UNL     1       2.534  -4.142  -0.142  0.00  0.00    +0.031 C 
ATOM     10  C   UNL     1       3.218  -3.996  -1.516  0.00  0.00    +0.068 C 
ATOM     11  C   UNL     1       3.601  -2.522  -1.619  0.00  0.00    +0.136 C 
ATOM     12  C   UNL     1       3.641  -2.094  -0.167  0.00  0.00    +0.085 C 
ATOM     13  N   UNL     1       3.607  -0.658   0.008  0.00  0.00    -0.350 N 
ATOM     14  O   UNL     1       3.818  -1.864  -2.608  0.00  0.00    -0.298 OA
ATOM     15  H   UNL     1       4.436  -0.171   0.138  0.00  0.00    +0.145 HD
ATOM     16  H   UNL     1       2.503  -2.773   1.442  0.00  0.00    -0.077 HD
ENDROOT
BRANCH   9  17
ATOM     17  C   UNL     1       3.349  -5.041   0.753  0.00  0.00    +0.217 C 
ATOM     18  O   UNL     1       3.836  -4.601   1.773  0.00  0.00    -0.276 OA
ATOM     19  N   UNL     1       3.536  -6.333   0.419  0.00  0.00    -0.204 N 
ATOM     20 BR   UNL     1       2.793  -7.004  -1.136  0.00  0.00    +0.044 Br
BRANCH  19  21
ATOM     21  C   UNL     1       4.294  -7.168   1.251  0.00  0.00    +0.089 A 
ATOM     22  C   UNL     1       3.696  -7.806   2.328  0.00  0.00    +0.028 A 
ATOM     23  C   UNL     1       4.445  -8.630   3.146  0.00  0.00    +0.002 A 
ATOM     24  C   UNL     1       5.791  -8.820   2.895  0.00  0.00    +0.004 A 
ATOM     25  C   UNL     1       6.395  -8.187   1.824  0.00  0.00    +0.047 A 
ATOM     26  C   UNL     1       5.649  -7.364   0.995  0.00  0.00    +0.139 A 
BRANCH  26  27
ATOM     27  O   UNL     1       6.240  -6.746  -0.062  0.00  0.00    -0.505 OA
ATOM     28  H   UNL     1       6.608  -5.877   0.147  0.00  0.00    +0.292 HD
ENDBRANCH  26  27
ENDBRANCH  19  21
ENDBRANCH   9  17
TORSDOF 3
