REMARK  Name = ZINC39993533
REMARK  10 active torsions:
REMARK  status: ('A' for Active; 'I' for Inactive)
REMARK    1  A    between atoms: C_1  and  C_2
REMARK    2  A    between atoms: C_2  and  O_3
REMARK    3  A    between atoms: O_3  and  C_4
REMARK    4  A    between atoms: C_4  and  C_6
REMARK    5  A    between atoms: C_9  and  N_12
REMARK    6  A    between atoms: C_13  and  C_15
REMARK    7  A    between atoms: C_21  and  C_28
REMARK    8  A    between atoms: N_29  and  C_32
REMARK    9  A    between atoms: C_30  and  N_31
REMARK   10  A    between atoms: C_32  and  C_33
REMARK                            x       y       z     vdW  Elec       q    Type
REMARK                         _______ _______ _______ _____ _____    ______ ____
ROOT
ATOM      1  C   UNL     1       4.619  -5.922   7.033  0.00  0.00    +0.076 A 
ATOM      2  C   UNL     1       5.066  -5.070   8.046  0.00  0.00    +0.033 A 
ATOM      3  C   UNL     1       5.119  -5.570   9.345  0.00  0.00    +0.083 A 
ATOM      4  C   UNL     1       4.723  -6.911   9.602  0.00  0.00    +0.150 A 
ATOM      5  N   UNL     1       4.782  -7.371  10.856  0.00  0.00    -0.211 NA
ATOM      6  C   UNL     1       5.197  -6.619  11.868  0.00  0.00    +0.145 A 
ATOM      7  C   UNL     1       5.228  -7.186  13.160  0.00  0.00    -0.007 A 
ATOM      8  C   UNL     1       5.649  -6.436  14.214  0.00  0.00    +0.008 A 
ATOM      9  C   UNL     1       6.049  -5.107  14.005  0.00  0.00    +0.019 A 
ATOM     10  C   UNL     1       6.014  -4.577  12.763  0.00  0.00    +0.096 A 
ATOM     11  N   UNL     1       5.594  -5.319  11.698  0.00  0.00    -0.267 N 
ATOM     12  C   UNL     1       5.574  -4.751  10.469  0.00  0.00    +0.268 A 
ATOM     13  O   UNL     1       5.925  -3.597  10.305  0.00  0.00    -0.267 OA
ATOM     14  C   UNL     1       4.795  -8.614  13.371  0.00  0.00    +0.047 C 
ATOM     15  N   UNL     1       4.302  -7.687   8.601  0.00  0.00    -0.311 N 
ATOM     16  C   UNL     1       4.236  -7.242   7.361  0.00  0.00    +0.110 A 
ENDROOT
BRANCH   1  18
ATOM     17  N   UNL     1       5.000  -4.222   5.322  0.00  0.00    -0.281 N 
ATOM     18  C   UNL     1       4.541  -5.448   5.643  0.00  0.00    +0.252 C 
ATOM     19  O   UNL     1       4.063  -6.163   4.782  0.00  0.00    -0.270 OA
ATOM     20  H   UNL     1       5.450  -3.682   5.990  0.00  0.00    +0.155 HD
BRANCH  17  24
ATOM     21  C   UNL     1       4.487  -2.753   1.459  0.00  0.00    +0.059 A 
ATOM     22  C   UNL     1       5.626  -2.410   2.193  0.00  0.00    +0.017 A 
ATOM     23  C   UNL     1       5.792  -2.897   3.470  0.00  0.00    +0.024 A 
ATOM     24  C   UNL     1       4.828  -3.730   4.030  0.00  0.00    +0.034 A 
ATOM     25  C   UNL     1       3.692  -4.073   3.302  0.00  0.00    +0.024 A 
ATOM     26  C   UNL     1       3.517  -3.584   2.027  0.00  0.00    +0.017 A 
BRANCH  21  27
ATOM     27  C   UNL     1       4.305  -2.233   0.091  0.00  0.00    +0.339 C 
ATOM     28  O   UNL     1       3.312  -2.527  -0.544  0.00  0.00    -0.245 OA
BRANCH  27  29
ATOM     29  O   UNL     1       5.241  -1.431  -0.455  0.00  0.00    -0.461 OA
BRANCH  29  31
ATOM     30  C   UNL     1       6.162  -0.075  -2.230  0.00  0.00    +0.048 C 
ATOM     31  C   UNL     1       5.000  -0.965  -1.784  0.00  0.00    +0.229 C 
ENDBRANCH  29  31
ENDBRANCH  27  29
ENDBRANCH  21  27
ENDBRANCH  17  24
ENDBRANCH   1  18
BRANCH  16  32
ATOM     32  N   UNL     1       3.788  -8.083   6.364  0.00  0.00    -0.344 N 
ATOM     33  H   UNL     1       3.326  -7.718   5.593  0.00  0.00    +0.144 HD
ATOM     34  H   UNL     1       3.936  -9.039   6.434  0.00  0.00    +0.144 HD
ENDBRANCH  16  32
BRANCH  15  35
ATOM     35  C   UNL     1       3.900  -9.066   8.888  0.00  0.00    +0.156 C 
BRANCH  35  36
ATOM     36  C   UNL     1       2.405  -9.104   9.214  0.00  0.00    +0.138 C 
ATOM     37  C   UNL     1       1.997 -10.532   9.634  0.00  0.00    +0.035 C 
ATOM     38  C   UNL     1       0.606 -10.688   8.962  0.00  0.00    +0.031 C 
ATOM     39  C   UNL     1       0.812  -9.867   7.664  0.00  0.00    +0.160 C 
ATOM     40  O   UNL     1       1.645  -8.759   8.049  0.00  0.00    -0.375 OA
ENDBRANCH  35  36
ENDBRANCH  15  35
TORSDOF 8
