REMARK  Name = ZINC03318517
REMARK  6 active torsions:
REMARK  status: ('A' for Active; 'I' for Inactive)
REMARK    1  A    between atoms: C_1  and  N_2
REMARK    2  A    between atoms: C_3  and  C_5
REMARK    3  A    between atoms: C_5  and  O_6
REMARK    4  A    between atoms: O_6  and  C_7
REMARK    5  A    between atoms: C_7  and  C_9
REMARK    6  A    between atoms: C_18  and  O_19
REMARK                            x       y       z     vdW  Elec       q    Type
REMARK                         _______ _______ _______ _____ _____    ______ ____
ROOT
ATOM      1  C   UNL     1      -2.425   1.364   0.034  0.00  0.00    +0.101 A 
ATOM      2  C   UNL     1      -1.245   2.091   0.031  0.00  0.00    +0.027 A 
ATOM      3  C   UNL     1      -0.017   1.415   0.010  0.00  0.00    -0.017 A 
ATOM      4  C   UNL     1       1.200   2.121   0.002  0.00  0.00    +0.008 A 
ATOM      5  C   UNL     1       2.376   1.436  -0.013  0.00  0.00    +0.001 A 
ATOM      6  C   UNL     1       2.394   0.043  -0.021  0.00  0.00    +0.001 A 
ATOM      7  C   UNL     1       1.238  -0.674  -0.013  0.00  0.00    +0.008 A 
ATOM      8  C   UNL     1       0.002  -0.004   0.002  0.00  0.00    -0.014 A 
ATOM      9  C   UNL     1      -1.208  -0.718   0.010  0.00  0.00    +0.054 A 
ATOM     10  C   UNL     1      -2.395  -0.047   0.026  0.00  0.00    +0.131 A 
ENDROOT
BRANCH   1  11
ATOM     11  C   UNL     1      -3.720   2.069   0.050  0.00  0.00    +0.343 C 
ATOM     12  O   UNL     1      -4.757   1.435   0.057  0.00  0.00    -0.245 OA
BRANCH  11  13
ATOM     13  O   UNL     1      -3.754   3.416   0.058  0.00  0.00    -0.452 OA
BRANCH  13  14
ATOM     14  C   UNL     1      -5.063   4.043   0.074  0.00  0.00    +0.328 C 
BRANCH  14  17
ATOM     15  C   UNL     1      -5.836   7.792   0.102  0.00  0.00    +0.128 C 
ATOM     16  N   UNL     1      -5.992   6.335   0.096  0.00  0.00    -0.316 N 
ATOM     17  C   UNL     1      -4.903   5.541   0.081  0.00  0.00    +0.251 C 
ATOM     18  O   UNL     1      -3.794   6.033   0.072  0.00  0.00    -0.272 OA
ATOM     19  H   UNL     1      -6.879   5.942   0.102  0.00  0.00    +0.148 HD
ENDBRANCH  14  17
ENDBRANCH  13  14
ENDBRANCH  11  13
ENDBRANCH   1  11
BRANCH  10  20
ATOM     20  O   UNL     1      -3.560  -0.744   0.033  0.00  0.00    -0.506 OA
ATOM     21  H   UNL     1      -3.889  -0.951   0.918  0.00  0.00    +0.292 HD
ENDBRANCH  10  20
TORSDOF 5
