REMARK  Name = ZINC21690756
REMARK  7 active torsions:
REMARK  status: ('A' for Active; 'I' for Inactive)
REMARK    1  A    between atoms: C_1  and  C_2
REMARK    2  A    between atoms: C_4  and  N_26
REMARK    3  A    between atoms: C_7  and  N_8
REMARK    4  A    between atoms: C_9  and  C_11
REMARK    5  A    between atoms: N_13  and  C_14
REMARK    6  A    between atoms: C_14  and  C_15
REMARK    7  A    between atoms: C_15  and  C_21
REMARK                            x       y       z     vdW  Elec       q    Type
REMARK                         _______ _______ _______ _____ _____    ______ ____
ROOT
ATOM      1  C   UNL     1      -4.627   2.289   2.379  0.00  0.00    +0.299 C 
ATOM      2  O   UNL     1      -5.001   3.144   3.155  0.00  0.00    -0.265 OA
ATOM      3  N   UNL     1      -3.752   2.602   1.403  0.00  0.00    -0.307 N 
ATOM      4  H   UNL     1      -3.413   1.827   0.699  0.00  0.00    +0.149 HD
ENDROOT
BRANCH   1   6
ATOM      5  N   UNL     1      -6.011   0.579   3.482  0.00  0.00    -0.278 N 
ATOM      6  C   UNL     1      -5.136   0.891   2.506  0.00  0.00    +0.303 C 
ATOM      7  O   UNL     1      -4.762   0.036   1.730  0.00  0.00    -0.265 OA
ATOM      8  H   UNL     1      -6.280   1.329   4.241  0.00  0.00    +0.155 HD
BRANCH   5  15
ATOM      9  C   UNL     1      -6.923  -0.391   5.997  0.00  0.00    +0.046 C 
ATOM     10  C   UNL     1      -7.035  -1.211   4.738  0.00  0.00    -0.027 A 
ATOM     11  C   UNL     1      -7.597  -2.472   4.782  0.00  0.00    +0.038 A 
ATOM     12  C   UNL     1      -7.696  -3.227   3.628  0.00  0.00    +0.127 A 
ATOM     13  C   UNL     1      -7.236  -2.722   2.426  0.00  0.00    +0.034 A 
ATOM     14  C   UNL     1      -6.677  -1.460   2.374  0.00  0.00    +0.026 A 
ATOM     15  C   UNL     1      -6.577  -0.698   3.531  0.00  0.00    +0.037 A 
BRANCH  12  16
ATOM     16  N   UNL     1      -8.294  -4.580   3.680  0.00  0.00    +0.056 N 
ATOM     17  O   UNL     1      -8.380  -5.247   2.665  0.00  0.00    -0.126 OA
ATOM     18  O   UNL     1      -8.699  -5.027   4.739  0.00  0.00    -0.126 OA
ENDBRANCH  12  16
ENDBRANCH   5  15
ENDBRANCH   1   6
BRANCH   3  19
ATOM     19  C   UNL     1      -3.253   3.974   1.278  0.00  0.00    +0.116 C 
BRANCH  19  20
ATOM     20  C   UNL     1      -2.380   4.087   0.027  0.00  0.00    +0.022 C 
ATOM     21  C   UNL     1      -1.754   5.484  -0.039  0.00  0.00    +0.042 C 
ATOM     22  C   UNL     1      -0.837   5.681   1.171  0.00  0.00    +0.161 C 
ATOM     23  O   UNL     1       0.161   4.659   1.183  0.00  0.00    -0.380 OA
ATOM     24  C   UNL     1      -0.363   3.333   1.291  0.00  0.00    +0.161 C 
ATOM     25  C   UNL     1      -1.262   3.041   0.086  0.00  0.00    +0.042 C 
BRANCH  20  26
ATOM     26  C   UNL     1      -3.223   3.854  -1.200  0.00  0.00    -0.002 A 
ATOM     27  C   UNL     1      -4.356   4.487  -1.589  0.00  0.00    +0.012 A 
ATOM     28  C   UNL     1      -4.971   4.099  -2.765  0.00  0.00    +0.008 A 
ATOM     29  C   UNL     1      -4.416   3.104  -3.499  0.00  0.00    +0.045 A 
ATOM     30  S   UNL     1      -2.985   2.677  -2.521  0.00  0.00    -0.101 S 
ENDBRANCH  20  26
ENDBRANCH  19  20
ENDBRANCH   3  19
TORSDOF 6
