REMARK  Name = ZINC05345552
REMARK  7 active torsions:
REMARK  status: ('A' for Active; 'I' for Inactive)
REMARK    1  A    between atoms: C_1  and  C_2
REMARK    2  A    between atoms: C_2  and  C_3
REMARK    3  A    between atoms: C_3  and  C_5
REMARK    4  A    between atoms: C_3  and  N_6
REMARK    5  A    between atoms: C_11  and  C_27
REMARK    6  A    between atoms: C_27  and  C_28
REMARK    7  A    between atoms: C_28  and  C_29
REMARK                            x       y       z     vdW  Elec       q    Type
REMARK                         _______ _______ _______ _____ _____    ______ ____
ROOT
ATOM      1  N   UNL     1       0.032   4.102   0.798  0.00  0.00    -0.239 N 
ATOM      2  C   UNL     1      -0.526   3.880  -0.397  0.00  0.00    +0.224 C 
ATOM      3  O   UNL     1      -1.502   4.453  -0.832  0.00  0.00    -0.275 OA
ATOM      4  C   UNL     1       0.249   2.803  -1.121  0.00  0.00    +0.073 C 
ATOM      5  C   UNL     1      -0.625   1.536  -1.239  0.00  0.00    -0.057 C 
ATOM      6  C   UNL     1       1.054   0.977   0.287  0.00  0.00    +0.050 C 
ATOM      7  C   UNL     1       1.368   2.425  -0.110  0.00  0.00    +0.088 C 
ATOM      8  C   UNL     1       1.101   3.343   1.062  0.00  0.00    +0.225 C 
ATOM      9  O   UNL     1       1.756   3.384   2.081  0.00  0.00    -0.275 OA
ATOM     10  C   UNL     1       1.391   0.711   1.726  0.00  0.00    -0.028 A 
ATOM     11  C   UNL     1       0.973   1.265   2.916  0.00  0.00    +0.004 A 
ATOM     12  C   UNL     1       1.476   0.791   4.115  0.00  0.00    +0.000 A 
ATOM     13  C   UNL     1       2.398  -0.239   4.115  0.00  0.00    +0.002 A 
ATOM     14  C   UNL     1       2.821  -0.795   2.926  0.00  0.00    +0.023 A 
ATOM     15  C   UNL     1       2.321  -0.325   1.715  0.00  0.00    +0.036 A 
ATOM     16  N   UNL     1       2.591  -0.716   0.402  0.00  0.00    -0.286 N 
ATOM     17  C   UNL     1       1.888   0.000  -0.497  0.00  0.00    +0.211 C 
ATOM     18  O   UNL     1       1.919  -0.120  -1.703  0.00  0.00    -0.277 OA
ATOM     19  H   UNL     1       3.212  -1.422   0.164  0.00  0.00    +0.155 HD
ATOM     20  N   UNL     1      -0.360   0.807   0.004  0.00  0.00    +0.394 N 
ATOM     21  H   UNL     1      -0.581  -0.189  -0.116  0.00  0.00    -0.083 HD
ATOM     22  H   UNL     1      -0.925   1.193   0.769  0.00  0.00    -0.083 HD
ENDROOT
BRANCH   1  23
ATOM     23  C   UNL     1      -0.486   5.095   1.742  0.00  0.00    +0.081 C 
ATOM     24  C   UNL     1      -0.447   6.482   1.097  0.00  0.00    +0.028 C 
BRANCH  23  26
ATOM     25  C   UNL     1      -1.955   3.416   2.867  0.00  0.00    +0.006 C 
ATOM     26  C   UNL     1      -1.930   4.745   2.110  0.00  0.00    +0.019 C 
ENDBRANCH  23  26
ENDBRANCH   1  23
BRANCH   5  27
ATOM     27  C   UNL     1      -0.190   0.700  -2.444  0.00  0.00    -0.004 C 
BRANCH  27  28
ATOM     28  C   UNL     1      -1.017   1.101  -3.667  0.00  0.00    +0.123 C 
BRANCH  28  29
ATOM     29  C   UNL     1      -0.589   0.277  -4.855  0.00  0.00    +0.356 C 
ATOM     30  O   UNL     1       0.288  -0.546  -4.735  0.00  0.00    -0.246 OA
ATOM     31  O   UNL     1      -1.181   0.458  -6.045  0.00  0.00    -0.246 OA
ENDBRANCH  28  29
ENDBRANCH  27  28
ENDBRANCH   5  27
TORSDOF 5
