REMARK  Name = ZINC66859835
REMARK  5 active torsions:
REMARK  status: ('A' for Active; 'I' for Inactive)
REMARK    1  A    between atoms: C_1  and  C_2
REMARK    2  A    between atoms: C_5  and  N_8
REMARK    3  A    between atoms: N_13  and  C_14
REMARK    4  A    between atoms: C_14  and  C_15
REMARK    5  A    between atoms: C_15  and  O_25
REMARK                            x       y       z     vdW  Elec       q    Type
REMARK                         _______ _______ _______ _____ _____    ______ ____
ROOT
ATOM      1  N   UNL     1       0.177  -4.147  -0.110  0.00  0.00    -0.181 N 
ATOM      2  C   UNL     1       0.863  -4.973   0.718  0.00  0.00    +0.240 A 
ATOM      3  N   UNL     1       0.621  -6.203   0.323  0.00  0.00    -0.092 NA
ATOM      4  N   UNL     1      -0.167  -6.204  -0.691  0.00  0.00    -0.021 NA
ATOM      5  N   UNL     1      -0.487  -4.997  -1.012  0.00  0.00    -0.038 NA
ATOM      6  N   UNL     1       1.667  -4.592   1.778  0.00  0.00    -0.309 N 
ATOM      7  H   UNL     1       1.753  -3.654   2.009  0.00  0.00    +0.149 HD
ENDROOT
BRANCH   1  12
ATOM      8  C   UNL     1      -0.002   1.525   0.047  0.00  0.00    +0.044 C 
ATOM      9  C   UNL     1       0.046   0.019   0.005  0.00  0.00    -0.050 A 
ATOM     10  C   UNL     1       0.143  -0.635  -1.210  0.00  0.00    +0.005 A 
ATOM     11  C   UNL     1       0.187  -2.015  -1.251  0.00  0.00    +0.028 A 
ATOM     12  C   UNL     1       0.133  -2.745  -0.072  0.00  0.00    +0.071 A 
ATOM     13  C   UNL     1       0.036  -2.086   1.146  0.00  0.00    +0.028 A 
ATOM     14  C   UNL     1      -0.003  -0.706   1.182  0.00  0.00    +0.005 A 
ENDBRANCH   1  12
BRANCH   6  15
ATOM     15  C   UNL     1       2.388  -5.606   2.551  0.00  0.00    +0.144 C 
BRANCH  15  16
ATOM     16  C   UNL     1       3.144  -4.931   3.697  0.00  0.00    +0.107 C 
ATOM     17  C   UNL     1       4.066  -3.855   3.127  0.00  0.00    +0.041 C 
ATOM     18  C   UNL     1       4.969  -3.344   4.256  0.00  0.00    +0.008 C 
ATOM     19  C   UNL     1       5.956  -4.451   4.621  0.00  0.00    +0.035 C 
ATOM     20  C   UNL     1       5.230  -5.746   4.873  0.00  0.00    -0.041 A 
ATOM     21  C   UNL     1       3.940  -5.968   4.445  0.00  0.00    -0.011 A 
ATOM     22  C   UNL     1       3.330  -7.189   4.705  0.00  0.00    +0.007 A 
ATOM     23  C   UNL     1       4.005  -8.178   5.390  0.00  0.00    +0.000 A 
ATOM     24  C   UNL     1       5.298  -7.954   5.823  0.00  0.00    +0.000 A 
ATOM     25  C   UNL     1       5.907  -6.743   5.564  0.00  0.00    +0.004 A 
BRANCH  16  26
ATOM     26  O   UNL     1       2.206  -4.324   4.587  0.00  0.00    -0.382 OA
ATOM     27  H   UNL     1       1.580  -4.946   4.983  0.00  0.00    +0.211 HD
ENDBRANCH  16  26
ENDBRANCH  15  16
ENDBRANCH   6  15
TORSDOF 4
