REMARK  Name = ZINC06291093
REMARK  6 active torsions:
REMARK  status: ('A' for Active; 'I' for Inactive)
REMARK    1  A    between atoms: C_3  and  C_22
REMARK    2  A    between atoms: C_6  and  N_7
REMARK    3  A    between atoms: C_8  and  C_10
REMARK    4  A    between atoms: C_10  and  O_11
REMARK    5  A    between atoms: O_11  and  C_12
REMARK    6  A    between atoms: C_12  and  C_14
REMARK                            x       y       z     vdW  Elec       q    Type
REMARK                         _______ _______ _______ _____ _____    ______ ____
ROOT
ATOM      1  N   UNL     1      -7.193   1.695  -4.690  0.00  0.00    -0.283 N 
ATOM      2  C   UNL     1      -6.439   1.617  -3.575  0.00  0.00    +0.255 C 
ATOM      3  O   UNL     1      -6.952   1.325  -2.515  0.00  0.00    -0.272 OA
ATOM      4  H   UNL     1      -6.799   2.002  -5.521  0.00  0.00    +0.155 HD
ENDROOT
BRANCH   1  10
ATOM      5  C   UNL     1      -8.959   0.310  -3.806  0.00  0.00    +0.024 A 
ATOM      6  C   UNL     1     -10.288  -0.045  -3.756  0.00  0.00    +0.022 A 
ATOM      7  C   UNL     1     -11.218   0.620  -4.561  0.00  0.00    +0.070 A 
ATOM      8  C   UNL     1     -10.793   1.647  -5.411  0.00  0.00    +0.060 A 
ATOM      9  C   UNL     1      -9.461   2.000  -5.451  0.00  0.00    +0.044 A 
ATOM     10  C   UNL     1      -8.541   1.336  -4.647  0.00  0.00    +0.035 A 
ATOM     11 CL   UNL     1     -11.942   2.477  -6.414  0.00  0.00    -0.082 Cl
BRANCH   7  12
ATOM     12  C   UNL     1     -12.600   0.250  -4.517  0.00  0.00    +0.101 C 
ATOM     13  N   UNL     1     -13.697  -0.044  -4.482  0.00  0.00    -0.191 NA
ENDBRANCH   7  12
ENDBRANCH   1  10
BRANCH   2  14
ATOM     14  C   UNL     1      -4.959   1.890  -3.646  0.00  0.00    +0.328 C 
BRANCH  14  15
ATOM     15  O   UNL     1      -4.376   1.742  -2.325  0.00  0.00    -0.455 OA
BRANCH  15  16
ATOM     16  C   UNL     1      -3.055   1.954  -2.214  0.00  0.00    +0.311 C 
ATOM     17  O   UNL     1      -2.407   2.252  -3.190  0.00  0.00    -0.251 OA
BRANCH  16  18
ATOM     18  C   UNL     1      -2.379   1.818  -0.874  0.00  0.00    +0.102 C 
ATOM     19  C   UNL     1      -0.880   2.110  -1.020  0.00  0.00    +0.019 C 
ATOM     20  C   UNL     1      -0.194   1.792   0.310  0.00  0.00    +0.028 C 
ATOM     21  C   UNL     1      -0.935   2.445   1.440  0.00  0.00    -0.031 C 
ATOM     22  C   UNL     1      -2.144   2.893   1.355  0.00  0.00    -0.030 C 
ATOM     23  C   UNL     1      -2.976   2.830   0.107  0.00  0.00    +0.041 C 
ENDBRANCH  16  18
ENDBRANCH  15  16
ENDBRANCH  14  15
ENDBRANCH   2  14
TORSDOF 6
