REMARK  Name = ZINC35082661
REMARK  4 active torsions:
REMARK  status: ('A' for Active; 'I' for Inactive)
REMARK    1  A    between atoms: C_1  and  C_2
REMARK    2  A    between atoms: N_8  and  C_9
REMARK    3  A    between atoms: C_12  and  O_15
REMARK    4  A    between atoms: O_15  and  C_16
REMARK                            x       y       z     vdW  Elec       q    Type
REMARK                         _______ _______ _______ _____ _____    ______ ____
ROOT
ATOM      1  C   UNL     1      -2.049  -2.750   3.615  0.00  0.00    +0.067 A 
ATOM      2  C   UNL     1      -3.273  -2.303   3.114  0.00  0.00    +0.031 A 
ATOM      3  C   UNL     1      -4.425  -3.014   3.379  0.00  0.00    +0.048 A 
ATOM      4  C   UNL     1      -4.368  -4.171   4.142  0.00  0.00    +0.127 A 
ATOM      5  C   UNL     1      -3.154  -4.620   4.642  0.00  0.00    +0.048 A 
ATOM      6  C   UNL     1      -1.996  -3.918   4.377  0.00  0.00    +0.031 A 
ENDROOT
BRANCH   1  13
ATOM      7  C   UNL     1      -0.019   1.526   0.010  0.00  0.00    +0.021 C 
ATOM      8  C   UNL     1       0.002  -0.004   0.002  0.00  0.00    +0.068 C 
ATOM      9  C   UNL     1      -1.430  -0.587   0.110  0.00  0.00    +0.117 C 
ATOM     10  N   UNL     1      -1.444  -1.741   1.004  0.00  0.00    -0.323 N 
ATOM     11  C   UNL     1      -0.665  -1.603   2.141  0.00  0.00    +0.155 C 
ATOM     12  S   UNL     1       0.744  -0.671   1.550  0.00  0.00    -0.086 S 
ATOM     13  N   UNL     1      -0.901  -2.047   3.354  0.00  0.00    -0.226 NA
ATOM     14  H   UNL     1      -1.959  -2.542   0.817  0.00  0.00    +0.148 HD
ENDBRANCH   1  13
BRANCH   4  15
ATOM     15  O   UNL     1      -5.507  -4.869   4.402  0.00  0.00    -0.434 OA
BRANCH  15  16
ATOM     16  C   UNL     1      -5.377  -6.051   5.193  0.00  0.00    +0.541 C 
ATOM     17  F   UNL     1      -4.523  -6.953   4.549  0.00  0.00    -0.166 F 
ATOM     18  F   UNL     1      -4.846  -5.719   6.444  0.00  0.00    -0.166 F 
ENDBRANCH  15  16
ENDBRANCH   4  15
TORSDOF 3
