REMARK  Name = ZINC01817179
REMARK  9 active torsions:
REMARK  status: ('A' for Active; 'I' for Inactive)
REMARK    1  A    between atoms: C_1  and  C_2
REMARK    2  A    between atoms: C_3  and  C_23
REMARK    3  A    between atoms: N_11  and  C_14
REMARK    4  A    between atoms: C_14  and  C_15
REMARK    5  A    between atoms: C_17  and  C_21
REMARK    6  A    between atoms: C_18  and  N_20
REMARK    7  A    between atoms: C_23  and  O_25
REMARK    8  A    between atoms: O_25  and  C_26
REMARK    9  A    between atoms: C_26  and  C_27
REMARK                            x       y       z     vdW  Elec       q    Type
REMARK                         _______ _______ _______ _____ _____    ______ ____
ROOT
ATOM      1  C   UNL     1      -0.296   0.967  -0.086  0.00  0.00    +0.087 C 
ATOM      2  C   UNL     1      -1.007   1.517   1.124  0.00  0.00    +0.116 C 
ATOM      3  C   UNL     1      -1.043   2.845   1.305  0.00  0.00    +0.099 C 
ATOM      4  C   UNL     1      -1.739   3.441   2.494  0.00  0.00    +0.148 C 
ATOM      5  C   UNL     1      -3.036   4.092   2.083  0.00  0.00    -0.001 A 
ATOM      6  C   UNL     1      -4.186   3.611   1.499  0.00  0.00    +0.007 A 
ATOM      7  C   UNL     1      -5.238   4.471   1.233  0.00  0.00    +0.000 A 
ATOM      8  C   UNL     1      -5.129   5.812   1.556  0.00  0.00    +0.002 A 
ATOM      9  C   UNL     1      -3.977   6.296   2.141  0.00  0.00    +0.024 A 
ATOM     10  C   UNL     1      -2.914   5.437   2.410  0.00  0.00    +0.042 A 
ATOM     11  N   UNL     1      -1.666   5.683   2.984  0.00  0.00    -0.258 N 
ATOM     12  C   UNL     1      -0.917   4.569   3.069  0.00  0.00    +0.241 C 
ATOM     13  O   UNL     1       0.205   4.487   3.522  0.00  0.00    -0.273 OA
ATOM     14  C   UNL     1      -1.986   2.390   3.538  0.00  0.00    +0.110 C 
ATOM     15  C   UNL     1      -1.888   1.074   3.226  0.00  0.00    +0.199 C 
ATOM     16  O   UNL     1      -1.576   0.662   1.985  0.00  0.00    -0.445 OA
ENDROOT
BRANCH  15  17
ATOM     17  N   UNL     1      -2.113   0.137   4.204  0.00  0.00    -0.328 N 
ATOM     18  H   UNL     1      -2.046  -0.808   3.995  0.00  0.00    +0.145 HD
ATOM     19  H   UNL     1      -2.339   0.420   5.104  0.00  0.00    +0.145 HD
ENDBRANCH  15  17
BRANCH  14  20
ATOM     20  C   UNL     1      -2.326   2.781   4.873  0.00  0.00    +0.102 C 
ATOM     21  N   UNL     1      -2.596   3.091   5.932  0.00  0.00    -0.191 NA
ENDBRANCH  14  20
BRANCH   3  22
ATOM     22  C   UNL     1      -0.420   3.697   0.360  0.00  0.00    +0.340 C 
ATOM     23  O   UNL     1      -0.360   4.894   0.567  0.00  0.00    -0.245 OA
BRANCH  22  24
ATOM     24  O   UNL     1       0.106   3.180  -0.770  0.00  0.00    -0.457 OA
BRANCH  24  25
ATOM     25  C   UNL     1       0.818   4.078  -1.624  0.00  0.00    +0.259 C 
BRANCH  25  26
ATOM     26  C   UNL     1       1.432   3.308  -2.764  0.00  0.00    +0.006 C 
ATOM     27  C   UNL     1       1.344   3.767  -3.987  0.00  0.00    +0.007 C 
ENDBRANCH  25  26
ENDBRANCH  24  25
ENDBRANCH  22  24
ENDBRANCH   3  22
BRANCH  11  28
ATOM     28  C   UNL     1      -1.223   7.002   3.442  0.00  0.00    +0.202 C 
BRANCH  28  29
ATOM     29  C   UNL     1      -0.449   7.658   2.375  0.00  0.00    -0.086 C 
ATOM     30  C   UNL     1       0.168   8.180   1.524  0.00  0.00    +0.005 C 
ENDBRANCH  28  29
ENDBRANCH  11  28
TORSDOF 8
