REMARK  Name = ZINC49236277
REMARK  6 active torsions:
REMARK  status: ('A' for Active; 'I' for Inactive)
REMARK    1  A    between atoms: C_1  and  C_2
REMARK    2  A    between atoms: C_2  and  C_4
REMARK    3  A    between atoms: C_2  and  N_11
REMARK    4  A    between atoms: C_4  and  N_5
REMARK    5  A    between atoms: N_11  and  C_12
REMARK    6  A    between atoms: C_17  and  N_18
REMARK                            x       y       z     vdW  Elec       q    Type
REMARK                         _______ _______ _______ _____ _____    ______ ____
ROOT
ATOM      1  N   UNL     1       0.688  -0.476  -1.203  0.00  0.00    -0.338 N 
ATOM      2  H   UNL     1       1.632  -0.695  -1.170  0.00  0.00    +0.146 HD
ENDROOT
BRANCH   1   3
ATOM      3  C   UNL     1      -0.018  -0.613  -2.401  0.00  0.00    +0.061 A 
ATOM      4  C   UNL     1      -1.370  -0.295  -2.451  0.00  0.00    +0.025 A 
ATOM      5  C   UNL     1      -2.067  -0.430  -3.636  0.00  0.00    +0.005 A 
ATOM      6  C   UNL     1      -1.421  -0.882  -4.772  0.00  0.00    +0.041 A 
ATOM      7  C   UNL     1      -0.074  -1.200  -4.726  0.00  0.00    +0.155 A 
ATOM      8  C   UNL     1       0.630  -1.061  -3.544  0.00  0.00    +0.182 A 
ATOM      9  F   UNL     1       0.554  -1.640  -5.838  0.00  0.00    -0.203 F 
BRANCH   8  10
ATOM     10  N   UNL     1       2.071  -1.394  -3.495  0.00  0.00    +0.061 N 
ATOM     11  O   UNL     1       2.423  -2.518  -3.223  0.00  0.00    -0.126 OA
ATOM     12  O   UNL     1       2.897  -0.542  -3.728  0.00  0.00    -0.126 OA
ENDBRANCH   8  10
ENDBRANCH   1   3
BRANCH   1  14
ATOM     13  C   UNL     1      -0.019   1.526   0.010  0.00  0.00    +0.029 C 
ATOM     14  C   UNL     1       0.002  -0.004   0.002  0.00  0.00    +0.085 C 
BRANCH  14  15
ATOM     15  C   UNL     1       0.742  -0.511   1.242  0.00  0.00    +0.129 C 
BRANCH  15  16
ATOM     16  N   UNL     1       0.866  -1.969   1.174  0.00  0.00    -0.300 N 
ATOM     17  C   UNL     1      -0.122  -2.910   1.713  0.00  0.00    +0.108 C 
ATOM     18  C   UNL     1       0.193  -4.267   1.045  0.00  0.00    +0.028 C 
ATOM     19  C   UNL     1       1.695  -4.112   0.711  0.00  0.00    +0.097 C 
ATOM     20  C   UNL     1       1.898  -2.617   0.605  0.00  0.00    +0.216 C 
ATOM     21  O   UNL     1       2.853  -2.080   0.085  0.00  0.00    -0.276 OA
ENDBRANCH  15  16
ENDBRANCH  14  15
ENDBRANCH   1  14
TORSDOF 5
