REMARK  Name = ZINC39639149
REMARK  15 active torsions:
REMARK  status: ('A' for Active; 'I' for Inactive)
REMARK    1  A    between atoms: C_1  and  C_2
REMARK    2  A    between atoms: C_4  and  C_11
REMARK    3  A    between atoms: N_5  and  C_7
REMARK    4  A    between atoms: C_7  and  C_8
REMARK    5  A    between atoms: C_7  and  C_9
REMARK    6  A    between atoms: C_7  and  C_10
REMARK    7  A    between atoms: C_15  and  C_24
REMARK    8  A    between atoms: N_26  and  C_27
REMARK    9  A    between atoms: C_27  and  C_28
REMARK   10  A    between atoms: C_29  and  O_38
REMARK   11  A    between atoms: C_31  and  O_36
REMARK   12  A    between atoms: C_33  and  O_34
REMARK   13  A    between atoms: O_34  and  C_35
REMARK   14  A    between atoms: O_36  and  C_37
REMARK   15  A    between atoms: O_38  and  C_39
REMARK                            x       y       z     vdW  Elec       q    Type
REMARK                         _______ _______ _______ _____ _____    ______ ____
ROOT
ATOM      1  C   UNL     1      -0.593  -4.014  -1.476  0.00  0.00    +0.265 C 
ATOM      2  O   UNL     1      -0.833  -3.825  -2.653  0.00  0.00    -0.268 OA
ATOM      3  N   UNL     1      -0.696  -5.253  -0.957  0.00  0.00    -0.295 N 
ATOM      4  C   UNL     1      -0.576  -5.656   0.464  0.00  0.00    +0.121 C 
ATOM      5  C   UNL     1      -1.660  -6.740   0.655  0.00  0.00    +0.100 C 
ATOM      6  C   UNL     1      -1.903  -7.306  -0.754  0.00  0.00    -0.004 C 
ATOM      7  C   UNL     1      -0.960  -6.521  -1.679  0.00  0.00    +0.115 C 
ATOM      8  C   UNL     1      -1.565  -8.793  -0.792  0.00  0.00    -0.010 C 
ATOM      9  C   UNL     1      -1.869  -9.345  -2.188  0.00  0.00    -0.082 C 
ATOM     10  N   UNL     1      -3.288  -9.138  -2.499  0.00  0.00    +0.379 N 
ATOM     11  C   UNL     1      -3.584  -7.701  -2.552  0.00  0.00    -0.082 C 
ATOM     12  C   UNL     1      -3.352  -7.079  -1.172  0.00  0.00    -0.010 C 
ATOM     13  H   UNL     1      -3.499  -9.556  -3.393  0.00  0.00    -0.086 HD
ATOM     14  H   UNL     1      -3.855  -9.570  -1.786  0.00  0.00    -0.086 HD
ENDROOT
BRANCH   1  18
ATOM     15  C   UNL     1       1.026  -1.181   2.407  0.00  0.00    +0.067 C 
ATOM     16  C   UNL     1       0.514  -1.639   1.065  0.00  0.00    +0.061 A 
ATOM     17  C   UNL     1       0.262  -2.959   0.689  0.00  0.00    +0.057 A 
ATOM     18  C   UNL     1      -0.190  -2.888  -0.618  0.00  0.00    +0.124 A 
ATOM     19  N   UNL     1      -0.187  -1.563  -0.951  0.00  0.00    -0.254 N 
ATOM     20  N   UNL     1       0.222  -0.868   0.049  0.00  0.00    -0.175 NA
BRANCH  19  21
ATOM     21  C   UNL     1      -0.593  -1.018  -2.248  0.00  0.00    +0.056 C 
ATOM     22  C   UNL     1      -2.011  -1.490  -2.579  0.00  0.00    +0.036 C 
ATOM     23  C   UNL     1      -0.565   0.511  -2.191  0.00  0.00    +0.036 C 
ATOM     24  C   UNL     1       0.372  -1.506  -3.331  0.00  0.00    +0.036 C 
ENDBRANCH  19  21
ENDBRANCH   1  18
BRANCH   5  25
ATOM     25  C   UNL     1      -1.164  -7.822   1.579  0.00  0.00    +0.218 C 
ATOM     26  O   UNL     1       0.025  -8.045   1.668  0.00  0.00    -0.275 OA
ATOM     27  N   UNL     1      -2.040  -8.541   2.307  0.00  0.00    -0.311 N 
ATOM     28  H   UNL     1      -2.994  -8.417   2.180  0.00  0.00    +0.149 HD
BRANCH  27  29
ATOM     29  C   UNL     1      -1.553  -9.511   3.291  0.00  0.00    +0.147 C 
BRANCH  29  30
ATOM     30  C   UNL     1      -2.727 -10.177   3.964  0.00  0.00    +0.053 A 
ATOM     31  C   UNL     1      -3.271  -9.624   5.114  0.00  0.00    +0.132 A 
ATOM     32  C   UNL     1      -4.351 -10.237   5.733  0.00  0.00    +0.091 A 
ATOM     33  C   UNL     1      -4.886 -11.401   5.202  0.00  0.00    +0.127 A 
ATOM     34  C   UNL     1      -4.342 -11.952   4.051  0.00  0.00    +0.091 A 
ATOM     35  C   UNL     1      -3.265 -11.338   3.430  0.00  0.00    +0.132 A 
BRANCH  35  36
ATOM     36  O   UNL     1      -2.735 -11.876   2.300  0.00  0.00    -0.495 OA
ATOM     37  C   UNL     1      -3.339 -13.072   1.806  0.00  0.00    +0.277 C 
ENDBRANCH  35  36
BRANCH  33  38
ATOM     38  O   UNL     1      -5.943 -12.001   5.809  0.00  0.00    -0.495 OA
ATOM     39  C   UNL     1      -6.443 -13.197   5.207  0.00  0.00    +0.277 C 
ENDBRANCH  33  38
BRANCH  31  40
ATOM     40  O   UNL     1      -2.747  -8.484   5.634  0.00  0.00    -0.495 OA
ATOM     41  C   UNL     1      -3.357  -7.971   6.820  0.00  0.00    +0.277 C 
ENDBRANCH  31  40
ENDBRANCH  29  30
ENDBRANCH  27  29
ENDBRANCH   5  25
TORSDOF 8
