REMARK  Name = ZINC39600748
REMARK  7 active torsions:
REMARK  status: ('A' for Active; 'I' for Inactive)
REMARK    1  A    between atoms: C_1  and  C_2
REMARK    2  A    between atoms: C_2  and  C_3
REMARK    3  A    between atoms: C_3  and  C_5
REMARK    4  A    between atoms: C_3  and  C_6
REMARK    5  A    between atoms: C_10  and  C_19
REMARK    6  A    between atoms: N_21  and  C_22
REMARK    7  A    between atoms: C_22  and  C_23
REMARK                            x       y       z     vdW  Elec       q    Type
REMARK                         _______ _______ _______ _____ _____    ______ ____
ROOT
ATOM      1  C   UNL     1      -1.378  -2.193  -0.100  0.00  0.00    +0.218 C 
ATOM      2  O   UNL     1      -0.340  -2.802  -0.249  0.00  0.00    -0.275 OA
ATOM      3  N   UNL     1      -2.555  -2.847  -0.145  0.00  0.00    -0.300 N 
ATOM      4  C   UNL     1      -3.916  -2.280   0.007  0.00  0.00    +0.121 C 
ATOM      5  C   UNL     1      -4.774  -3.040  -1.029  0.00  0.00    +0.100 C 
ATOM      6  C   UNL     1      -4.026  -4.363  -1.263  0.00  0.00    -0.004 C 
ATOM      7  C   UNL     1      -2.782  -4.295  -0.364  0.00  0.00    +0.115 C 
ATOM      8  C   UNL     1      -3.607  -4.481  -2.725  0.00  0.00    -0.010 C 
ATOM      9  C   UNL     1      -2.915  -5.830  -2.945  0.00  0.00    -0.082 C 
ATOM     10  N   UNL     1      -3.835  -6.917  -2.589  0.00  0.00    +0.379 N 
ATOM     11  C   UNL     1      -4.160  -6.850  -1.159  0.00  0.00    -0.082 C 
ATOM     12  C   UNL     1      -4.904  -5.545  -0.864  0.00  0.00    -0.010 C 
ATOM     13  H   UNL     1      -4.682  -6.830  -3.130  0.00  0.00    -0.086 HD
ATOM     14  H   UNL     1      -3.399  -7.804  -2.793  0.00  0.00    -0.086 HD
ENDROOT
BRANCH   5  15
ATOM     15  C   UNL     1      -6.151  -3.304  -0.477  0.00  0.00    +0.218 C 
ATOM     16  O   UNL     1      -6.307  -3.461   0.715  0.00  0.00    -0.275 OA
ATOM     17  N   UNL     1      -7.210  -3.365  -1.309  0.00  0.00    -0.311 N 
ATOM     18  H   UNL     1      -7.085  -3.240  -2.263  0.00  0.00    +0.149 HD
BRANCH  17  19
ATOM     19  C   UNL     1      -8.549  -3.622  -0.773  0.00  0.00    +0.142 C 
BRANCH  19  20
ATOM     20  C   UNL     1      -9.547  -3.642  -1.902  0.00  0.00    +0.006 A 
ATOM     21  C   UNL     1     -10.323  -2.527  -2.158  0.00  0.00    +0.023 A 
ATOM     22  C   UNL     1     -11.239  -2.545  -3.194  0.00  0.00    +0.018 A 
ATOM     23  C   UNL     1     -11.379  -3.678  -3.975  0.00  0.00    +0.018 A 
ATOM     24  C   UNL     1     -10.604  -4.793  -3.721  0.00  0.00    +0.040 A 
ATOM     25  C   UNL     1      -9.682  -4.774  -2.687  0.00  0.00    +0.128 A 
ATOM     26  F   UNL     1      -8.919  -5.862  -2.441  0.00  0.00    -0.205 F 
ATOM     27 BR   UNL     1     -12.302  -1.020  -3.542  0.00  0.00    -0.050 Br
ENDBRANCH  19  20
ENDBRANCH  17  19
ENDBRANCH   5  15
BRANCH   1  28
ATOM     28  C   UNL     1      -1.351  -0.705   0.136  0.00  0.00    +0.072 C 
ATOM     29  C   UNL     1      -2.001  -0.390   1.485  0.00  0.00    +0.017 C 
BRANCH  28  31
ATOM     30  C   UNL     1       0.121   1.311   0.256  0.00  0.00    +0.004 C 
ATOM     31  C   UNL     1       0.098  -0.215   0.141  0.00  0.00    +0.009 C 
ENDBRANCH  28  31
ENDBRANCH   1  28
TORSDOF 5
