REMARK  Name = ZINC00721323
REMARK  7 active torsions:
REMARK  status: ('A' for Active; 'I' for Inactive)
REMARK    1  A    between atoms: C_1  and  C_2
REMARK    2  A    between atoms: N_7  and  C_8
REMARK    3  A    between atoms: C_8  and  C_9
REMARK    4  A    between atoms: C_8  and  C_13
REMARK    5  A    between atoms: C_8  and  N_17
REMARK    6  A    between atoms: C_18  and  C_20
REMARK    7  A    between atoms: C_25  and  C_26
REMARK                            x       y       z     vdW  Elec       q    Type
REMARK                         _______ _______ _______ _____ _____    ______ ____
ROOT
ATOM      1  C   UNL     1       3.435   4.348  -0.413  0.00  0.00    +0.294 C 
ENDROOT
BRANCH   1   8
ATOM      2  C   UNL     1       6.146  -0.757   2.550  0.00  0.00    +0.045 C 
ATOM      3  C   UNL     1       5.391   0.253   1.725  0.00  0.00    -0.034 A 
ATOM      4  C   UNL     1       5.669   1.608   1.849  0.00  0.00    +0.008 A 
ATOM      5  C   UNL     1       4.954   2.502   1.073  0.00  0.00    +0.042 A 
ATOM      6  C   UNL     1       3.985   2.017   0.201  0.00  0.00    +0.098 A 
ATOM      7  C   UNL     1       4.416  -0.159   0.839  0.00  0.00    +0.087 A 
ATOM      8  N   UNL     1       3.258   2.904  -0.584  0.00  0.00    -0.296 N 
ATOM      9  H   UNL     1       2.633   2.567  -1.246  0.00  0.00    +0.150 HD
ATOM     10  N   UNL     1       3.694   0.691   0.062  0.00  0.00    -0.349 N 
ATOM     11  H   UNL     1       2.974   0.356  -0.589  0.00  0.00    +0.167 HD
ENDBRANCH   1   8
BRANCH   1  12
ATOM     12  C   UNL     1       2.790   5.084  -1.589  0.00  0.00    +0.436 C 
ATOM     13  F   UNL     1       1.405   4.887  -1.560  0.00  0.00    -0.166 F 
ATOM     14  F   UNL     1       3.068   6.452  -1.492  0.00  0.00    -0.166 F 
ATOM     15  F   UNL     1       3.307   4.587  -2.790  0.00  0.00    -0.166 F 
ENDBRANCH   1  12
BRANCH   1  16
ATOM     16  C   UNL     1       2.771   4.792   0.892  0.00  0.00    +0.436 C 
ATOM     17  F   UNL     1       3.289   4.046   1.956  0.00  0.00    -0.166 F 
ATOM     18  F   UNL     1       3.026   6.150   1.107  0.00  0.00    -0.166 F 
ATOM     19  F   UNL     1       1.390   4.585   0.807  0.00  0.00    -0.166 F 
ENDBRANCH   1  16
BRANCH   1  20
ATOM     20  N   UNL     1       4.865   4.663  -0.364  0.00  0.00    -0.276 N 
ATOM     21  C   UNL     1       5.710   4.096  -1.248  0.00  0.00    +0.246 C 
ATOM     22  O   UNL     1       5.275   3.390  -2.138  0.00  0.00    -0.270 OA
ATOM     23  H   UNL     1       5.204   5.279   0.303  0.00  0.00    +0.152 HD
BRANCH  21  24
ATOM     24  C   UNL     1       7.165   4.332  -1.136  0.00  0.00    +0.040 A 
ATOM     25  C   UNL     1       7.671   5.106  -0.091  0.00  0.00    +0.013 A 
ATOM     26  C   UNL     1       9.030   5.319   0.010  0.00  0.00    +0.001 A 
ATOM     27  C   UNL     1       9.890   4.776  -0.927  0.00  0.00    +0.000 A 
ATOM     28  C   UNL     1       9.395   4.011  -1.968  0.00  0.00    +0.004 A 
ATOM     29  C   UNL     1       8.038   3.787  -2.079  0.00  0.00    -0.038 A 
ATOM     30  C   UNL     1       7.500   2.955  -3.214  0.00  0.00    +0.044 C 
ENDBRANCH  21  24
ENDBRANCH   1  20
TORSDOF 5
