REMARK  Name = ZINC15823508
REMARK  6 active torsions:
REMARK  status: ('A' for Active; 'I' for Inactive)
REMARK    1  A    between atoms: C_1  and  C_2
REMARK    2  A    between atoms: C_2  and  C_4
REMARK    3  A    between atoms: C_2  and  N_14
REMARK    4  A    between atoms: C_15  and  C_17
REMARK    5  A    between atoms: C_17  and  C_18
REMARK    6  A    between atoms: C_18  and  N_19
REMARK                            x       y       z     vdW  Elec       q    Type
REMARK                         _______ _______ _______ _____ _____    ______ ____
ROOT
ATOM      1  N   UNL     1       0.711  -0.489   1.189  0.00  0.00    -0.309 N 
ATOM      2  C   UNL     1       2.054  -0.600   1.174  0.00  0.00    +0.215 C 
ATOM      3  O   UNL     1       2.676  -0.297   0.177  0.00  0.00    -0.276 OA
ATOM      4  H   UNL     1       0.213  -0.731   1.986  0.00  0.00    +0.149 HD
ENDROOT
BRANCH   1   6
ATOM      5  C   UNL     1      -0.019   1.526   0.010  0.00  0.00    +0.033 C 
ATOM      6  C   UNL     1       0.002  -0.004   0.002  0.00  0.00    +0.100 C 
BRANCH   6   7
ATOM      7  C   UNL     1      -1.412  -0.526   0.013  0.00  0.00    -0.027 A 
ATOM      8  C   UNL     1      -2.125  -0.572   1.196  0.00  0.00    +0.006 A 
ATOM      9  C   UNL     1      -3.418  -1.054   1.198  0.00  0.00    +0.004 A 
ATOM     10  C   UNL     1      -4.010  -1.491   0.021  0.00  0.00    -0.044 A 
ATOM     11  C   UNL     1      -3.301  -1.440  -1.159  0.00  0.00    -0.044 A 
ATOM     12  C   UNL     1      -2.001  -0.953  -1.159  0.00  0.00    +0.009 A 
ATOM     13  C   UNL     1      -3.885  -1.883  -2.475  0.00  0.00    +0.035 C 
ATOM     14  C   UNL     1      -5.113  -2.762  -2.249  0.00  0.00    +0.005 C 
ATOM     15  C   UNL     1      -6.061  -2.033  -1.290  0.00  0.00    +0.005 C 
ATOM     16  C   UNL     1      -5.421  -2.012   0.097  0.00  0.00    +0.035 C 
ENDBRANCH   6   7
ENDBRANCH   1   6
BRANCH   2  17
ATOM     17  C   UNL     1       2.783  -1.099   2.395  0.00  0.00    +0.115 C 
BRANCH  17  18
ATOM     18  C   UNL     1       4.287  -1.129   2.114  0.00  0.00    +0.127 C 
BRANCH  18  19
ATOM     19  N   UNL     1       4.995  -1.614   3.301  0.00  0.00    -0.224 N 
ATOM     20  C   UNL     1       5.447  -0.818   4.292  0.00  0.00    +0.247 C 
ATOM     21  O   UNL     1       5.349   0.388   4.368  0.00  0.00    -0.273 OA
ATOM     22  C   UNL     1       6.102  -1.747   5.289  0.00  0.00    +0.113 C 
ATOM     23  C   UNL     1       5.394  -1.665   6.637  0.00  0.00    +0.035 C 
ATOM     24  C   UNL     1       6.053  -2.635   7.621  0.00  0.00    +0.003 C 
ATOM     25  C   UNL     1       7.532  -2.273   7.779  0.00  0.00    +0.000 C 
ATOM     26  C   UNL     1       8.233  -2.383   6.424  0.00  0.00    +0.003 C 
ATOM     27  C   UNL     1       7.582  -1.412   5.435  0.00  0.00    +0.035 C 
ATOM     28  N   UNL     1       5.932  -3.081   4.698  0.00  0.00    -0.285 N 
ATOM     29  C   UNL     1       5.269  -2.902   3.539  0.00  0.00    +0.309 C 
ATOM     30  O   UNL     1       4.957  -3.809   2.792  0.00  0.00    -0.252 OA
ATOM     31  H   UNL     1       6.234  -3.924   5.071  0.00  0.00    +0.151 HD
ENDBRANCH  18  19
ENDBRANCH  17  18
ENDBRANCH   2  17
TORSDOF 5
