REMARK  Name = ZINC12039533
REMARK  10 active torsions:
REMARK  status: ('A' for Active; 'I' for Inactive)
REMARK    1  A    between atoms: C_1  and  O_2
REMARK    2  A    between atoms: O_2  and  C_3
REMARK    3  A    between atoms: C_3  and  C_4
REMARK    4  A    between atoms: C_4  and  N_5
REMARK    5  A    between atoms: C_6  and  N_30
REMARK    6  A    between atoms: C_7  and  C_14
REMARK    7  A    between atoms: C_14  and  C_16
REMARK    8  A    between atoms: C_16  and  S_17
REMARK    9  A    between atoms: S_17  and  C_18
REMARK   10  A    between atoms: N_23  and  C_24
REMARK                            x       y       z     vdW  Elec       q    Type
REMARK                         _______ _______ _______ _____ _____    ______ ____
ROOT
ATOM      1  C   UNL     1      -4.139   2.615  -2.574  0.00  0.00    +0.182 C 
ATOM      2  O   UNL     1      -4.289   3.313  -1.592  0.00  0.00    -0.291 OA
ENDROOT
BRANCH   1   5
ATOM      3  N   UNL     1      -2.075  -0.135  -1.245  0.00  0.00    -0.279 N 
ATOM      4  C   UNL     1      -2.762   1.045  -1.288  0.00  0.00    +0.116 A 
ATOM      5  C   UNL     1      -3.420   1.404  -2.478  0.00  0.00    +0.120 A 
ATOM      6  C   UNL     1      -3.339   0.478  -3.614  0.00  0.00    +0.266 A 
ATOM      7  O   UNL     1      -3.892   0.737  -4.667  0.00  0.00    -0.267 OA
ATOM      8  N   UNL     1      -2.638  -0.665  -3.467  0.00  0.00    -0.274 N 
ATOM      9  H   UNL     1      -2.572  -1.306  -4.232  0.00  0.00    +0.173 HD
ATOM     10  C   UNL     1      -2.026  -0.954  -2.307  0.00  0.00    +0.331 A 
ATOM     11  O   UNL     1      -1.405  -1.994  -2.216  0.00  0.00    -0.246 OA
BRANCH   4  12
ATOM     12  N   UNL     1      -2.806   1.860  -0.200  0.00  0.00    -0.344 N 
ATOM     13  H   UNL     1      -2.959   2.811  -0.313  0.00  0.00    +0.144 HD
ATOM     14  H   UNL     1      -2.685   1.490   0.688  0.00  0.00    +0.144 HD
ENDBRANCH   4  12
BRANCH   3  15
ATOM     15  C   UNL     1      -1.383  -0.517  -0.011  0.00  0.00    +0.156 C 
BRANCH  15  16
ATOM     16  C   UNL     1       0.050   0.021  -0.043  0.00  0.00    +0.181 C 
BRANCH  16  18
ATOM     17  C   UNL     1       1.317   2.055  -0.063  0.00  0.00    +0.194 C 
ATOM     18  O   UNL     1       0.023   1.449  -0.035  0.00  0.00    -0.381 OA
ENDBRANCH  16  18
ENDBRANCH  15  16
ENDBRANCH   3  15
ENDBRANCH   1   5
BRANCH   1  19
ATOM     19  C   UNL     1      -4.723   3.041  -3.897  0.00  0.00    +0.156 C 
BRANCH  19  20
ATOM     20  S   UNL     1      -5.581   4.626  -3.696  0.00  0.00    -0.089 S 
BRANCH  20  21
ATOM     21  C   UNL     1      -6.199   4.983  -5.308  0.00  0.00    +0.160 A 
ATOM     22  N   UNL     1      -6.078   4.288  -6.423  0.00  0.00    -0.133 NA
ATOM     23  N   UNL     1      -6.649   4.753  -7.585  0.00  0.00    -0.125 NA
ATOM     24  C   UNL     1      -7.305   5.897  -7.581  0.00  0.00    +0.187 A 
ATOM     25  S   UNL     1      -7.149   6.387  -5.870  0.00  0.00    -0.024 S 
ATOM     26  N   UNL     1      -7.946   6.548  -8.629  0.00  0.00    -0.292 N 
ATOM     27  H   UNL     1      -8.321   7.432  -8.494  0.00  0.00    +0.154 HD
BRANCH  26  28
ATOM     28  C   UNL     1      -8.050   5.929  -9.877  0.00  0.00    +0.033 A 
ATOM     29  C   UNL     1      -8.201   6.697 -11.025  0.00  0.00    +0.023 A 
ATOM     30  C   UNL     1      -8.299   6.081 -12.257  0.00  0.00    +0.002 A 
ATOM     31  C   UNL     1      -8.257   4.702 -12.349  0.00  0.00    +0.000 A 
ATOM     32  C   UNL     1      -8.113   3.934 -11.207  0.00  0.00    +0.002 A 
ATOM     33  C   UNL     1      -8.009   4.543  -9.972  0.00  0.00    +0.023 A 
ENDBRANCH  26  28
ENDBRANCH  20  21
ENDBRANCH  19  20
ENDBRANCH   1  19
TORSDOF 9
