REMARK  Name = ZINC21605469
REMARK  14 active torsions:
REMARK  status: ('A' for Active; 'I' for Inactive)
REMARK    1  A    between atoms: C_1  and  C_2
REMARK    2  A    between atoms: C_5  and  C_29
REMARK    3  A    between atoms: C_6  and  O_8
REMARK    4  A    between atoms: O_8  and  C_9
REMARK    5  A    between atoms: C_9  and  C_10
REMARK    6  A    between atoms: C_13  and  S_16
REMARK    7  A    between atoms: N_14  and  N_15
REMARK    8  A    between atoms: S_16  and  C_17
REMARK    9  A    between atoms: C_17  and  C_19
REMARK   10  A    between atoms: C_17  and  C_20
REMARK   11  A    between atoms: N_22  and  C_23
REMARK   12  A    between atoms: C_23  and  C_24
REMARK   13  A    between atoms: C_29  and  C_30
REMARK   14  A    between atoms: C_29  and  C_31
REMARK                            x       y       z     vdW  Elec       q    Type
REMARK                         _______ _______ _______ _____ _____    ______ ____
ROOT
ATOM      1  C   UNL     1      -4.382   2.514  -1.714  0.00  0.00    +0.189 A 
ATOM      2  N   UNL     1      -3.198   3.042  -1.844  0.00  0.00    -0.128 NA
ATOM      3  N   UNL     1      -2.422   2.622  -0.909  0.00  0.00    -0.121 NA
ATOM      4  C   UNL     1      -3.072   1.788  -0.131  0.00  0.00    +0.209 A 
ATOM      5  N   UNL     1      -4.344   1.696  -0.618  0.00  0.00    -0.225 N 
ENDROOT
BRANCH   5   6
ATOM      6  N   UNL     1      -5.367   0.942  -0.116  0.00  0.00    -0.295 N 
ATOM      7  H   UNL     1      -5.205   0.322   0.778  0.00  0.00    +0.163 HD
ATOM      8  H   UNL     1      -6.352   0.956  -0.605  0.00  0.00    +0.163 HD
ENDBRANCH   5   6
BRANCH   1   9
ATOM      9  C   UNL     1      -5.572   2.758  -2.605  0.00  0.00    +0.306 C 
BRANCH   9  10
ATOM     10  O   UNL     1      -6.323   3.866  -2.105  0.00  0.00    -0.484 OA
BRANCH  10  16
ATOM     11  C   UNL     1      -9.325   3.115  -5.879  0.00  0.00    +0.044 C 
ATOM     12  C   UNL     1      -8.931   3.879  -4.641  0.00  0.00    -0.047 A 
ATOM     13  C   UNL     1      -9.703   4.942  -4.210  0.00  0.00    +0.004 A 
ATOM     14  C   UNL     1      -9.344   5.645  -3.076  0.00  0.00    +0.008 A 
ATOM     15  C   UNL     1      -8.216   5.283  -2.365  0.00  0.00    -0.003 A 
ATOM     16  C   UNL     1      -7.436   4.220  -2.798  0.00  0.00    +0.125 A 
ATOM     17  C   UNL     1      -7.799   3.516  -3.938  0.00  0.00    +0.049 A 
BRANCH  15  18
ATOM     18  C   UNL     1      -7.828   6.046  -1.125  0.00  0.00    +0.016 C 
ATOM     19  C   UNL     1      -7.590   7.514  -1.483  0.00  0.00    +0.012 C 
ATOM     20  C   UNL     1      -8.954   5.948  -0.094  0.00  0.00    +0.012 C 
ENDBRANCH  15  18
ENDBRANCH  10  16
ENDBRANCH   9  10
ENDBRANCH   1   9
BRANCH   4  21
ATOM     21  S   UNL     1      -2.427   0.953   1.280  0.00  0.00    -0.072 S 
BRANCH  21  22
ATOM     22  C   UNL     1      -0.729   1.579   1.267  0.00  0.00    +0.137 C 
ATOM     23  C   UNL     1      -0.013   1.086   0.008  0.00  0.00    +0.029 C 
BRANCH  22  24
ATOM     24  C   UNL     1       0.000   1.080   2.488  0.00  0.00    +0.226 C 
ATOM     25  O   UNL     1      -0.360   0.059   3.034  0.00  0.00    -0.275 OA
ATOM     26  N   UNL     1       1.052   1.768   2.973  0.00  0.00    -0.310 N 
ATOM     27  H   UNL     1       1.379   2.695   2.478  0.00  0.00    +0.149 HD
BRANCH  26  28
ATOM     28  C   UNL     1       1.761   1.283   4.160  0.00  0.00    +0.146 C 
BRANCH  28  29
ATOM     29  C   UNL     1       2.888   2.227   4.493  0.00  0.00    +0.007 A 
ATOM     30  C   UNL     1       2.877   3.321   5.292  0.00  0.00    +0.013 A 
ATOM     31  C   UNL     1       4.044   4.043   5.456  0.00  0.00    +0.008 A 
ATOM     32  C   UNL     1       5.163   3.641   4.805  0.00  0.00    +0.045 A 
ATOM     33  S   UNL     1       4.582   2.197   3.931  0.00  0.00    -0.100 S 
ENDBRANCH  28  29
ENDBRANCH  26  28
ENDBRANCH  22  24
ENDBRANCH  21  22
ENDBRANCH   4  21
TORSDOF 10
