REMARK  Name = ZINC20383757
REMARK  7 active torsions:
REMARK  status: ('A' for Active; 'I' for Inactive)
REMARK    1  A    between atoms: C_1  and  C_2
REMARK    2  A    between atoms: C_5  and  O_9
REMARK    3  A    between atoms: C_7  and  C_8
REMARK    4  A    between atoms: O_9  and  C_10
REMARK    5  A    between atoms: C_10  and  C_11
REMARK    6  A    between atoms: C_15  and  C_17
REMARK    7  A    between atoms: C_17  and  N_18
REMARK                            x       y       z     vdW  Elec       q    Type
REMARK                         _______ _______ _______ _____ _____    ______ ____
ROOT
ATOM      1  C   UNL     1      -1.434   5.714  -1.036  0.00  0.00    +0.167 A 
ATOM      2  N   UNL     1      -1.129   5.075   0.073  0.00  0.00    -0.233 NA
ATOM      3  C   UNL     1      -0.901   3.766   0.070  0.00  0.00    +0.048 A 
ATOM      4  C   UNL     1      -0.993   3.078  -1.120  0.00  0.00    -0.007 A 
ATOM      5  C   UNL     1      -1.315   3.785  -2.272  0.00  0.00    +0.031 A 
ATOM      6  N   UNL     1      -1.526   5.088  -2.192  0.00  0.00    -0.235 NA
ATOM      7  C   UNL     1      -0.760   1.596  -1.224  0.00  0.00    +0.039 C 
ATOM      8  C   UNL     1      -0.013   1.086   0.008  0.00  0.00    +0.005 C 
ATOM      9  C   UNL     1      -0.738   1.584   1.263  0.00  0.00    +0.006 C 
ATOM     10  C   UNL     1      -0.545   3.096   1.369  0.00  0.00    +0.056 C 
ENDROOT
BRANCH   1  11
ATOM     11  C   UNL     1      -1.683   7.200  -0.984  0.00  0.00    +0.305 C 
BRANCH  11  12
ATOM     12  O   UNL     1      -3.070   7.442  -0.740  0.00  0.00    -0.484 OA
BRANCH  12  17
ATOM     13  C   UNL     1      -4.710  12.821  -0.420  0.00  0.00    +0.044 C 
ATOM     14  C   UNL     1      -4.271  11.381  -0.505  0.00  0.00    -0.047 A 
ATOM     15  C   UNL     1      -2.943  11.078  -0.740  0.00  0.00    +0.007 A 
ATOM     16  C   UNL     1      -2.537   9.759  -0.813  0.00  0.00    +0.046 A 
ATOM     17  C   UNL     1      -3.466   8.739  -0.662  0.00  0.00    +0.121 A 
ATOM     18  C   UNL     1      -4.798   9.047  -0.427  0.00  0.00    +0.049 A 
ATOM     19  C   UNL     1      -5.197  10.367  -0.349  0.00  0.00    -0.044 A 
ATOM     20  C   UNL     1      -6.644  10.702  -0.094  0.00  0.00    +0.044 C 
ENDBRANCH  12  17
ENDBRANCH  11  12
ENDBRANCH   1  11
BRANCH   5  21
ATOM     21  C   UNL     1      -1.424   3.076  -3.597  0.00  0.00    -0.030 C 
BRANCH  21  22
ATOM     22  N   UNL     1      -2.804   2.614  -3.793  0.00  0.00    +0.382 N 
ATOM     23  H   UNL     1      -2.884   2.095  -4.760  0.00  0.00    -0.090 HD
ATOM     24  H   UNL     1      -3.485   3.478  -3.783  0.00  0.00    -0.090 HD
ATOM     25  H   UNL     1      -3.078   1.922  -2.983  0.00  0.00    -0.090 HD
ENDBRANCH  21  22
ENDBRANCH   5  21
TORSDOF 5
