REMARK  Name = ZINC15674570
REMARK  9 active torsions:
REMARK  status: ('A' for Active; 'I' for Inactive)
REMARK    1  A    between atoms: C_1  and  C_2
REMARK    2  A    between atoms: C_5  and  C_8
REMARK    3  A    between atoms: C_8  and  N_55
REMARK    4  A    between atoms: C_10  and  O_31
REMARK    5  A    between atoms: C_13  and  C_15
REMARK    6  A    between atoms: C_17  and  C_20
REMARK    7  A    between atoms: C_20  and  S_21
REMARK    8  A    between atoms: S_21  and  C_24
REMARK    9  A    between atoms: C_27  and  C_30
REMARK                            x       y       z     vdW  Elec       q    Type
REMARK                         _______ _______ _______ _____ _____    ______ ____
ROOT
ATOM      1  C   UNL     1      -1.984   0.816  -1.396  0.00  0.00    -0.046 C 
ATOM      2  C   UNL     1      -2.319   1.032  -2.887  0.00  0.00    +0.097 C 
ATOM      3  C   UNL     1      -0.970   1.364  -3.557  0.00  0.00    +0.023 C 
ATOM      4  C   UNL     1       0.067   1.320  -2.414  0.00  0.00    +0.025 C 
ATOM      5  N   UNL     1      -0.732   1.561  -1.216  0.00  0.00    +0.392 N 
ATOM      6  H   UNL     1      -0.931   2.564  -1.122  0.00  0.00    -0.080 HD
ENDROOT
BRANCH   4   7
ATOM      7  C   UNL     1       1.104   2.398  -2.604  0.00  0.00    +0.214 A 
ATOM      8  N   UNL     1       2.361   2.223  -2.931  0.00  0.00    -0.196 NA
ATOM      9  C   UNL     1       2.897   3.455  -2.984  0.00  0.00    +0.193 A 
ATOM     10  N   UNL     1       1.955   4.301  -2.692  0.00  0.00    -0.060 NA
ATOM     11  O   UNL     1       0.915   3.715  -2.476  0.00  0.00    -0.340 OA
BRANCH   9  12
ATOM     12  C   UNL     1       4.326   3.793  -3.320  0.00  0.00    +0.251 C 
BRANCH  12  13
ATOM     13  S   UNL     1       4.485   4.037  -5.111  0.00  0.00    +0.004 S 
ATOM     14  O   UNL     1       4.285   2.807  -5.792  0.00  0.00    -0.169 OA
ATOM     15  O   UNL     1       3.784   5.208  -5.509  0.00  0.00    -0.169 OA
BRANCH  13  16
ATOM     16  C   UNL     1       6.185   4.422  -5.367  0.00  0.00    +0.089 A 
ATOM     17  C   UNL     1       6.609   5.738  -5.335  0.00  0.00    +0.027 A 
ATOM     18  C   UNL     1       7.943   6.039  -5.531  0.00  0.00    +0.005 A 
ATOM     19  C   UNL     1       8.853   5.026  -5.769  0.00  0.00    -0.050 A 
ATOM     20  C   UNL     1       8.429   3.711  -5.805  0.00  0.00    +0.005 A 
ATOM     21  C   UNL     1       7.095   3.409  -5.604  0.00  0.00    +0.027 A 
ATOM     22  C   UNL     1      10.307   5.355  -5.988  0.00  0.00    +0.044 C 
ENDBRANCH  13  16
ENDBRANCH  12  13
ENDBRANCH   9  12
ENDBRANCH   4   7
BRANCH   2  23
ATOM     23  O   UNL     1      -2.872  -0.160  -3.449  0.00  0.00    -0.394 OA
ATOM     24  H   UNL     1      -3.722  -0.417  -3.066  0.00  0.00    +0.210 HD
ENDBRANCH   2  23
BRANCH   5  25
ATOM     25  C   UNL     1      -0.013   1.086   0.008  0.00  0.00    -0.042 C 
BRANCH  25  30
ATOM     26  C   UNL     1      -2.717   2.949   4.763  0.00  0.00    +0.044 C 
ATOM     27  C   UNL     1      -2.012   2.463   3.523  0.00  0.00    -0.050 A 
ATOM     28  C   UNL     1      -2.366   1.254   2.955  0.00  0.00    +0.003 A 
ATOM     29  C   UNL     1      -1.719   0.808   1.818  0.00  0.00    +0.002 A 
ATOM     30  C   UNL     1      -0.718   1.572   1.248  0.00  0.00    -0.064 A 
ATOM     31  C   UNL     1      -0.360   2.779   1.819  0.00  0.00    +0.002 A 
ATOM     32  C   UNL     1      -1.010   3.227   2.954  0.00  0.00    +0.003 A 
ENDBRANCH  25  30
ENDBRANCH   5  25
TORSDOF 7
