REMARK  Name = ZINC41020105
REMARK  8 active torsions:
REMARK  status: ('A' for Active; 'I' for Inactive)
REMARK    1  A    between atoms: C_1  and  C_2
REMARK    2  A    between atoms: C_5  and  O_12
REMARK    3  A    between atoms: C_8  and  C_10
REMARK    4  A    between atoms: C_8  and  C_11
REMARK    5  A    between atoms: O_12  and  C_13
REMARK    6  A    between atoms: C_13  and  C_15
REMARK    7  A    between atoms: C_15  and  N_16
REMARK    8  A    between atoms: C_18  and  N_21
REMARK                            x       y       z     vdW  Elec       q    Type
REMARK                         _______ _______ _______ _____ _____    ______ ____
ROOT
ATOM      1  C   UNL     1      -1.046  -3.101  -2.428  0.00  0.00    +0.329 C 
ATOM      2  O   UNL     1      -0.401  -2.971  -3.441  0.00  0.00    -0.249 OA
ENDROOT
BRANCH   1   3
ATOM      3  O   UNL     1      -0.508  -2.776  -1.243  0.00  0.00    -0.460 OA
BRANCH   3   7
ATOM      4  C   UNL     1       0.032   1.381  -0.373  0.00  0.00    +0.007 C 
ATOM      5  C   UNL     1       0.051  -0.141  -0.226  0.00  0.00    -0.010 C 
ATOM      6  C   UNL     1       0.813  -0.758  -1.401  0.00  0.00    +0.048 C 
ATOM      7  C   UNL     1       0.833  -2.281  -1.253  0.00  0.00    +0.177 C 
ATOM      8  C   UNL     1       1.525  -2.657   0.059  0.00  0.00    +0.051 C 
ATOM      9  C   UNL     1       0.763  -2.041   1.233  0.00  0.00    -0.031 C 
ATOM     10  C   UNL     1       0.744  -0.518   1.085  0.00  0.00    +0.010 C 
ATOM     11  C   UNL     1      -0.673  -2.570   1.244  0.00  0.00    +0.011 C 
ATOM     12  C   UNL     1       1.455  -2.417   2.545  0.00  0.00    +0.011 C 
ENDBRANCH   3   7
ENDBRANCH   1   3
BRANCH   1  13
ATOM     13  C   UNL     1      -2.456  -3.630  -2.496  0.00  0.00    +0.263 C 
BRANCH  13  14
ATOM     14  N   UNL     1      -2.806  -3.909  -3.891  0.00  0.00    -0.259 N 
ATOM     15  C   UNL     1      -3.264  -5.092  -4.380  0.00  0.00    +0.131 A 
ATOM     16  C   UNL     1      -3.468  -4.932  -5.713  0.00  0.00    +0.063 A 
ATOM     17  C   UNL     1      -3.124  -3.615  -6.045  0.00  0.00    +0.157 A 
ATOM     18  N   UNL     1      -2.735  -3.002  -4.956  0.00  0.00    -0.177 NA
BRANCH  16  19
ATOM     19  N   UNL     1      -3.940  -5.916  -6.602  0.00  0.00    -0.356 N 
ATOM     20  H   UNL     1      -4.152  -6.804  -6.275  0.00  0.00    +0.142 HD
ATOM     21  H   UNL     1      -4.053  -5.705  -7.542  0.00  0.00    +0.142 HD
ENDBRANCH  16  19
ENDBRANCH  13  14
ENDBRANCH   1  13
TORSDOF 5
