REMARK  Name = ZINC48675220
REMARK  5 active torsions:
REMARK  status: ('A' for Active; 'I' for Inactive)
REMARK    1  A    between atoms: C_1  and  C_2
REMARK    2  A    between atoms: C_2  and  C_4
REMARK    3  A    between atoms: C_2  and  S_11
REMARK    4  A    between atoms: S_11  and  C_12
REMARK    5  A    between atoms: C_12  and  C_13
REMARK                            x       y       z     vdW  Elec       q    Type
REMARK                         _______ _______ _______ _____ _____    ______ ____
ROOT
ATOM      1  C   UNL     1      -3.814  -0.539  -1.690  0.00  0.00    +0.146 A 
ATOM      2  N   UNL     1      -4.084  -1.715  -2.230  0.00  0.00    -0.199 NA
ATOM      3  C   UNL     1      -5.345  -2.126  -2.336  0.00  0.00    +0.217 A 
ATOM      4  N   UNL     1      -6.333  -1.353  -1.899  0.00  0.00    -0.181 NA
ATOM      5  C   UNL     1      -6.058  -0.172  -1.357  0.00  0.00    +0.217 A 
ATOM      6  N   UNL     1      -4.793   0.231  -1.249  0.00  0.00    -0.199 NA
ATOM      7  N   UNL     1      -7.081   0.635  -0.901  0.00  0.00    -0.327 N 
ATOM      8  N   UNL     1      -5.626  -3.353  -2.901  0.00  0.00    -0.327 N 
ATOM      9  H   UNL     1      -8.002   0.340  -0.977  0.00  0.00    +0.145 HD
ATOM     10  H   UNL     1      -6.879   1.497  -0.505  0.00  0.00    +0.145 HD
ATOM     11  H   UNL     1      -4.905  -3.917  -3.220  0.00  0.00    +0.145 HD
ATOM     12  H   UNL     1      -6.546  -3.653  -2.978  0.00  0.00    +0.145 HD
ENDROOT
BRANCH   1  13
ATOM     13  C   UNL     1      -2.384  -0.077  -1.571  0.00  0.00    +0.146 C 
BRANCH  13  14
ATOM     14  S   UNL     1      -1.700  -0.632   0.015  0.00  0.00    -0.145 S 
BRANCH  14  16
ATOM     15  C   UNL     1      -0.019   1.526   0.010  0.00  0.00    +0.024 C 
ATOM     16  C   UNL     1       0.002  -0.004   0.002  0.00  0.00    +0.076 C 
BRANCH  16  17
ATOM     17  C   UNL     1       0.731  -0.503   1.223  0.00  0.00    +0.000 A 
ATOM     18  C   UNL     1       0.022  -0.853   2.357  0.00  0.00    +0.007 A 
ATOM     19  C   UNL     1       0.690  -1.311   3.476  0.00  0.00    +0.000 A 
ATOM     20  C   UNL     1       2.068  -1.420   3.464  0.00  0.00    +0.003 A 
ATOM     21  C   UNL     1       2.779  -1.071   2.332  0.00  0.00    +0.038 A 
ATOM     22  C   UNL     1       2.111  -0.617   1.208  0.00  0.00    +0.128 A 
ATOM     23  F   UNL     1       2.804  -0.280   0.098  0.00  0.00    -0.205 F 
ENDBRANCH  16  17
ENDBRANCH  14  16
ENDBRANCH  13  14
ENDBRANCH   1  13
TORSDOF 4
