REMARK  Name = ZINC55175245
REMARK  7 active torsions:
REMARK  status: ('A' for Active; 'I' for Inactive)
REMARK    1  A    between atoms: C_1  and  C_2
REMARK    2  A    between atoms: C_2  and  O_3
REMARK    3  A    between atoms: O_3  and  C_4
REMARK    4  A    between atoms: C_7  and  C_10
REMARK    5  A    between atoms: N_14  and  O_15
REMARK    6  A    between atoms: C_19  and  C_21
REMARK    7  A    between atoms: C_19  and  C_22
REMARK                            x       y       z     vdW  Elec       q    Type
REMARK                         _______ _______ _______ _____ _____    ______ ____
ROOT
ATOM      1  C   UNL     1       1.107  -6.013  -1.844  0.00  0.00    +0.177 A 
ATOM      2  N   UNL     1       0.894  -6.918  -0.902  0.00  0.00    -0.229 NA
ATOM      3  C   UNL     1       1.082  -8.125  -1.394  0.00  0.00    +0.074 A 
ATOM      4  C   UNL     1       1.434  -7.990  -2.735  0.00  0.00    +0.146 A 
ATOM      5  N   UNL     1       1.445  -6.644  -3.004  0.00  0.00    -0.162 N 
ATOM      6  C   UNL     1       1.693  -9.101  -3.564  0.00  0.00    +0.185 C 
ATOM      7  O   UNL     1       2.036  -8.957  -4.720  0.00  0.00    -0.290 OA
ATOM      8  C   UNL     1       1.530 -10.480  -2.962  0.00  0.00    +0.088 C 
ATOM      9  C   UNL     1       1.883 -10.451  -1.475  0.00  0.00    -0.022 C 
ATOM     10  C   UNL     1       0.970  -9.472  -0.725  0.00  0.00    +0.064 C 
ATOM     11  C   UNL     1       3.339 -10.010  -1.310  0.00  0.00    +0.011 C 
ATOM     12  C   UNL     1       1.711 -11.853  -0.888  0.00  0.00    +0.011 C 
ENDROOT
BRANCH   1  16
ATOM     13  C   UNL     1       0.777  -1.809  -1.336  0.00  0.00    +0.121 A 
ATOM     14  C   UNL     1       0.241  -2.666  -0.383  0.00  0.00    +0.046 A 
ATOM     15  C   UNL     1       0.346  -4.030  -0.544  0.00  0.00    +0.015 A 
ATOM     16  C   UNL     1       0.992  -4.551  -1.667  0.00  0.00    +0.021 A 
ATOM     17  C   UNL     1       1.529  -3.686  -2.624  0.00  0.00    +0.015 A 
ATOM     18  C   UNL     1       1.416  -2.323  -2.458  0.00  0.00    +0.046 A 
BRANCH  13  19
ATOM     19  O   UNL     1       0.671  -0.465  -1.174  0.00  0.00    -0.492 OA
BRANCH  19  21
ATOM     20  C   UNL     1      -0.019   1.526   0.010  0.00  0.00    +0.048 C 
ATOM     21  C   UNL     1       0.002  -0.004   0.002  0.00  0.00    +0.225 C 
ENDBRANCH  19  21
ENDBRANCH  13  19
ENDBRANCH   1  16
BRANCH   5  22
ATOM     22  O   UNL     1       1.749  -6.032  -4.244  0.00  0.00    -0.424 OA
ATOM     23  H   UNL     1       2.686  -5.825  -4.361  0.00  0.00    +0.326 HD
ENDBRANCH   5  22
TORSDOF 4
