REMARK  Name = ZINC21601007
REMARK  8 active torsions:
REMARK  status: ('A' for Active; 'I' for Inactive)
REMARK    1  A    between atoms: C_1  and  C_2
REMARK    2  A    between atoms: C_2  and  C_28
REMARK    3  A    between atoms: N_5  and  C_9
REMARK    4  A    between atoms: C_9  and  C_10
REMARK    5  A    between atoms: N_12  and  C_13
REMARK    6  A    between atoms: C_13  and  C_15
REMARK    7  A    between atoms: C_13  and  C_22
REMARK    8  A    between atoms: N_26  and  C_27
REMARK                            x       y       z     vdW  Elec       q    Type
REMARK                         _______ _______ _______ _____ _____    ______ ____
ROOT
ATOM      1  C   UNL     1      -1.357  -1.758  -2.266  0.00  0.00    +0.232 C 
ATOM      2  O   UNL     1      -1.795  -0.682  -2.613  0.00  0.00    -0.274 OA
ATOM      3  N   UNL     1      -1.033  -1.970  -0.975  0.00  0.00    -0.300 N 
ATOM      4  H   UNL     1      -0.636  -2.946  -0.660  0.00  0.00    +0.150 HD
ENDROOT
BRANCH   1   5
ATOM      5  C   UNL     1      -1.175  -2.860  -3.278  0.00  0.00    +0.213 C 
BRANCH   5  10
ATOM      6  C   UNL     1      -1.109  -2.196  -7.929  0.00  0.00    +0.042 C 
ATOM      7  C   UNL     1      -1.636  -1.468  -6.691  0.00  0.00    +0.113 C 
ATOM      8  C   UNL     1      -0.776  -1.781  -5.482  0.00  0.00    +0.247 C 
ATOM      9  O   UNL     1       0.403  -1.539  -5.340  0.00  0.00    -0.273 OA
ATOM     10  N   UNL     1      -1.596  -2.384  -4.598  0.00  0.00    -0.215 N 
ATOM     11  C   UNL     1      -2.840  -2.499  -5.078  0.00  0.00    +0.310 C 
ATOM     12  O   UNL     1      -3.755  -3.013  -4.465  0.00  0.00    -0.252 OA
ATOM     13  N   UNL     1      -2.965  -1.980  -6.312  0.00  0.00    -0.285 N 
ATOM     14  H   UNL     1      -3.810  -1.885  -7.010  0.00  0.00    +0.151 HD
BRANCH   7  15
ATOM     15  C   UNL     1      -1.690   0.041  -6.938  0.00  0.00    +0.021 C 
ATOM     16  C   UNL     1      -3.025   0.748  -6.698  0.00  0.00    +0.006 C 
ATOM     17  C   UNL     1      -2.519   0.533  -8.126  0.00  0.00    +0.006 C 
ENDBRANCH   7  15
ENDBRANCH   5  10
ENDBRANCH   1   5
BRANCH   3  18
ATOM     18  C   UNL     1      -1.210  -0.899   0.009  0.00  0.00    +0.169 C 
BRANCH  18  19
ATOM     19  C   UNL     1      -1.382  -1.500   1.381  0.00  0.00    -0.020 A 
ATOM     20  C   UNL     1      -0.623  -2.593   1.756  0.00  0.00    +0.007 A 
ATOM     21  C   UNL     1      -0.776  -3.142   3.015  0.00  0.00    +0.020 A 
ATOM     22  C   UNL     1      -1.698  -2.604   3.896  0.00  0.00    +0.041 A 
ATOM     23  C   UNL     1      -2.461  -1.514   3.518  0.00  0.00    +0.020 A 
ATOM     24  C   UNL     1      -2.303  -0.963   2.260  0.00  0.00    +0.007 A 
ATOM     25 CL   UNL     1      -1.895  -3.297   5.476  0.00  0.00    -0.084 Cl
ENDBRANCH  18  19
BRANCH  18  26
ATOM     26  C   UNL     1       0.002  -0.004   0.002  0.00  0.00    +0.134 A 
ATOM     27  N   UNL     1       1.244  -0.406  -0.012  0.00  0.00    -0.238 NA
ATOM     28  C   UNL     1       2.054   0.663  -0.014  0.00  0.00    +0.130 A 
ATOM     29  C   UNL     1       1.286   1.769  -0.001  0.00  0.00    +0.106 A 
ATOM     30  N   UNL     1      -0.016   1.346   0.009  0.00  0.00    -0.336 N 
ATOM     31  C   UNL     1      -1.207   2.199   0.020  0.00  0.00    +0.150 C 
ENDBRANCH  18  26
ENDBRANCH   3  18
TORSDOF 6
