REMARK  Name = ZINC13470011
REMARK  11 active torsions:
REMARK  status: ('A' for Active; 'I' for Inactive)
REMARK    1  A    between atoms: C_1  and  C_2
REMARK    2  A    between atoms: C_2  and  N_3
REMARK    3  A    between atoms: N_3  and  C_4
REMARK    4  A    between atoms: N_3  and  S_6
REMARK    5  A    between atoms: C_4  and  C_5
REMARK    6  A    between atoms: S_6  and  C_9
REMARK    7  A    between atoms: C_12  and  O_27
REMARK    8  A    between atoms: C_13  and  N_15
REMARK    9  A    between atoms: C_16  and  C_18
REMARK   10  A    between atoms: C_18  and  C_19
REMARK   11  A    between atoms: C_19  and  C_25
REMARK                            x       y       z     vdW  Elec       q    Type
REMARK                         _______ _______ _______ _____ _____    ______ ____
ROOT
ATOM      1  C   UNL     1       0.710  -3.016  -0.314  0.00  0.00    +0.107 A 
ATOM      2  C   UNL     1       0.903  -2.401   0.910  0.00  0.00    +0.032 A 
ATOM      3  C   UNL     1       0.885  -1.022   1.005  0.00  0.00    +0.049 A 
ATOM      4  C   UNL     1       0.673  -0.252  -0.127  0.00  0.00    +0.138 A 
ATOM      5  C   UNL     1       0.474  -0.871  -1.359  0.00  0.00    +0.077 A 
ATOM      6  C   UNL     1       0.498  -2.256  -1.448  0.00  0.00    +0.055 A 
ENDROOT
BRANCH   5   7
ATOM      7  N   UNL     1       0.253  -0.098  -2.506  0.00  0.00    -0.283 N 
ATOM      8  C   UNL     1      -0.315  -0.653  -3.595  0.00  0.00    +0.218 C 
ATOM      9  O   UNL     1      -0.723  -1.795  -3.550  0.00  0.00    -0.275 OA
ATOM     10  H   UNL     1       0.510   0.838  -2.517  0.00  0.00    +0.155 HD
BRANCH   8  11
ATOM     11  C   UNL     1      -0.445   0.144  -4.867  0.00  0.00    +0.114 C 
BRANCH  11  12
ATOM     12  C   UNL     1      -1.195  -0.683  -5.913  0.00  0.00    +0.080 C 
ATOM     13  C   UNL     1      -1.246   0.089  -7.233  0.00  0.00    +0.019 C 
ATOM     14  C   UNL     1      -1.971   1.419  -7.018  0.00  0.00    +0.001 C 
ATOM     15  C   UNL     1      -3.395   1.150  -6.530  0.00  0.00    +0.000 C 
ATOM     16  C   UNL     1      -3.345   0.379  -5.210  0.00  0.00    +0.001 C 
ATOM     17  C   UNL     1      -2.620  -0.952  -5.424  0.00  0.00    +0.019 C 
BRANCH  12  18
ATOM     18  C   UNL     1      -0.481  -1.993  -6.124  0.00  0.00    +0.362 C 
ATOM     19  O   UNL     1      -1.083  -3.035  -6.008  0.00  0.00    -0.246 OA
ATOM     20  O   UNL     1       0.823  -2.003  -6.441  0.00  0.00    -0.246 OA
ENDBRANCH  12  18
ENDBRANCH  11  12
ENDBRANCH   8  11
ENDBRANCH   5   7
BRANCH   1  21
ATOM     21  S   UNL     1       0.735  -4.775  -0.427  0.00  0.00    +0.061 S 
ATOM     22  O   UNL     1       1.073  -5.090  -1.771  0.00  0.00    -0.153 OA
ATOM     23  O   UNL     1       1.494  -5.242   0.680  0.00  0.00    -0.153 OA
BRANCH  21  24
ATOM     24  N   UNL     1      -0.818  -5.302  -0.193  0.00  0.00    -0.177 NA
BRANCH  24  26
ATOM     25  C   UNL     1      -1.686  -6.910  -1.818  0.00  0.00    +0.022 C 
ATOM     26  C   UNL     1      -1.719  -5.458  -1.337  0.00  0.00    +0.106 C 
ENDBRANCH  24  26
BRANCH  24  27
ATOM     27  C   UNL     1      -1.290  -5.613   1.159  0.00  0.00    +0.106 C 
ATOM     28  C   UNL     1      -2.005  -4.393   1.742  0.00  0.00    +0.022 C 
ENDBRANCH  24  27
ENDBRANCH  21  24
ENDBRANCH   1  21
BRANCH   4  29
ATOM     29  O   UNL     1       0.655   1.104  -0.035  0.00  0.00    -0.505 OA
ATOM     30  H   UNL     1       1.520   1.518  -0.156  0.00  0.00    +0.292 HD
ENDBRANCH   4  29
TORSDOF 9
