REMARK  Name = ZINC01249156
REMARK  7 active torsions:
REMARK  status: ('A' for Active; 'I' for Inactive)
REMARK    1  A    between atoms: C_1  and  C_2
REMARK    2  A    between atoms: C_2  and  C_3
REMARK    3  A    between atoms: C_6  and  C_9
REMARK    4  A    between atoms: N_10  and  N_11
REMARK    5  A    between atoms: C_12  and  C_18
REMARK    6  A    between atoms: C_21  and  O_24
REMARK    7  A    between atoms: O_24  and  C_25
REMARK                            x       y       z     vdW  Elec       q    Type
REMARK                         _______ _______ _______ _____ _____    ______ ____
ROOT
ATOM      1  N   UNL     1      -3.752   1.527  -0.257  0.00  0.00    -0.188 N 
ATOM      2  C   UNL     1      -2.502   1.004   0.019  0.00  0.00    +0.184 A 
ATOM      3  N   UNL     1      -2.635  -0.266   0.287  0.00  0.00    -0.152 NA
ATOM      4  N   UNL     1      -3.994  -0.591   0.182  0.00  0.00    -0.253 N 
ATOM      5  H   UNL     1      -4.387  -1.466   0.327  0.00  0.00    +0.191 HD
ATOM      6  C   UNL     1      -4.657   0.533  -0.159  0.00  0.00    +0.197 A 
ATOM      7  S   UNL     1      -6.344   0.674  -0.413  0.00  0.00    -0.010 S 
ENDROOT
BRANCH   2   8
ATOM      8  C   UNL     1      -1.230   1.758   0.017  0.00  0.00    +0.021 A 
ATOM      9  C   UNL     1      -0.013   1.076   0.008  0.00  0.00    +0.015 A 
ATOM     10  C   UNL     1       1.171   1.782   0.000  0.00  0.00    +0.046 A 
ATOM     11  C   UNL     1       1.153   3.171   0.008  0.00  0.00    +0.120 A 
ATOM     12  C   UNL     1      -0.056   3.853   0.022  0.00  0.00    +0.046 A 
ATOM     13  C   UNL     1      -1.244   3.154   0.029  0.00  0.00    +0.015 A 
BRANCH  11  14
ATOM     14  O   UNL     1       2.322   3.863   0.001  0.00  0.00    -0.495 OA
ATOM     15  C   UNL     1       2.231   5.289   0.009  0.00  0.00    +0.277 C 
ENDBRANCH  11  14
ENDBRANCH   2   8
BRANCH   1  17
ATOM     16  C   UNL     1      -4.017   3.239  -1.827  0.00  0.00    +0.141 C 
ATOM     17  N   UNL     1      -4.029   2.860  -0.586  0.00  0.00    -0.171 NA
BRANCH  16  21
ATOM     18  C   UNL     1      -4.857   7.278  -2.824  0.00  0.00    -0.048 A 
ATOM     19  C   UNL     1      -4.571   6.367  -3.825  0.00  0.00    +0.004 A 
ATOM     20  C   UNL     1      -4.296   5.053  -3.509  0.00  0.00    +0.010 A 
ATOM     21  C   UNL     1      -4.308   4.642  -2.173  0.00  0.00    -0.005 A 
ATOM     22  C   UNL     1      -4.604   5.566  -1.168  0.00  0.00    +0.010 A 
ATOM     23  C   UNL     1      -4.871   6.878  -1.499  0.00  0.00    +0.004 A 
BRANCH  18  25
ATOM     24  C   UNL     1      -6.660   8.877  -3.408  0.00  0.00    +0.009 C 
ATOM     25  C   UNL     1      -5.157   8.712  -3.177  0.00  0.00    +0.032 C 
ENDBRANCH  18  25
ENDBRANCH  16  21
ENDBRANCH   1  17
TORSDOF 5
