REMARK  Name = ZINC61713326
REMARK  8 active torsions:
REMARK  status: ('A' for Active; 'I' for Inactive)
REMARK    1  A    between atoms: C_1  and  C_2
REMARK    2  A    between atoms: C_2  and  C_3
REMARK    3  A    between atoms: C_3  and  C_4
REMARK    4  A    between atoms: C_3  and  C_6
REMARK    5  A    between atoms: C_3  and  C_10
REMARK    6  A    between atoms: C_4  and  C_5
REMARK    7  A    between atoms: N_7  and  O_8
REMARK    8  A    between atoms: C_15  and  O_18
REMARK                            x       y       z     vdW  Elec       q    Type
REMARK                         _______ _______ _______ _____ _____    ______ ____
ROOT
ATOM      1  C   UNL     1      -1.401  -0.557  -0.006  0.00  0.00    +0.105 C 
ENDROOT
BRANCH   1   2
ATOM      2  C   UNL     1      -2.329   0.075  -1.011  0.00  0.00    +0.229 C 
ATOM      3  O   UNL     1      -3.329   0.650  -0.635  0.00  0.00    -0.275 OA
ATOM      4  N   UNL     1      -2.049   0.001  -2.327  0.00  0.00    -0.298 N 
ATOM      5  C   UNL     1      -0.945  -0.764  -2.926  0.00  0.00    +0.110 C 
ATOM      6  C   UNL     1      -1.034  -0.575  -4.455  0.00  0.00    +0.052 C 
ATOM      7  C   UNL     1      -2.518  -0.176  -4.670  0.00  0.00    +0.133 C 
ATOM      8  C   UNL     1      -2.802   0.667  -3.405  0.00  0.00    +0.139 C 
BRANCH   7   9
ATOM      9  O   UNL     1      -2.671   0.607  -5.856  0.00  0.00    -0.390 OA
ATOM     10  H   UNL     1      -2.413   0.147  -6.667  0.00  0.00    +0.210 HD
ENDBRANCH   7   9
ENDBRANCH   1   2
BRANCH   1  11
ATOM     11  C   UNL     1      -1.938  -0.332   1.385  0.00  0.00    +0.147 C 
ATOM     12  N   UNL     1      -1.264   0.374   2.231  0.00  0.00    -0.076 NA
ATOM     13  N   UNL     1      -3.146  -0.880   1.753  0.00  0.00    -0.343 N 
ATOM     14  H   UNL     1      -3.618  -1.469   1.144  0.00  0.00    +0.144 HD
ATOM     15  H   UNL     1      -3.527  -0.675   2.622  0.00  0.00    +0.144 HD
BRANCH  12  16
ATOM     16  O   UNL     1      -1.768   0.586   3.537  0.00  0.00    -0.408 OA
ATOM     17  H   UNL     1      -1.194   1.126   4.097  0.00  0.00    +0.328 HD
ENDBRANCH  12  16
ENDBRANCH   1  11
BRANCH   1  19
ATOM     18  C   UNL     1      -0.134   1.596  -0.004  0.00  0.00    +0.005 C 
ATOM     19  C   UNL     1      -0.013   0.076  -0.125  0.00  0.00    +0.020 C 
ENDBRANCH   1  19
BRANCH   1  20
ATOM     20  C   UNL     1      -1.302  -2.059  -0.277  0.00  0.00    +0.020 C 
ATOM     21  C   UNL     1      -0.483  -2.725   0.831  0.00  0.00    +0.005 C 
ENDBRANCH   1  20
TORSDOF 6
