REMARK  Name = ZINC04727976
REMARK  4 active torsions:
REMARK  status: ('A' for Active; 'I' for Inactive)
REMARK    1  A    between atoms: C_1  and  N_2
REMARK    2  A    between atoms: C_5  and  C_10
REMARK    3  A    between atoms: C_14  and  N_16
REMARK    4  A    between atoms: N_21  and  C_23
REMARK                            x       y       z     vdW  Elec       q    Type
REMARK                         _______ _______ _______ _____ _____    ______ ____
ROOT
ATOM      1  C   UNL     1      -2.544   3.622   0.047  0.00  0.00    +0.139 C 
ATOM      2  N   UNL     1      -1.228   2.978   0.031  0.00  0.00    -0.260 N 
ATOM      3  C   UNL     1      -0.119   3.775   0.024  0.00  0.00    +0.042 C 
ATOM      4  C   UNL     1       1.122   3.247   0.009  0.00  0.00    +0.058 C 
ATOM      5  C   UNL     1       1.244   1.736  -0.001  0.00  0.00    +0.142 C 
ATOM      6  N   UNL     1      -0.011   0.966   0.007  0.00  0.00    -0.288 N 
ATOM      7  C   UNL     1      -1.178   1.639   0.017  0.00  0.00    +0.307 C 
ATOM      8  O   UNL     1      -2.220   1.012   0.018  0.00  0.00    -0.252 OA
ATOM      9  C   UNL     1       2.091   4.271   0.004  0.00  0.00    +0.251 C 
ATOM     10  O   UNL     1       3.293   4.080  -0.009  0.00  0.00    -0.270 OA
ATOM     11  N   UNL     1       1.514   5.486   0.016  0.00  0.00    -0.262 N 
ATOM     12  C   UNL     1       0.058   5.277   0.029  0.00  0.00    +0.165 C 
ATOM     13  H   UNL     1       0.002  -0.004   0.002  0.00  0.00    +0.151 HD
ENDROOT
BRANCH   5  14
ATOM     14  C   UNL     1       2.024   1.342  -1.228  0.00  0.00    -0.020 A 
ATOM     15  C   UNL     1       1.368   1.138  -2.428  0.00  0.00    +0.006 A 
ATOM     16  C   UNL     1       2.083   0.776  -3.554  0.00  0.00    +0.003 A 
ATOM     17  C   UNL     1       3.455   0.618  -3.480  0.00  0.00    +0.033 A 
ATOM     18  C   UNL     1       4.111   0.822  -2.281  0.00  0.00    +0.127 A 
ATOM     19  C   UNL     1       3.396   1.189  -1.156  0.00  0.00    +0.038 A 
BRANCH  18  20
ATOM     20  N   UNL     1       5.579   0.653  -2.202  0.00  0.00    +0.056 N 
ATOM     21  O   UNL     1       6.210   0.334  -3.194  0.00  0.00    -0.126 OA
ATOM     22  O   UNL     1       6.157   0.834  -1.145  0.00  0.00    -0.126 OA
ENDBRANCH  18  20
ENDBRANCH   5  14
BRANCH  11  23
ATOM     23  C   UNL     1       2.175   6.718   0.016  0.00  0.00    +0.037 A 
ATOM     24  C   UNL     1       1.445   7.900   0.023  0.00  0.00    +0.023 A 
ATOM     25  C   UNL     1       2.101   9.115   0.029  0.00  0.00    +0.002 A 
ATOM     26  C   UNL     1       3.483   9.156   0.015  0.00  0.00    +0.000 A 
ATOM     27  C   UNL     1       4.213   7.981   0.002  0.00  0.00    +0.002 A 
ATOM     28  C   UNL     1       3.563   6.763   0.002  0.00  0.00    +0.023 A 
ENDBRANCH  11  23
TORSDOF 3
