REMARK  Name = ZINC39533970
REMARK  8 active torsions:
REMARK  status: ('A' for Active; 'I' for Inactive)
REMARK    1  A    between atoms: C_4  and  O_32
REMARK    2  A    between atoms: C_5  and  C_7
REMARK    3  A    between atoms: C_10  and  C_13
REMARK    4  A    between atoms: C_13  and  C_15
REMARK    5  A    between atoms: C_13  and  N_18
REMARK    6  A    between atoms: C_15  and  N_16
REMARK    7  A    between atoms: C_22  and  C_25
REMARK    8  A    between atoms: C_30  and  O_31
REMARK                            x       y       z     vdW  Elec       q    Type
REMARK                         _______ _______ _______ _____ _____    ______ ____
ROOT
ATOM      1  C   UNL     1       1.300  -6.441  -0.048  0.00  0.00    +0.102 C 
ENDROOT
BRANCH   1   2
ATOM      2  N   UNL     1       1.284  -7.028   1.299  0.00  0.00    -0.297 NA
ATOM      3  C   UNL     1       2.297  -6.399   2.159  0.00  0.00    +0.066 C 
ATOM      4  C   UNL     1       2.209  -6.995   3.565  0.00  0.00    -0.066 C 
ATOM      5  N   UNL     1       2.430  -8.445   3.498  0.00  0.00    +0.385 N 
ATOM      6  C   UNL     1       1.397  -9.062   2.656  0.00  0.00    -0.023 C 
ATOM      7  C   UNL     1       1.478  -8.483   1.242  0.00  0.00    +0.074 C 
ATOM      8  H   UNL     1       3.340  -8.628   3.102  0.00  0.00    -0.085 HD
ATOM      9  H   UNL     1       2.384  -8.836   4.427  0.00  0.00    -0.085 HD
BRANCH   6  10
ATOM     10  C   UNL     1       1.615 -10.552   2.603  0.00  0.00    -0.019 A 
ATOM     11  C   UNL     1       2.850 -11.082   2.925  0.00  0.00    +0.005 A 
ATOM     12  C   UNL     1       3.051 -12.448   2.876  0.00  0.00    +0.000 A 
ATOM     13  C   UNL     1       2.017 -13.289   2.505  0.00  0.00    +0.004 A 
ATOM     14  C   UNL     1       0.781 -12.764   2.183  0.00  0.00    +0.045 A 
ATOM     15  C   UNL     1       0.575 -11.393   2.236  0.00  0.00    +0.118 A 
BRANCH  15  16
ATOM     16  O   UNL     1      -0.642 -10.875   1.925  0.00  0.00    -0.507 OA
ATOM     17  H   UNL     1      -0.750 -10.659   0.989  0.00  0.00    +0.292 HD
ENDBRANCH  15  16
ENDBRANCH   6  10
ENDBRANCH   1   2
BRANCH   1  21
ATOM     18  C   UNL     1       0.482  -2.253   0.211  0.00  0.00    -0.014 A 
ATOM     19  C   UNL     1       1.447  -2.723  -0.678  0.00  0.00    +0.009 A 
ATOM     20  C   UNL     1       1.707  -4.076  -0.757  0.00  0.00    +0.006 A 
ATOM     21  C   UNL     1       1.012  -4.965   0.044  0.00  0.00    -0.029 A 
ATOM     22  C   UNL     1       0.053  -4.503   0.928  0.00  0.00    +0.006 A 
ATOM     23  C   UNL     1      -0.211  -3.152   1.019  0.00  0.00    +0.009 A 
BRANCH  18  28
ATOM     24  C   UNL     1      -1.373   1.016   0.322  0.00  0.00    +0.001 A 
ATOM     25  C   UNL     1      -0.332   1.916   0.469  0.00  0.00    +0.004 A 
ATOM     26  C   UNL     1       0.974   1.468   0.532  0.00  0.00    +0.046 A 
ATOM     27  C   UNL     1       1.248   0.113   0.450  0.00  0.00    +0.125 A 
ATOM     28  C   UNL     1       0.199  -0.800   0.301  0.00  0.00    +0.024 A 
ATOM     29  C   UNL     1      -1.114  -0.338   0.238  0.00  0.00    +0.012 A 
BRANCH  27  30
ATOM     30  O   UNL     1       2.531  -0.329   0.512  0.00  0.00    -0.506 OA
ATOM     31  H   UNL     1       2.837  -0.523   1.408  0.00  0.00    +0.292 HD
ENDBRANCH  27  30
ENDBRANCH  18  28
ENDBRANCH   1  21
BRANCH   1  32
ATOM     32  C   UNL     1       0.232  -7.117  -0.910  0.00  0.00    +0.122 C 
BRANCH  32  33
ATOM     33  N   UNL     1       0.302  -6.589  -2.280  0.00  0.00    -0.231 NA
ATOM     34 CL   UNL     1      -0.969  -7.208  -3.241  0.00  0.00    -0.024 Cl
ATOM     35  H   UNL     1       1.200  -6.786  -2.697  0.00  0.00    +0.141 HD
ENDBRANCH  32  33
ENDBRANCH   1  32
TORSDOF 8
