REMARK  Name = ZINC66679173
REMARK  4 active torsions:
REMARK  status: ('A' for Active; 'I' for Inactive)
REMARK    1  A    between atoms: C_8  and  C_12
REMARK    2  A    between atoms: C_12  and  N_13
REMARK    3  A    between atoms: N_16  and  C_17
REMARK    4  A    between atoms: C_21  and  C_23
REMARK                            x       y       z     vdW  Elec       q    Type
REMARK                         _______ _______ _______ _____ _____    ______ ____
ROOT
ATOM      1  N   UNL     1       3.902  -4.766   0.593  0.00  0.00    -0.299 N 
ATOM      2  C   UNL     1       4.188  -6.074   0.446  0.00  0.00    +0.304 C 
ATOM      3  O   UNL     1       3.397  -6.811  -0.111  0.00  0.00    -0.253 OA
ATOM      4  N   UNL     1       5.351  -6.567   0.916  0.00  0.00    -0.269 N 
ATOM      5  H   UNL     1       4.533  -4.178   1.037  0.00  0.00    +0.150 HD
ATOM      6  H   UNL     1       6.011  -5.968   1.300  0.00  0.00    +0.156 HD
ENDROOT
BRANCH   4   7
ATOM      7  C   UNL     1       5.607  -7.941   0.850  0.00  0.00    +0.035 A 
ATOM      8  C   UNL     1       5.148  -8.682  -0.232  0.00  0.00    +0.023 A 
ATOM      9  C   UNL     1       5.398 -10.040  -0.300  0.00  0.00    +0.002 A 
ATOM     10  C   UNL     1       6.105 -10.667   0.706  0.00  0.00    +0.010 A 
ATOM     11  C   UNL     1       6.569  -9.932   1.795  0.00  0.00    +0.004 A 
ATOM     12  C   UNL     1       6.322  -8.563   1.862  0.00  0.00    +0.033 A 
BRANCH  11  13
ATOM     13  C   UNL     1       7.328 -10.604   2.878  0.00  0.00    +0.091 A 
ATOM     14  C   UNL     1       7.585 -11.993   2.800  0.00  0.00    +0.035 A 
ATOM     15  C   UNL     1       8.286 -12.577   3.814  0.00  0.00    +0.073 A 
ATOM     16  C   UNL     1       8.713 -11.757   4.881  0.00  0.00    +0.265 A 
ATOM     17  O   UNL     1       9.344 -12.235   5.810  0.00  0.00    -0.266 OA
ATOM     18  N   UNL     1       8.420 -10.443   4.866  0.00  0.00    -0.243 N 
ATOM     19  H   UNL     1       8.716  -9.885   5.602  0.00  0.00    +0.192 HD
ATOM     20  N   UNL     1       7.763  -9.908   3.901  0.00  0.00    -0.171 NA
ENDBRANCH  11  13
ENDBRANCH   4   7
BRANCH   1  21
ATOM     21  C   UNL     1       2.638  -4.230   0.082  0.00  0.00    +0.113 C 
BRANCH  21  29
ATOM     22  C   UNL     1      -0.003   1.383  -0.017  0.00  0.00    +0.000 A 
ATOM     23  C   UNL     1       1.187   2.088  -0.033  0.00  0.00    +0.004 A 
ATOM     24  C   UNL     1       2.389   1.411  -0.047  0.00  0.00    +0.046 A 
ATOM     25  C   UNL     1       2.409   0.019  -0.046  0.00  0.00    +0.124 A 
ATOM     26  C   UNL     1       1.216  -0.683  -0.033  0.00  0.00    -0.005 A 
ATOM     27  C   UNL     1       0.013   0.002  -0.017  0.00  0.00    +0.007 A 
ATOM     28  C   UNL     1       1.193  -2.191  -0.043  0.00  0.00    +0.047 C 
ATOM     29  C   UNL     1       2.562  -2.731   0.377  0.00  0.00    +0.048 C 
ATOM     30  C   UNL     1       3.639  -1.990  -0.427  0.00  0.00    +0.234 C 
ATOM     31  O   UNL     1       3.611  -0.612  -0.054  0.00  0.00    -0.491 OA
ENDBRANCH  21  29
ENDBRANCH   1  21
TORSDOF 4
