REMARK  Name = ZINC16909395
REMARK  10 active torsions:
REMARK  status: ('A' for Active; 'I' for Inactive)
REMARK    1  A    between atoms: C_1  and  C_2
REMARK    2  A    between atoms: C_2  and  C_3
REMARK    3  A    between atoms: C_10  and  C_12
REMARK    4  A    between atoms: C_15  and  S_18
REMARK    5  A    between atoms: N_16  and  C_17
REMARK    6  A    between atoms: S_18  and  C_19
REMARK    7  A    between atoms: C_19  and  C_21
REMARK    8  A    between atoms: C_19  and  C_22
REMARK    9  A    between atoms: N_24  and  C_25
REMARK   10  A    between atoms: C_26  and  C_30
REMARK                            x       y       z     vdW  Elec       q    Type
REMARK                         _______ _______ _______ _____ _____    ______ ____
ROOT
ATOM      1  C   UNL     1       2.622   8.380   1.317  0.00  0.00    +0.171 A 
ATOM      2  N   UNL     1       3.761   8.263   0.670  0.00  0.00    -0.128 NA
ATOM      3  N   UNL     1       4.398   9.378   0.698  0.00  0.00    -0.122 NA
ATOM      4  C   UNL     1       3.709  10.277   1.364  0.00  0.00    +0.192 A 
ATOM      5  N   UNL     1       2.552   9.676   1.777  0.00  0.00    -0.305 N 
ATOM      6  C   UNL     1       1.466  10.283   2.551  0.00  0.00    +0.153 C 
ENDROOT
BRANCH   1  13
ATOM      7  C   UNL     1      -0.750   3.109   1.275  0.00  0.00    -0.007 C 
ATOM      8  C   UNL     1      -1.578   3.599   2.466  0.00  0.00    +0.009 C 
ATOM      9  C   UNL     1      -1.816   5.110   2.312  0.00  0.00    +0.043 C 
ATOM     10  C   UNL     1      -0.510   5.758   1.983  0.00  0.00    -0.006 A 
ATOM     11  C   UNL     1       0.637   5.150   1.566  0.00  0.00    -0.036 A 
ATOM     12  C   UNL     1       1.728   5.975   1.325  0.00  0.00    +0.023 A 
ATOM     13  C   UNL     1       1.612   7.327   1.509  0.00  0.00    +0.057 A 
ATOM     14  S   UNL     1      -0.086   7.478   2.043  0.00  0.00    -0.090 S 
ATOM     15  C   UNL     1       0.682   3.635   1.384  0.00  0.00    +0.039 C 
BRANCH   7  17
ATOM     16  C   UNL     1      -0.013   1.086   0.008  0.00  0.00    +0.004 C 
ATOM     17  C   UNL     1      -0.729   1.579   1.267  0.00  0.00    +0.000 C 
ENDBRANCH   7  17
ENDBRANCH   1  13
BRANCH   4  18
ATOM     18  S   UNL     1       4.183  11.947   1.662  0.00  0.00    -0.074 S 
BRANCH  18  19
ATOM     19  C   UNL     1       5.782  11.976   0.816  0.00  0.00    +0.137 C 
ATOM     20  C   UNL     1       6.754  11.033   1.530  0.00  0.00    +0.029 C 
BRANCH  19  21
ATOM     21  C   UNL     1       6.336  13.377   0.836  0.00  0.00    +0.231 C 
ATOM     22  O   UNL     1       5.995  14.152   1.705  0.00  0.00    -0.274 OA
ATOM     23  N   UNL     1       7.211  13.770  -0.111  0.00  0.00    -0.278 N 
ATOM     24  H   UNL     1       7.484  13.150  -0.806  0.00  0.00    +0.155 HD
BRANCH  23  25
ATOM     25  C   UNL     1       7.721  15.059  -0.093  0.00  0.00    +0.084 A 
ATOM     26  C   UNL     1       8.627  15.642  -0.971  0.00  0.00    +0.065 A 
ATOM     27  C   UNL     1       8.986  17.017  -0.715  0.00  0.00    +0.022 A 
ATOM     28  C   UNL     1       8.422  17.610   0.352  0.00  0.00    +0.048 A 
ATOM     29  S   UNL     1       7.388  16.331   1.034  0.00  0.00    -0.081 S 
BRANCH  26  30
ATOM     30  C   UNL     1       9.188  14.898  -2.102  0.00  0.00    +0.244 C 
ATOM     31  O   UNL     1       8.863  13.741  -2.292  0.00  0.00    -0.270 OA
ATOM     32  N   UNL     1      10.065  15.496  -2.933  0.00  0.00    -0.325 N 
ATOM     33  H   UNL     1      10.325  16.418  -2.783  0.00  0.00    +0.145 HD
ATOM     34  H   UNL     1      10.437  15.004  -3.682  0.00  0.00    +0.145 HD
ENDBRANCH  26  30
ENDBRANCH  23  25
ENDBRANCH  19  21
ENDBRANCH  18  19
ENDBRANCH   4  18
TORSDOF 7
