REMARK  Name = ZINC47257558
REMARK  7 active torsions:
REMARK  status: ('A' for Active; 'I' for Inactive)
REMARK    1  A    between atoms: C_1  and  C_2
REMARK    2  A    between atoms: C_2  and  C_4
REMARK    3  A    between atoms: C_2  and  N_11
REMARK    4  A    between atoms: N_11  and  C_12
REMARK    5  A    between atoms: N_11  and  C_28
REMARK    6  A    between atoms: C_12  and  C_13
REMARK    7  A    between atoms: N_15  and  N_16
REMARK                            x       y       z     vdW  Elec       q    Type
REMARK                         _______ _______ _______ _____ _____    ______ ____
ROOT
ATOM      1  C   UNL     1       1.278  -2.393  -2.587  0.00  0.00    +0.213 C 
ATOM      2  O   UNL     1       1.789  -1.572  -3.320  0.00  0.00    -0.276 OA
ATOM      3  N   UNL     1       1.370  -3.706  -2.878  0.00  0.00    -0.225 N 
ATOM      4  H   UNL     1       0.962  -4.362  -2.292  0.00  0.00    +0.173 HD
ENDROOT
BRANCH   3   5
ATOM      5  N   UNL     1       2.057  -4.122  -4.026  0.00  0.00    -0.137 N 
ATOM      6  C   UNL     1       1.455  -4.557  -5.153  0.00  0.00    +0.263 C 
ATOM      7  O   UNL     1       0.265  -4.657  -5.357  0.00  0.00    -0.271 OA
ATOM      8  C   UNL     1       2.579  -4.891  -6.106  0.00  0.00    +0.114 C 
ATOM      9  C   UNL     1       2.493  -4.021  -7.356  0.00  0.00    +0.035 C 
ATOM     10  C   UNL     1       3.656  -4.355  -8.293  0.00  0.00    +0.003 C 
ATOM     11  C   UNL     1       3.593  -5.834  -8.677  0.00  0.00    +0.000 C 
ATOM     12  C   UNL     1       3.704  -6.695  -7.416  0.00  0.00    +0.003 C 
ATOM     13  C   UNL     1       2.541  -6.370  -6.475  0.00  0.00    +0.035 C 
ATOM     14  N   UNL     1       3.796  -4.582  -5.346  0.00  0.00    -0.284 N 
ATOM     15  C   UNL     1       3.390  -4.134  -4.143  0.00  0.00    +0.326 C 
ATOM     16  O   UNL     1       4.149  -3.782  -3.261  0.00  0.00    -0.251 OA
ATOM     17  H   UNL     1       4.712  -4.678  -5.651  0.00  0.00    +0.151 HD
ENDBRANCH   3   5
BRANCH   1  18
ATOM     18  C   UNL     1       0.540  -1.945  -1.352  0.00  0.00    +0.021 C 
BRANCH  18  19
ATOM     19  N   UNL     1       0.582  -0.479  -1.261  0.00  0.00    +0.392 N 
ATOM     20  H   UNL     1       1.541  -0.168  -1.292  0.00  0.00    -0.080 HD
BRANCH  19  21
ATOM     21  C   UNL     1      -0.158   0.103  -2.389  0.00  0.00    -0.067 C 
ATOM     22  C   UNL     1       0.659   0.698  -3.538  0.00  0.00    -0.017 C 
ATOM     23  C   UNL     1      -0.088   1.620  -2.572  0.00  0.00    -0.017 C 
ENDBRANCH  19  21
BRANCH  19  25
ATOM     24  C   UNL     1       0.041   1.476   0.111  0.00  0.00    -0.008 C 
ATOM     25  C   UNL     1      -0.033  -0.049   0.002  0.00  0.00    -0.038 C 
BRANCH  25  26
ATOM     26  C   UNL     1       0.707  -0.671   1.158  0.00  0.00    -0.043 A 
ATOM     27  C   UNL     1       2.029  -1.049   1.010  0.00  0.00    +0.003 A 
ATOM     28  C   UNL     1       2.707  -1.620   2.071  0.00  0.00    +0.000 A 
ATOM     29  C   UNL     1       2.064  -1.814   3.279  0.00  0.00    +0.001 A 
ATOM     30  C   UNL     1       0.743  -1.437   3.428  0.00  0.00    +0.020 A 
ATOM     31  C   UNL     1       0.065  -0.860   2.368  0.00  0.00    +0.043 A 
ATOM     32 CL   UNL     1      -1.593  -0.380   2.556  0.00  0.00    -0.083 Cl
ENDBRANCH  25  26
ENDBRANCH  19  25
ENDBRANCH  18  19
ENDBRANCH   1  18
TORSDOF 6
