REMARK  Name = ZINC66671015
REMARK  7 active torsions:
REMARK  status: ('A' for Active; 'I' for Inactive)
REMARK    1  A    between atoms: N_9  and  C_11
REMARK    2  A    between atoms: C_11  and  C_12
REMARK    3  A    between atoms: C_12  and  C_14
REMARK    4  A    between atoms: C_12  and  O_30
REMARK    5  A    between atoms: C_14  and  N_15
REMARK    6  A    between atoms: N_18  and  C_19
REMARK    7  A    between atoms: C_24  and  N_25
REMARK                            x       y       z     vdW  Elec       q    Type
REMARK                         _______ _______ _______ _____ _____    ______ ____
ROOT
ATOM      1  N   UNL     1       8.263  -2.260   1.813  0.00  0.00    -0.297 N 
ATOM      2  C   UNL     1       9.546  -2.669   1.750  0.00  0.00    +0.304 C 
ATOM      3  O   UNL     1       9.874  -3.520   0.946  0.00  0.00    -0.253 OA
ATOM      4  N   UNL     1      10.465  -2.136   2.579  0.00  0.00    -0.266 N 
ATOM      5  H   UNL     1       8.002  -1.581   2.455  0.00  0.00    +0.150 HD
ATOM      6  H   UNL     1      10.222  -1.401   3.164  0.00  0.00    +0.156 HD
ENDROOT
BRANCH   4   7
ATOM      7  C   UNL     1      11.770  -2.642   2.597  0.00  0.00    +0.079 A 
ATOM      8  C   UNL     1      12.025  -3.949   2.196  0.00  0.00    +0.028 A 
ATOM      9  C   UNL     1      13.334  -4.406   2.230  0.00  0.00    +0.022 A 
ATOM     10  C   UNL     1      14.337  -3.557   2.657  0.00  0.00    +0.113 A 
ATOM     11  N   UNL     1      14.067  -2.322   3.032  0.00  0.00    -0.235 NA
ATOM     12  C   UNL     1      12.835  -1.842   3.011  0.00  0.00    +0.177 A 
BRANCH  12  13
ATOM     13  N   UNL     1      12.597  -0.523   3.412  0.00  0.00    -0.200 N 
ATOM     14  C   UNL     1      13.356   0.219   4.242  0.00  0.00    +0.226 A 
ATOM     15  N   UNL     1      12.795   1.395   4.362  0.00  0.00    -0.222 NA
ATOM     16  C   UNL     1      11.683   1.442   3.628  0.00  0.00    +0.245 A 
ATOM     17  N   UNL     1      11.522   0.294   3.024  0.00  0.00    -0.152 NA
ENDBRANCH  12  13
ENDBRANCH   4   7
BRANCH   1  18
ATOM     18  C   UNL     1       7.264  -2.840   0.912  0.00  0.00    +0.135 C 
BRANCH  18  19
ATOM     19  C   UNL     1       5.899  -2.205   1.188  0.00  0.00    +0.115 C 
BRANCH  19  20
ATOM     20  O   UNL     1       5.522  -2.458   2.543  0.00  0.00    -0.392 OA
ATOM     21  H   UNL     1       5.451  -3.397   2.763  0.00  0.00    +0.210 HD
ENDBRANCH  19  20
BRANCH  19  22
ATOM     22  C   UNL     1       4.856  -2.811   0.247  0.00  0.00    -0.045 C 
BRANCH  22  31
ATOM     23  C   UNL     1      -0.055   1.313   0.083  0.00  0.00    +0.000 A 
ATOM     24  C   UNL     1       1.130   2.025   0.070  0.00  0.00    +0.000 A 
ATOM     25  C   UNL     1       2.336   1.354   0.044  0.00  0.00    +0.002 A 
ATOM     26  C   UNL     1       2.365  -0.033   0.032  0.00  0.00    -0.061 A 
ATOM     27  C   UNL     1       1.183  -0.742   0.048  0.00  0.00    -0.048 A 
ATOM     28  C   UNL     1      -0.028  -0.067   0.072  0.00  0.00    +0.004 A 
ATOM     29  C   UNL     1       1.171  -2.249   0.043  0.00  0.00    +0.017 C 
ATOM     30  C   UNL     1       2.540  -2.777  -0.387  0.00  0.00    -0.074 C 
ATOM     31  N   UNL     1       3.573  -2.119   0.428  0.00  0.00    +0.384 N 
ATOM     32  C   UNL     1       3.703  -0.724  -0.001  0.00  0.00    -0.043 C 
ATOM     33  H   UNL     1       3.306  -2.150   1.401  0.00  0.00    -0.081 HD
ENDBRANCH  22  31
ENDBRANCH  19  22
ENDBRANCH  18  19
ENDBRANCH   1  18
TORSDOF 7
