REMARK  Name = ZINC03024931
REMARK  5 active torsions:
REMARK  status: ('A' for Active; 'I' for Inactive)
REMARK    1  A    between atoms: C_4  and  C_7
REMARK    2  A    between atoms: C_7  and  C_9
REMARK    3  A    between atoms: C_7  and  O_23
REMARK    4  A    between atoms: N_11  and  N_12
REMARK    5  A    between atoms: C_13  and  C_14
REMARK                            x       y       z     vdW  Elec       q    Type
REMARK                         _______ _______ _______ _____ _____    ______ ____
ROOT
ATOM      1  C   UNL     1      -1.187   1.624   0.017  0.00  0.00    +0.265 C 
ATOM      2  O   UNL     1      -1.204   2.837   0.023  0.00  0.00    -0.271 OA
ATOM      3  N   UNL     1      -0.011   0.966   0.007  0.00  0.00    -0.205 N 
ATOM      4  H   UNL     1       0.004  -0.134   0.006  0.00  0.00    +0.177 HD
ENDROOT
BRANCH   3   5
ATOM      5  N   UNL     1       1.193   1.683  -0.000  0.00  0.00    -0.188 NA
ATOM      6  C   UNL     1       2.325   1.049  -0.015  0.00  0.00    +0.142 C 
BRANCH   6   7
ATOM      7  C   UNL     1       3.591   1.803  -0.022  0.00  0.00    +0.043 A 
ATOM      8  C   UNL     1       4.813   1.125  -0.038  0.00  0.00    +0.028 A 
ATOM      9  C   UNL     1       5.995   1.837  -0.045  0.00  0.00    +0.020 A 
ATOM     10  C   UNL     1       5.976   3.222  -0.038  0.00  0.00    +0.034 A 
ATOM     11  C   UNL     1       4.773   3.905  -0.022  0.00  0.00    +0.066 A 
ATOM     12  C   UNL     1       3.577   3.204  -0.021  0.00  0.00    +0.201 A 
ATOM     13  O   UNL     1       2.395   3.874  -0.011  0.00  0.00    -0.286 OA
ATOM     14 BR   UNL     1       4.761   5.795  -0.012  0.00  0.00    -0.046 Br
ATOM     15 BR   UNL     1       7.647   0.918  -0.065  0.00  0.00    -0.050 Br
ENDBRANCH   6   7
ENDBRANCH   3   5
BRANCH   1  16
ATOM     16  C   UNL     1      -2.482   0.853   0.018  0.00  0.00    +0.232 C 
BRANCH  16  20
ATOM     17  C   UNL     1      -2.852  -1.319  -3.642  0.00  0.00    +0.000 A 
ATOM     18  C   UNL     1      -2.426  -1.963  -2.496  0.00  0.00    +0.000 A 
ATOM     19  C   UNL     1      -2.306  -1.261  -1.311  0.00  0.00    +0.006 A 
ATOM     20  C   UNL     1      -2.612   0.087  -1.273  0.00  0.00    -0.010 A 
ATOM     21  C   UNL     1      -3.044   0.730  -2.418  0.00  0.00    +0.006 A 
ATOM     22  C   UNL     1      -3.159   0.029  -3.603  0.00  0.00    +0.000 A 
ENDBRANCH  16  20
BRANCH  16  23
ATOM     23  O   UNL     1      -3.578   1.761   0.146  0.00  0.00    -0.378 OA
ATOM     24  H   UNL     1      -3.654   2.410   1.031  0.00  0.00    +0.211 HD
ENDBRANCH  16  23
ENDBRANCH   1  16
TORSDOF 5
