REMARK  Name = ZINC37711745
REMARK  7 active torsions:
REMARK  status: ('A' for Active; 'I' for Inactive)
REMARK    1  A    between atoms: C_1  and  O_2
REMARK    2  A    between atoms: O_2  and  C_3
REMARK    3  A    between atoms: C_5  and  C_19
REMARK    4  A    between atoms: C_8  and  O_9
REMARK    5  A    between atoms: O_9  and  C_10
REMARK    6  A    between atoms: C_15  and  O_17
REMARK    7  A    between atoms: C_19  and  N_20
REMARK                            x       y       z     vdW  Elec       q    Type
REMARK                         _______ _______ _______ _____ _____    ______ ____
ROOT
ATOM      1  C   UNL     1      -1.201  -0.638   0.010  0.00  0.00    +0.163 A 
ATOM      2  C   UNL     1      -2.374   0.100   0.019  0.00  0.00    +0.051 A 
ATOM      3  C   UNL     1      -3.597  -0.546   0.028  0.00  0.00    -0.060 A 
ATOM      4  C   UNL     1      -3.653  -1.927   0.028  0.00  0.00    +0.021 A 
ATOM      5  C   UNL     1      -2.486  -2.669   0.018  0.00  0.00    +0.063 A 
ATOM      6  C   UNL     1      -1.257  -2.028   0.003  0.00  0.00    +0.176 A 
ATOM      7 BR   UNL     1      -2.567  -4.559   0.019  0.00  0.00    -0.046 Br
ENDROOT
BRANCH   1   9
ATOM      8  C   UNL     1      -0.017   1.425   0.010  0.00  0.00    +0.277 C 
ATOM      9  O   UNL     1       0.002  -0.004   0.002  0.00  0.00    -0.491 OA
ENDBRANCH   1   9
BRANCH   6  10
ATOM     10  O   UNL     1      -0.108  -2.756  -0.012  0.00  0.00    -0.481 OA
BRANCH  10  11
ATOM     11  C   UNL     1       0.452  -3.110   1.254  0.00  0.00    +0.202 C 
ATOM     12  C   UNL     1       1.474  -2.043   1.697  0.00  0.00    +0.047 C 
ATOM     13  C   UNL     1       2.596  -2.856   2.390  0.00  0.00    +0.006 C 
ATOM     14  C   UNL     1       2.688  -4.128   1.512  0.00  0.00    +0.035 C 
ATOM     15  C   UNL     1       1.223  -4.437   1.137  0.00  0.00    +0.155 C 
BRANCH  15  16
ATOM     16  O   UNL     1       0.678  -5.401   2.040  0.00  0.00    -0.388 OA
ATOM     17  H   UNL     1       1.122  -6.260   2.014  0.00  0.00    +0.210 HD
ENDBRANCH  15  16
ENDBRANCH  10  11
ENDBRANCH   6  10
BRANCH   3  18
ATOM     18  C   UNL     1      -4.871   0.258   0.039  0.00  0.00    -0.050 C 
BRANCH  18  19
ATOM     19  N   UNL     1      -5.296   0.521  -1.342  0.00  0.00    +0.381 N 
ATOM     20  H   UNL     1      -4.576   1.039  -1.823  0.00  0.00    -0.090 HD
ATOM     21  H   UNL     1      -5.455  -0.355  -1.818  0.00  0.00    -0.090 HD
ATOM     22  H   UNL     1      -6.150   1.059  -1.335  0.00  0.00    -0.090 HD
ENDBRANCH  18  19
ENDBRANCH   3  18
TORSDOF 6
