REMARK  Name = ZINC24881124
REMARK  8 active torsions:
REMARK  status: ('A' for Active; 'I' for Inactive)
REMARK    1  A    between atoms: C_1  and  C_2
REMARK    2  A    between atoms: C_5  and  C_36
REMARK    3  A    between atoms: C_10  and  C_12
REMARK    4  A    between atoms: C_12  and  N_13
REMARK    5  A    between atoms: N_16  and  C_19
REMARK    6  A    between atoms: C_19  and  C_20
REMARK    7  A    between atoms: C_20  and  C_21
REMARK    8  A    between atoms: N_23  and  N_24
REMARK                            x       y       z     vdW  Elec       q    Type
REMARK                         _______ _______ _______ _____ _____    ______ ____
ROOT
ATOM      1  C   UNL     1      -5.969  -1.137  -0.921  0.00  0.00    +0.093 C 
ENDROOT
BRANCH   1   5
ATOM      2  N   UNL     1      -2.433   0.975   0.019  0.00  0.00    +0.387 N 
ATOM      3  C   UNL     1      -2.469   0.218  -1.240  0.00  0.00    -0.063 C 
ATOM      4  C   UNL     1      -3.579  -0.833  -1.169  0.00  0.00    +0.066 C 
ATOM      5  N   UNL     1      -4.866  -0.167  -0.921  0.00  0.00    -0.305 NA
ATOM      6  C   UNL     1      -4.830   0.590   0.338  0.00  0.00    +0.066 C 
ATOM      7  C   UNL     1      -3.719   1.641   0.267  0.00  0.00    -0.063 C 
ATOM      8  H   UNL     1      -2.256   0.262   0.838  0.00  0.00    -0.081 HD
BRANCH   2   9
ATOM      9  C   UNL     1      -1.330   1.944   0.019  0.00  0.00    +0.019 C 
BRANCH   9  17
ATOM     10  C   UNL     1       2.128   5.381   1.113  0.00  0.00    +0.009 C 
ATOM     11  C   UNL     1       2.010   3.857   1.170  0.00  0.00    +0.004 C 
ATOM     12  C   UNL     1       3.403   3.233   1.057  0.00  0.00    +0.009 C 
ATOM     13  C   UNL     1       3.290   1.709   1.147  0.00  0.00    +0.004 C 
ATOM     14  C   UNL     1       2.433   1.195  -0.015  0.00  0.00    +0.111 C 
ATOM     15  N   UNL     1       1.143   1.898   0.001  0.00  0.00    -0.303 N 
ATOM     16  C   UNL     1       1.140   3.368   0.003  0.00  0.00    +0.111 C 
ATOM     17  C   UNL     1      -0.014   1.209   0.009  0.00  0.00    +0.199 C 
ATOM     18  O   UNL     1       0.002  -0.004   0.002  0.00  0.00    -0.278 OA
ATOM     19  C   UNL     1       2.634   1.323   2.474  0.00  0.00    +0.009 C 
ENDBRANCH   9  17
ENDBRANCH   2   9
ENDBRANCH   1   5
BRANCH   1  20
ATOM     20  C   UNL     1      -6.132  -1.724  -2.325  0.00  0.00    +0.112 C 
BRANCH  20  21
ATOM     21  C   UNL     1      -7.264  -2.719  -2.325  0.00  0.00    +0.231 C 
ATOM     22  O   UNL     1      -7.880  -2.937  -1.303  0.00  0.00    -0.274 OA
ATOM     23  N   UNL     1      -7.592  -3.367  -3.460  0.00  0.00    -0.224 N 
ATOM     24  H   UNL     1      -7.033  -3.170  -4.387  0.00  0.00    +0.174 HD
BRANCH  23  25
ATOM     25  N   UNL     1      -8.644  -4.292  -3.460  0.00  0.00    -0.137 N 
ATOM     26  C   UNL     1      -9.862  -4.055  -3.991  0.00  0.00    +0.263 C 
ATOM     27  O   UNL     1     -10.239  -3.041  -4.537  0.00  0.00    -0.271 OA
ATOM     28  C   UNL     1     -10.656  -5.320  -3.760  0.00  0.00    +0.114 C 
ATOM     29  C   UNL     1     -11.082  -5.929  -5.091  0.00  0.00    +0.035 C 
ATOM     30  C   UNL     1     -11.860  -7.223  -4.838  0.00  0.00    +0.003 C 
ATOM     31  C   UNL     1     -13.090  -6.918  -3.980  0.00  0.00    +0.000 C 
ATOM     32  C   UNL     1     -12.644  -6.331  -2.639  0.00  0.00    +0.003 C 
ATOM     33  C   UNL     1     -11.870  -5.033  -2.884  0.00  0.00    +0.035 C 
ATOM     34  N   UNL     1      -9.716  -6.209  -3.064  0.00  0.00    -0.284 N 
ATOM     35  C   UNL     1      -8.565  -5.522  -2.939  0.00  0.00    +0.326 C 
ATOM     36  O   UNL     1      -7.566  -5.968  -2.409  0.00  0.00    -0.251 OA
ATOM     37  H   UNL     1     -10.034  -7.218  -2.763  0.00  0.00    +0.151 HD
ENDBRANCH  23  25
ENDBRANCH  20  21
ENDBRANCH   1  20
TORSDOF 6
