REMARK  Name = ZINC39545405
REMARK  7 active torsions:
REMARK  status: ('A' for Active; 'I' for Inactive)
REMARK    1  A    between atoms: C_1  and  O_2
REMARK    2  A    between atoms: O_2  and  C_3
REMARK    3  A    between atoms: C_5  and  C_17
REMARK    4  A    between atoms: N_19  and  C_20
REMARK    5  A    between atoms: N_19  and  C_27
REMARK    6  A    between atoms: C_25  and  O_26
REMARK    7  A    between atoms: C_32  and  O_33
REMARK                            x       y       z     vdW  Elec       q    Type
REMARK                         _______ _______ _______ _____ _____    ______ ____
ROOT
ATOM      1  C   UNL     1      -3.388  -3.169  -0.832  0.00  0.00    +0.244 C 
ATOM      2  O   UNL     1      -2.768  -3.184  -1.874  0.00  0.00    -0.273 OA
ATOM      3  N   UNL     1      -4.566  -3.817  -0.739  0.00  0.00    -0.232 N 
ENDROOT
BRANCH   1   6
ATOM      4  C   UNL     1      -0.620  -1.497   0.407  0.00  0.00    +0.134 C 
ATOM      5  C   UNL     1      -1.365  -2.799   0.597  0.00  0.00    +0.107 C 
ATOM      6  C   UNL     1      -2.841  -2.426   0.359  0.00  0.00    +0.152 C 
ATOM      7  N   UNL     1      -2.807  -0.978   0.096  0.00  0.00    -0.367 NA
ATOM      8  C   UNL     1      -1.475  -0.542   0.130  0.00  0.00    +0.113 C 
ATOM      9  N   UNL     1      -1.157   0.809  -0.146  0.00  0.00    -0.301 N 
ATOM     10  C   UNL     1      -1.965   1.418  -1.121  0.00  0.00    +0.037 A 
ATOM     11  C   UNL     1      -1.677   2.706  -1.549  0.00  0.00    +0.023 A 
ATOM     12  C   UNL     1      -2.477   3.308  -2.501  0.00  0.00    +0.002 A 
ATOM     13  C   UNL     1      -3.561   2.625  -3.021  0.00  0.00    +0.000 A 
ATOM     14  C   UNL     1      -3.846   1.341  -2.596  0.00  0.00    +0.007 A 
ATOM     15  C   UNL     1      -3.047   0.726  -1.646  0.00  0.00    -0.010 A 
ATOM     16  C   UNL     1      -3.369  -0.689  -1.228  0.00  0.00    +0.124 C 
ATOM     17  H   UNL     1      -0.437   1.279   0.303  0.00  0.00    +0.153 HD
ATOM     18  H   UNL     1      -3.336  -0.491   0.804  0.00  0.00    +0.129 HD
BRANCH   4  20
ATOM     19  C   UNL     1       1.244  -0.023   0.307  0.00  0.00    +0.276 C 
ATOM     20  O   UNL     1       0.727  -1.339   0.512  0.00  0.00    -0.496 OA
ENDBRANCH   4  20
ENDBRANCH   1   6
BRANCH   3  21
ATOM     21  C   UNL     1      -5.120  -4.430  -1.871  0.00  0.00    +0.083 A 
ATOM     22  C   UNL     1      -4.820  -5.753  -2.163  0.00  0.00    +0.027 A 
ATOM     23  C   UNL     1      -5.367  -6.355  -3.280  0.00  0.00    +0.002 A 
ATOM     24  C   UNL     1      -6.215  -5.643  -4.109  0.00  0.00    +0.004 A 
ATOM     25  C   UNL     1      -6.519  -4.325  -3.824  0.00  0.00    +0.047 A 
ATOM     26  C   UNL     1      -5.979  -3.715  -2.704  0.00  0.00    +0.138 A 
BRANCH  26  27
ATOM     27  O   UNL     1      -6.281  -2.420  -2.420  0.00  0.00    -0.505 OA
ATOM     28  H   UNL     1      -5.678  -1.779  -2.820  0.00  0.00    +0.292 HD
ENDBRANCH  26  27
ENDBRANCH   3  21
BRANCH   3  29
ATOM     29  C   UNL     1      -5.238  -3.877   0.490  0.00  0.00    +0.083 A 
ATOM     30  C   UNL     1      -6.270  -2.991   0.763  0.00  0.00    +0.027 A 
ATOM     31  C   UNL     1      -6.931  -3.053   1.975  0.00  0.00    +0.002 A 
ATOM     32  C   UNL     1      -6.566  -3.996   2.918  0.00  0.00    +0.004 A 
ATOM     33  C   UNL     1      -5.539  -4.883   2.653  0.00  0.00    +0.047 A 
ATOM     34  C   UNL     1      -4.875  -4.831   1.438  0.00  0.00    +0.138 A 
BRANCH  34  35
ATOM     35  O   UNL     1      -3.868  -5.705   1.174  0.00  0.00    -0.505 OA
ATOM     36  H   UNL     1      -3.006  -5.427   1.513  0.00  0.00    +0.292 HD
ENDBRANCH  34  35
ENDBRANCH   3  29
TORSDOF 6
