REMARK  Name = ZINC67297162
REMARK  5 active torsions:
REMARK  status: ('A' for Active; 'I' for Inactive)
REMARK    1  A    between atoms: C_1  and  C_2
REMARK    2  A    between atoms: C_5  and  N_9
REMARK    3  A    between atoms: C_6  and  C_8
REMARK    4  A    between atoms: C_10  and  C_12
REMARK    5  A    between atoms: N_22  and  C_23
REMARK                            x       y       z     vdW  Elec       q    Type
REMARK                         _______ _______ _______ _____ _____    ______ ____
ROOT
ATOM      1  C   UNL     1      -0.191  -6.279  -1.173  0.00  0.00    +0.098 A 
ATOM      2  C   UNL     1      -0.175  -6.981  -2.371  0.00  0.00    +0.030 A 
ATOM      3  C   UNL     1      -0.202  -8.444  -2.294  0.00  0.00    +0.018 A 
ATOM      4  C   UNL     1       0.078  -9.226  -3.421  0.00  0.00    +0.011 A 
ATOM      5  C   UNL     1       0.050 -10.589  -3.324  0.00  0.00    +0.001 A 
ATOM      6  C   UNL     1      -0.253 -11.204  -2.118  0.00  0.00    +0.004 A 
ATOM      7  C   UNL     1      -0.534 -10.451  -0.995  0.00  0.00    +0.047 A 
ATOM      8  C   UNL     1      -0.513  -9.066  -1.071  0.00  0.00    +0.137 A 
ATOM      9  O   UNL     1      -0.792  -8.310   0.019  0.00  0.00    -0.439 OA
ATOM     10  C   UNL     1      -0.228  -7.074   0.072  0.00  0.00    +0.212 A 
ATOM     11  N   UNL     1       0.265  -6.598   1.194  0.00  0.00    -0.325 N 
ATOM     12  H   UNL     1       0.763  -5.766   1.190  0.00  0.00    +0.169 HD
ENDROOT
BRANCH  11  13
ATOM     13  C   UNL     1       0.075  -7.277   2.367  0.00  0.00    +0.046 A 
ATOM     14  C   UNL     1      -1.183  -7.797   2.680  0.00  0.00    +0.029 A 
ATOM     15  C   UNL     1      -1.371  -8.479   3.863  0.00  0.00    +0.051 A 
ATOM     16  C   UNL     1      -0.314  -8.652   4.747  0.00  0.00    +0.162 A 
ATOM     17  C   UNL     1       0.942  -8.139   4.441  0.00  0.00    +0.164 A 
ATOM     18  C   UNL     1       1.139  -7.457   3.252  0.00  0.00    +0.075 A 
ATOM     19  O   UNL     1       1.990  -8.307   5.293  0.00  0.00    -0.485 OA
ATOM     20  C   UNL     1       1.672  -8.675   6.640  0.00  0.00    +0.270 C 
ATOM     21  C   UNL     1       0.636  -9.807   6.597  0.00  0.00    +0.270 C 
ATOM     22  O   UNL     1      -0.525  -9.326   5.912  0.00  0.00    -0.485 OA
ENDBRANCH  11  13
BRANCH   1  24
ATOM     23  N   UNL     1      -0.290  -4.154   0.028  0.00  0.00    -0.281 N 
ATOM     24  C   UNL     1      -0.166  -4.808  -1.144  0.00  0.00    +0.253 C 
ATOM     25  O   UNL     1      -0.034  -4.181  -2.179  0.00  0.00    -0.270 OA
ATOM     26  H   UNL     1      -0.346  -4.653   0.858  0.00  0.00    +0.155 HD
BRANCH  23  31
ATOM     27  C   UNL     1      -0.485   1.514   0.107  0.00  0.00    +0.044 C 
ATOM     28  C   UNL     1      -0.433   0.009   0.086  0.00  0.00    -0.050 A 
ATOM     29  C   UNL     1       0.112  -0.648  -1.002  0.00  0.00    +0.005 A 
ATOM     30  C   UNL     1       0.161  -2.028  -1.025  0.00  0.00    +0.024 A 
ATOM     31  C   UNL     1      -0.338  -2.756   0.048  0.00  0.00    +0.037 A 
ATOM     32  C   UNL     1      -0.885  -2.094   1.139  0.00  0.00    -0.029 A 
ATOM     33  C   UNL     1      -0.925  -0.714   1.158  0.00  0.00    +0.008 A 
ATOM     34  C   UNL     1      -1.427  -2.881   2.304  0.00  0.00    +0.045 C 
ENDBRANCH  23  31
ENDBRANCH   1  24
TORSDOF 3
