REMARK  Name = ZINC35316340
REMARK  7 active torsions:
REMARK  status: ('A' for Active; 'I' for Inactive)
REMARK    1  A    between atoms: C_1  and  O_2
REMARK    2  A    between atoms: O_2  and  C_3
REMARK    3  A    between atoms: C_5  and  C_11
REMARK    4  A    between atoms: C_8  and  O_9
REMARK    5  A    between atoms: C_14  and  C_25
REMARK    6  A    between atoms: C_20  and  N_24
REMARK    7  A    between atoms: C_21  and  C_22
REMARK                            x       y       z     vdW  Elec       q    Type
REMARK                         _______ _______ _______ _____ _____    ______ ____
ROOT
ATOM      1  C   UNL     1      -4.941   0.367   0.032  0.00  0.00    +0.102 C 
ATOM      2  C   UNL     1      -5.764  -0.123   1.195  0.00  0.00    +0.054 A 
ATOM      3  C   UNL     1      -5.560   0.068   2.565  0.00  0.00    +0.100 A 
ATOM      4  N   UNL     1      -6.535  -0.545   3.210  0.00  0.00    -0.171 NA
ATOM      5  N   UNL     1      -7.383  -1.141   2.264  0.00  0.00    -0.246 N 
ATOM      6  H   UNL     1      -8.181  -1.657   2.460  0.00  0.00    +0.192 HD
ATOM      7  C   UNL     1      -6.894  -0.870   1.036  0.00  0.00    +0.223 A 
ATOM      8  O   UNL     1      -7.370  -1.229  -0.182  0.00  0.00    -0.423 OA
ATOM      9  C   UNL     1      -6.857  -0.605  -1.262  0.00  0.00    +0.200 C 
ATOM     10  C   UNL     1      -5.737   0.153  -1.232  0.00  0.00    +0.098 C 
ENDROOT
BRANCH   1  13
ATOM     11  C   UNL     1      -1.255  -0.449  -0.102  0.00  0.00    +0.163 A 
ATOM     12  C   UNL     1      -2.442   0.262  -0.035  0.00  0.00    +0.054 A 
ATOM     13  C   UNL     1      -3.651  -0.408  -0.042  0.00  0.00    -0.030 A 
ATOM     14  C   UNL     1      -3.680  -1.788  -0.115  0.00  0.00    +0.023 A 
ATOM     15  C   UNL     1      -2.498  -2.505  -0.182  0.00  0.00    +0.063 A 
ATOM     16  C   UNL     1      -1.283  -1.838  -0.182  0.00  0.00    +0.173 A 
ATOM     17 BR   UNL     1      -2.541  -4.393  -0.281  0.00  0.00    -0.046 Br
BRANCH  11  19
ATOM     18  C   UNL     1      -0.113   1.635  -0.011  0.00  0.00    +0.277 C 
ATOM     19  O   UNL     1      -0.065   0.209  -0.095  0.00  0.00    -0.491 OA
ENDBRANCH  11  19
BRANCH  16  20
ATOM     20  O   UNL     1      -0.120  -2.540  -0.254  0.00  0.00    -0.503 OA
ATOM     21  H   UNL     1       0.239  -2.794   0.607  0.00  0.00    +0.292 HD
ENDBRANCH  16  20
ENDBRANCH   1  13
BRANCH   3  22
ATOM     22  C   UNL     1      -4.444   0.826   3.185  0.00  0.00    +0.003 A 
ATOM     23  C   UNL     1      -3.800   0.323   4.313  0.00  0.00    +0.010 A 
ATOM     24  C   UNL     1      -2.763   1.032   4.885  0.00  0.00    +0.001 A 
ATOM     25  C   UNL     1      -2.363   2.239   4.340  0.00  0.00    +0.000 A 
ATOM     26  C   UNL     1      -2.999   2.742   3.221  0.00  0.00    +0.001 A 
ATOM     27  C   UNL     1      -4.033   2.039   2.637  0.00  0.00    +0.010 A 
ENDBRANCH   3  22
BRANCH   9  28
ATOM     28  N   UNL     1      -7.509  -0.746  -2.461  0.00  0.00    -0.328 N 
ATOM     29  H   UNL     1      -8.316  -1.283  -2.514  0.00  0.00    +0.145 HD
ATOM     30  H   UNL     1      -7.165  -0.308  -3.255  0.00  0.00    +0.145 HD
ENDBRANCH   9  28
BRANCH  10  31
ATOM     31  C   UNL     1      -5.289   0.773  -2.443  0.00  0.00    +0.101 C 
ATOM     32  N   UNL     1      -4.934   1.265  -3.403  0.00  0.00    -0.191 NA
ENDBRANCH  10  31
TORSDOF 6
