REMARK  Name = ZINC13541083
REMARK  6 active torsions:
REMARK  status: ('A' for Active; 'I' for Inactive)
REMARK    1  A    between atoms: C_1  and  C_2
REMARK    2  A    between atoms: C_4  and  C_39
REMARK    3  A    between atoms: C_9  and  C_28
REMARK    4  A    between atoms: C_11  and  C_19
REMARK    5  A    between atoms: C_22  and  N_25
REMARK    6  A    between atoms: C_28  and  C_30
REMARK                            x       y       z     vdW  Elec       q    Type
REMARK                         _______ _______ _______ _____ _____    ______ ____
ROOT
ATOM      1  C   UNL     1      -0.050   2.947   3.863  0.00  0.00    +0.044 C 
ATOM      2  C   UNL     1      -1.060   1.892   3.491  0.00  0.00    -0.050 A 
ATOM      3  C   UNL     1      -2.384   2.238   3.294  0.00  0.00    +0.008 A 
ATOM      4  C   UNL     1      -3.312   1.276   2.954  0.00  0.00    -0.029 A 
ATOM      5  C   UNL     1      -2.922  -0.053   2.808  0.00  0.00    +0.042 A 
ATOM      6  C   UNL     1      -1.587  -0.389   3.007  0.00  0.00    +0.004 A 
ATOM      7  C   UNL     1      -0.663   0.575   3.341  0.00  0.00    +0.011 A 
ATOM      8  C   UNL     1      -1.496  -1.873   2.776  0.00  0.00    +0.137 C 
ATOM      9  C   UNL     1      -0.980  -2.599   4.023  0.00  0.00    +0.103 C 
ATOM     10  C   UNL     1       0.267  -3.382   3.538  0.00  0.00    +0.050 C 
ATOM     11  C   UNL     1       0.024  -3.490   2.018  0.00  0.00    +0.077 C 
ATOM     12  N   UNL     1      -0.575  -2.179   1.661  0.00  0.00    -0.271 NA
ATOM     13  C   UNL     1       0.471  -1.113   1.633  0.00  0.00    +0.155 C 
ATOM     14  S   UNL     1       1.898  -2.020   0.902  0.00  0.00    -0.144 S 
ATOM     15  C   UNL     1       1.351  -3.737   1.279  0.00  0.00    +0.090 C 
ATOM     16  C   UNL     1      -2.901  -2.299   2.441  0.00  0.00    +0.243 C 
ATOM     17  O   UNL     1      -3.274  -3.425   2.188  0.00  0.00    -0.273 OA
ATOM     18  N   UNL     1      -3.663  -1.190   2.479  0.00  0.00    -0.283 N 
ATOM     19  C   UNL     1      -4.753   1.665   2.742  0.00  0.00    +0.045 C 
ATOM     20  H   UNL     1      -4.616  -1.181   2.297  0.00  0.00    +0.155 HD
ENDROOT
BRANCH  10  21
ATOM     21  C   UNL     1       0.321  -4.748   4.174  0.00  0.00    -0.042 A 
ATOM     22  C   UNL     1       0.052  -5.873   3.417  0.00  0.00    +0.006 A 
ATOM     23  C   UNL     1       0.102  -7.126   4.000  0.00  0.00    +0.033 A 
ATOM     24  C   UNL     1       0.420  -7.253   5.339  0.00  0.00    +0.126 A 
ATOM     25  C   UNL     1       0.690  -6.128   6.095  0.00  0.00    +0.033 A 
ATOM     26  C   UNL     1       0.645  -4.875   5.511  0.00  0.00    +0.006 A 
BRANCH  24  27
ATOM     27  N   UNL     1       0.472  -8.594   5.963  0.00  0.00    +0.056 N 
ATOM     28  O   UNL     1       0.236  -9.578   5.302  0.00  0.00    -0.126 OA
ATOM     29  O   UNL     1       0.751  -8.705   7.134  0.00  0.00    -0.126 OA
ENDBRANCH  24  27
ENDBRANCH  10  21
BRANCH   9  30
ATOM     30  C   UNL     1      -2.026  -3.547   4.549  0.00  0.00    +0.169 C 
ATOM     31  O   UNL     1      -2.154  -4.645   4.052  0.00  0.00    -0.292 OA
BRANCH  30  32
ATOM     32  C   UNL     1      -2.893  -3.139   5.666  0.00  0.00    +0.018 A 
ATOM     33  C   UNL     1      -2.753  -1.871   6.239  0.00  0.00    +0.011 A 
ATOM     34  C   UNL     1      -3.569  -1.496   7.285  0.00  0.00    +0.001 A 
ATOM     35  C   UNL     1      -4.526  -2.372   7.769  0.00  0.00    +0.000 A 
ATOM     36  C   UNL     1      -4.671  -3.629   7.208  0.00  0.00    +0.001 A 
ATOM     37  C   UNL     1      -3.866  -4.016   6.157  0.00  0.00    +0.011 A 
ENDBRANCH  30  32
ENDBRANCH   9  30
TORSDOF 4
