REMARK  Name = ZINC67566613
REMARK  7 active torsions:
REMARK  status: ('A' for Active; 'I' for Inactive)
REMARK    1  A    between atoms: C_1  and  C_2
REMARK    2  A    between atoms: C_2  and  C_4
REMARK    3  A    between atoms: C_2  and  N_13
REMARK    4  A    between atoms: C_8  and  N_10
REMARK    5  A    between atoms: N_13  and  C_14
REMARK    6  A    between atoms: N_17  and  C_18
REMARK    7  A    between atoms: C_21  and  C_23
REMARK                            x       y       z     vdW  Elec       q    Type
REMARK                         _______ _______ _______ _____ _____    ______ ____
ROOT
ATOM      1  N   UNL     1       0.837  -0.410   1.184  0.00  0.00    -0.282 N 
ATOM      2  C   UNL     1       0.422  -0.091   2.552  0.00  0.00    +0.134 C 
ATOM      3  C   UNL     1       2.042  -0.968   0.957  0.00  0.00    +0.303 C 
ATOM      4  O   UNL     1       2.386  -1.232  -0.179  0.00  0.00    -0.253 OA
ATOM      5  N   UNL     1       2.867  -1.232   1.989  0.00  0.00    -0.296 N 
ATOM      6  H   UNL     1       2.593  -1.022   2.896  0.00  0.00    +0.151 HD
ENDROOT
BRANCH   5   7
ATOM      7  C   UNL     1       4.178  -1.839   1.743  0.00  0.00    +0.082 C 
ATOM      8  C   UNL     1       5.376  -1.265   2.502  0.00  0.00    +0.033 C 
ATOM      9  C   UNL     1       4.813  -2.637   2.884  0.00  0.00    +0.041 C 
BRANCH   9  10
ATOM     10  C   UNL     1       5.627  -3.850   2.515  0.00  0.00    -0.040 A 
ATOM     11  C   UNL     1       6.743  -3.715   1.710  0.00  0.00    +0.004 A 
ATOM     12  C   UNL     1       7.491  -4.827   1.371  0.00  0.00    +0.003 A 
ATOM     13  C   UNL     1       7.124  -6.075   1.836  0.00  0.00    +0.038 A 
ATOM     14  C   UNL     1       6.007  -6.212   2.643  0.00  0.00    +0.124 A 
ATOM     15  C   UNL     1       5.262  -5.096   2.986  0.00  0.00    +0.042 A 
ATOM     16  F   UNL     1       5.647  -7.432   3.098  0.00  0.00    -0.205 F 
ENDBRANCH   9  10
ENDBRANCH   5   7
BRANCH   1  18
ATOM     17  C   UNL     1      -0.480   1.349   0.108  0.00  0.00    +0.033 C 
ATOM     18  C   UNL     1      -0.060  -0.122   0.061  0.00  0.00    +0.104 C 
BRANCH  18  19
ATOM     19  C   UNL     1      -1.284  -0.997   0.159  0.00  0.00    -0.025 A 
ATOM     20  C   UNL     1      -2.052  -0.985   1.308  0.00  0.00    +0.005 A 
ATOM     21  C   UNL     1      -3.174  -1.787   1.398  0.00  0.00    +0.003 A 
ATOM     22  C   UNL     1      -3.528  -2.601   0.338  0.00  0.00    +0.033 A 
ATOM     23  C   UNL     1      -2.761  -2.612  -0.812  0.00  0.00    +0.127 A 
ATOM     24  C   UNL     1      -1.641  -1.806  -0.903  0.00  0.00    +0.038 A 
BRANCH  23  25
ATOM     25  N   UNL     1      -3.140  -3.483  -1.946  0.00  0.00    +0.056 N 
ATOM     26  O   UNL     1      -4.121  -4.185  -1.868  0.00  0.00    -0.126 OA
ATOM     27  O   UNL     1      -2.469  -3.493  -2.952  0.00  0.00    -0.126 OA
ENDBRANCH  23  25
ENDBRANCH  18  19
ENDBRANCH   1  18
TORSDOF 5
