REMARK  Name = ZINC62300716
REMARK  9 active torsions:
REMARK  status: ('A' for Active; 'I' for Inactive)
REMARK    1  A    between atoms: C_1  and  C_2
REMARK    2  A    between atoms: C_5  and  C_9
REMARK    3  A    between atoms: C_7  and  C_8
REMARK    4  A    between atoms: C_10  and  C_18
REMARK    5  A    between atoms: N_13  and  C_14
REMARK    6  A    between atoms: C_14  and  C_15
REMARK    7  A    between atoms: C_15  and  C_16
REMARK    8  A    between atoms: C_15  and  C_17
REMARK    9  A    between atoms: C_18  and  O_19
REMARK                            x       y       z     vdW  Elec       q    Type
REMARK                         _______ _______ _______ _____ _____    ______ ____
ROOT
ATOM      1  C   UNL     1       0.135  -4.179  -0.359  0.00  0.00    +0.094 A 
ATOM      2  C   UNL     1       1.043  -4.948   0.313  0.00  0.00    +0.116 A 
ATOM      3  N   UNL     1       0.662  -6.216   0.142  0.00  0.00    -0.132 NA
ATOM      4  N   UNL     1      -0.401  -6.247  -0.580  0.00  0.00    -0.065 NA
ATOM      5  N   UNL     1      -0.762  -5.055  -0.903  0.00  0.00    -0.243 N 
ENDROOT
BRANCH   1  10
ATOM      6  C   UNL     1       0.082   1.560  -0.790  0.00  0.00    +0.044 C 
ATOM      7  C   UNL     1       0.096   0.058  -0.677  0.00  0.00    -0.047 A 
ATOM      8  C   UNL     1       0.071  -0.719  -1.822  0.00  0.00    +0.004 A 
ATOM      9  C   UNL     1       0.083  -2.095  -1.725  0.00  0.00    +0.010 A 
ATOM     10  C   UNL     1       0.122  -2.703  -0.470  0.00  0.00    +0.002 A 
ATOM     11  C   UNL     1       0.147  -1.915   0.680  0.00  0.00    +0.013 A 
ATOM     12  C   UNL     1       0.140  -0.539   0.570  0.00  0.00    -0.047 A 
ATOM     13  C   UNL     1       0.173   0.315   1.811  0.00  0.00    +0.044 C 
ENDBRANCH   1  10
BRANCH   5  14
ATOM     14  C   UNL     1      -1.929  -4.699  -1.714  0.00  0.00    +0.149 C 
BRANCH  14  15
ATOM     15  C   UNL     1      -3.122  -4.420  -0.797  0.00  0.00    +0.004 C 
ATOM     16  C   UNL     1      -4.300  -3.916  -1.633  0.00  0.00    +0.009 C 
ATOM     17  C   UNL     1      -3.523  -5.708  -0.075  0.00  0.00    +0.009 C 
ENDBRANCH  14  15
ENDBRANCH   5  14
BRANCH   2  18
ATOM     18  C   UNL     1       2.237  -4.461   1.092  0.00  0.00    +0.215 C 
BRANCH  18  19
ATOM     19  O   UNL     1       1.858  -4.229   2.450  0.00  0.00    -0.389 OA
ATOM     20  H   UNL     1       2.579  -3.913   3.012  0.00  0.00    +0.210 HD
ENDBRANCH  18  19
ENDBRANCH   2  18
TORSDOF 5
