REMARK  Name = ZINC65395591
REMARK  4 active torsions:
REMARK  status: ('A' for Active; 'I' for Inactive)
REMARK    1  A    between atoms: C_1  and  N_2
REMARK    2  A    between atoms: C_3  and  C_5
REMARK    3  A    between atoms: C_15  and  C_17
REMARK    4  A    between atoms: C_24  and  O_27
REMARK                            x       y       z     vdW  Elec       q    Type
REMARK                         _______ _______ _______ _____ _____    ______ ____
ROOT
ATOM      1  C   UNL     1       0.605  -2.142  -1.026  0.00  0.00    +0.152 A 
ATOM      2  C   UNL     1       1.177  -2.952  -2.013  0.00  0.00    +0.034 A 
ATOM      3  C   UNL     1       0.991  -4.255  -1.647  0.00  0.00    +0.125 A 
ATOM      4  N   UNL     1       0.316  -4.265  -0.480  0.00  0.00    -0.263 N 
ATOM      5  H   UNL     1       0.040  -5.054   0.013  0.00  0.00    +0.190 HD
ATOM      6  N   UNL     1       0.090  -2.932  -0.099  0.00  0.00    -0.167 NA
ATOM      7  N   UNL     1       1.470  -5.313  -2.421  0.00  0.00    -0.270 N 
ATOM      8  C   UNL     1       2.303  -5.027  -3.444  0.00  0.00    +0.219 C 
ATOM      9  O   UNL     1       2.581  -5.901  -4.237  0.00  0.00    -0.275 OA
ATOM     10  C   UNL     1       2.898  -3.660  -3.630  0.00  0.00    +0.110 C 
ATOM     11  C   UNL     1       1.884  -2.563  -3.286  0.00  0.00    +0.082 C 
ATOM     12  H   UNL     1       1.213  -6.229  -2.228  0.00  0.00    +0.156 HD
ENDROOT
BRANCH  11  13
ATOM     13  C   UNL     1       0.882  -2.429  -4.403  0.00  0.00    +0.050 A 
ATOM     14  C   UNL     1       0.498  -3.567  -5.110  0.00  0.00    +0.024 A 
ATOM     15  C   UNL     1      -0.409  -3.465  -6.126  0.00  0.00    +0.012 A 
ATOM     16  C   UNL     1      -0.931  -2.192  -6.424  0.00  0.00    +0.004 A 
ATOM     17  C   UNL     1      -1.869  -2.009  -7.454  0.00  0.00    +0.010 A 
ATOM     18  C   UNL     1      -2.352  -0.762  -7.713  0.00  0.00    +0.004 A 
ATOM     19  C   UNL     1      -1.930   0.338  -6.972  0.00  0.00    +0.047 A 
ATOM     20  C   UNL     1      -1.020   0.199  -5.963  0.00  0.00    +0.143 A 
ATOM     21  C   UNL     1      -0.498  -1.077  -5.665  0.00  0.00    +0.113 A 
ATOM     22  N   UNL     1       0.389  -1.246  -4.681  0.00  0.00    -0.247 NA
BRANCH  20  23
ATOM     23  O   UNL     1      -0.620   1.284  -5.250  0.00  0.00    -0.505 OA
ATOM     24  H   UNL     1      -1.162   1.464  -4.469  0.00  0.00    +0.292 HD
ENDBRANCH  20  23
ENDBRANCH  11  13
BRANCH   1  27
ATOM     25  C   UNL     1      -0.018   1.461   0.010  0.00  0.00    +0.128 C 
ATOM     26  N   UNL     1       0.002  -0.004   0.002  0.00  0.00    -0.313 N 
ATOM     27  C   UNL     1       0.585  -0.664  -1.018  0.00  0.00    +0.264 C 
ATOM     28  O   UNL     1       1.095  -0.045  -1.931  0.00  0.00    -0.268 OA
ATOM     29  H   UNL     1      -0.404  -0.499   0.731  0.00  0.00    +0.149 HD
ENDBRANCH   1  27
TORSDOF 3
