REMARK  Name = ZINC13692509
REMARK  5 active torsions:
REMARK  status: ('A' for Active; 'I' for Inactive)
REMARK    1  A    between atoms: C_1  and  C_2
REMARK    2  A    between atoms: C_8  and  C_10
REMARK    3  A    between atoms: C_17  and  N_19
REMARK    4  A    between atoms: N_19  and  S_20
REMARK    5  A    between atoms: S_20  and  C_23
REMARK                            x       y       z     vdW  Elec       q    Type
REMARK                         _______ _______ _______ _____ _____    ______ ____
ROOT
ATOM      1  C   UNL     1       0.685  -6.289  -0.036  0.00  0.00    +0.038 A 
ATOM      2  C   UNL     1       2.067  -6.529  -0.037  0.00  0.00    +0.015 A 
ATOM      3  C   UNL     1       2.566  -7.789  -0.046  0.00  0.00    +0.030 A 
ATOM      4  C   UNL     1       1.708  -8.916  -0.055  0.00  0.00    +0.080 A 
ATOM      5  C   UNL     1       0.317  -8.649  -0.053  0.00  0.00    +0.042 A 
ATOM      6  C   UNL     1      -0.192  -7.380  -0.039  0.00  0.00    +0.030 A 
ATOM      7  S   UNL     1      -0.383 -10.282  -0.065  0.00  0.00    -0.049 S 
ATOM      8  C   UNL     1       1.159 -11.186  -0.071  0.00  0.00    +0.202 A 
ATOM      9  N   UNL     1       2.051 -10.219  -0.064  0.00  0.00    -0.222 NA
ENDROOT
BRANCH   1  17
ATOM     10  C   UNL     1      -0.018   1.503   0.010  0.00  0.00    +0.053 C 
ATOM     11  C   UNL     1       0.002  -0.004   0.002  0.00  0.00    +0.008 A 
ATOM     12  C   UNL     1      -1.030  -0.883   0.002  0.00  0.00    +0.124 A 
ATOM     13  N   UNL     1      -0.725  -2.167  -0.007  0.00  0.00    -0.233 NA
ATOM     14  C   UNL     1       0.528  -2.568  -0.015  0.00  0.00    +0.165 A 
ATOM     15  S   UNL     1       1.393  -1.124  -0.018  0.00  0.00    -0.057 S 
ATOM     16  N   UNL     1       1.019  -3.868  -0.024  0.00  0.00    -0.261 N 
ATOM     17  C   UNL     1       0.165  -4.910  -0.026  0.00  0.00    +0.250 C 
ATOM     18  O   UNL     1      -1.036  -4.713  -0.020  0.00  0.00    -0.270 OA
ATOM     19  H   UNL     1       1.976  -4.025  -0.029  0.00  0.00    +0.157 HD
ENDBRANCH   1  17
BRANCH   8  20
ATOM     20  N   UNL     1       1.361 -12.549  -0.080  0.00  0.00    -0.075 NA
BRANCH  20  21
ATOM     21  S   UNL     1       2.902 -13.157  -0.085  0.00  0.00    +0.061 S 
ATOM     22  O   UNL     1       3.460 -12.721  -1.317  0.00  0.00    -0.154 OA
ATOM     23  O   UNL     1       3.461 -12.737   1.153  0.00  0.00    -0.154 OA
ATOM     24  C   UNL     1       2.692 -14.959  -0.097  0.00  0.00    +0.220 C 
ENDBRANCH  20  21
ENDBRANCH   8  20
TORSDOF 3
