REMARK  Name = ZINC12697849
REMARK  3 active torsions:
REMARK  status: ('A' for Active; 'I' for Inactive)
REMARK    1  A    between atoms: C_5  and  C_6
REMARK    2  A    between atoms: N_8  and  N_9
REMARK    3  A    between atoms: C_10  and  C_12
REMARK                            x       y       z     vdW  Elec       q    Type
REMARK                         _______ _______ _______ _____ _____    ______ ____
ROOT
ATOM      1  C   UNL     1      -3.571   1.808   0.029  0.00  0.00    +0.267 C 
ATOM      2  O   UNL     1      -3.587   3.025   0.035  0.00  0.00    -0.268 OA
ATOM      3  N   UNL     1      -2.394   1.150   0.020  0.00  0.00    -0.230 N 
ATOM      4  H   UNL     1      -2.381   0.180   0.014  0.00  0.00    +0.173 HD
ENDROOT
BRANCH   1   9
ATOM      5  C   UNL     1      -6.124   1.528   0.039  0.00  0.00    +0.024 A 
ATOM      6  C   UNL     1      -7.169   0.599   0.042  0.00  0.00    -0.036 A 
ATOM      7  C   UNL     1      -6.829  -0.702   0.086  0.00  0.00    -0.006 A 
ATOM      8  S   UNL     1      -5.092  -0.705   0.015  0.00  0.00    -0.088 S 
ATOM      9  C   UNL     1      -4.830   1.058   0.031  0.00  0.00    +0.076 A 
ATOM     10  C   UNL     1      -7.635  -1.968   0.226  0.00  0.00    +0.043 C 
ATOM     11  C   UNL     1      -9.132  -1.687   0.360  0.00  0.00    +0.005 C 
ATOM     12  C   UNL     1      -9.759  -1.388  -0.993  0.00  0.00    +0.000 C 
ATOM     13  C   UNL     1      -8.859  -0.570  -1.895  0.00  0.00    +0.000 C 
ATOM     14  C   UNL     1      -9.065   0.902  -1.515  0.00  0.00    +0.005 C 
ATOM     15  C   UNL     1      -8.597   1.111  -0.076  0.00  0.00    +0.036 C 
ENDBRANCH   1   9
BRANCH   3  16
ATOM     16  N   UNL     1      -1.191   1.867   0.018  0.00  0.00    -0.234 N 
ATOM     17  C   UNL     1      -0.014   1.209   0.009  0.00  0.00    +0.232 C 
ATOM     18  O   UNL     1       0.002  -0.004   0.002  0.00  0.00    -0.274 OA
ATOM     19  H   UNL     1      -1.204   2.837   0.023  0.00  0.00    +0.173 HD
BRANCH  17  20
ATOM     20  C   UNL     1       1.280   1.980   0.001  0.00  0.00    +0.080 C 
ATOM     21  C   UNL     1       2.463   1.003   0.011  0.00  0.00    +0.017 C 
ATOM     22  C   UNL     1       3.753   1.802  -0.177  0.00  0.00    +0.027 C 
ATOM     23  C   UNL     1       3.787   2.961   0.775  0.00  0.00    -0.031 C 
ATOM     24  C   UNL     1       2.748   3.422   1.394  0.00  0.00    -0.030 C 
ATOM     25  C   UNL     1       1.365   2.855   1.252  0.00  0.00    +0.039 C 
ENDBRANCH  17  20
ENDBRANCH   3  16
TORSDOF 3
