REMARK  Name = ZINC14823620
REMARK  12 active torsions:
REMARK  status: ('A' for Active; 'I' for Inactive)
REMARK    1  A    between atoms: C_1  and  C_2
REMARK    2  A    between atoms: C_2  and  C_3
REMARK    3  A    between atoms: C_3  and  C_4
REMARK    4  A    between atoms: C_4  and  N_5
REMARK    5  A    between atoms: N_5  and  C_6
REMARK    6  A    between atoms: C_7  and  N_18
REMARK    7  A    between atoms: N_8  and  C_15
REMARK    8  A    between atoms: C_15  and  C_16
REMARK    9  A    between atoms: C_16  and  C_17
REMARK   10  A    between atoms: C_19  and  C_21
REMARK   11  A    between atoms: C_24  and  C_28
REMARK   12  A    between atoms: C_26  and  C_27
REMARK                            x       y       z     vdW  Elec       q    Type
REMARK                         _______ _______ _______ _____ _____    ______ ____
ROOT
ATOM      1  N   UNL     1       0.906   1.670   0.209  0.00  0.00    -0.260 N 
ATOM      2  C   UNL     1      -0.244   0.968   0.161  0.00  0.00    +0.251 C 
ATOM      3  O   UNL     1      -0.212  -0.246   0.110  0.00  0.00    -0.270 OA
ENDROOT
BRANCH   1   4
ATOM      4  C   UNL     1       2.141   0.996   0.294  0.00  0.00    +0.140 A 
ATOM      5  C   UNL     1       2.467   0.269   1.421  0.00  0.00    +0.127 A 
ATOM      6  N   UNL     1       3.680  -0.379   1.475  0.00  0.00    -0.280 N 
ATOM      7  C   UNL     1       4.537  -0.305   0.441  0.00  0.00    +0.331 A 
ATOM      8  O   UNL     1       5.604  -0.885   0.508  0.00  0.00    -0.246 OA
ATOM      9  N   UNL     1       4.237   0.399  -0.664  0.00  0.00    -0.273 N 
ATOM     10  H   UNL     1       4.894   0.442  -1.417  0.00  0.00    +0.173 HD
ATOM     11  C   UNL     1       3.061   1.047  -0.770  0.00  0.00    +0.277 A 
ATOM     12  O   UNL     1       2.796   1.679  -1.780  0.00  0.00    -0.266 OA
BRANCH   5  13
ATOM     13  N   UNL     1       1.591   0.193   2.478  0.00  0.00    -0.343 N 
ATOM     14  H   UNL     1       0.714   0.603   2.411  0.00  0.00    +0.144 HD
ATOM     15  H   UNL     1       1.849  -0.270   3.290  0.00  0.00    +0.144 HD
ENDBRANCH   5  13
BRANCH   6  16
ATOM     16  C   UNL     1       4.039  -1.154   2.665  0.00  0.00    +0.128 C 
BRANCH  16  17
ATOM     17  C   UNL     1       3.562  -2.598   2.496  0.00  0.00    +0.018 C 
ATOM     18  C   UNL     1       3.938  -3.408   3.739  0.00  0.00    +0.005 C 
ENDBRANCH  16  17
ENDBRANCH   6  16
ENDBRANCH   1   4
BRANCH   2  19
ATOM     19  C   UNL     1      -1.542   1.675   0.164  0.00  0.00    +0.040 A 
ATOM     20  C   UNL     1      -1.846   2.588  -0.847  0.00  0.00    +0.013 A 
ATOM     21  C   UNL     1      -3.059   3.244  -0.839  0.00  0.00    +0.004 A 
ATOM     22  C   UNL     1      -3.975   2.998   0.169  0.00  0.00    -0.050 A 
ATOM     23  C   UNL     1      -3.681   2.093   1.174  0.00  0.00    +0.007 A 
ATOM     24  C   UNL     1      -2.472   1.427   1.175  0.00  0.00    -0.038 A 
ATOM     25  C   UNL     1      -2.155   0.438   2.267  0.00  0.00    +0.044 C 
ATOM     26  C   UNL     1      -5.299   3.717   0.172  0.00  0.00    +0.044 C 
ENDBRANCH   2  19
BRANCH   1  27
ATOM     27  C   UNL     1       0.872   3.135   0.172  0.00  0.00    +0.114 C 
BRANCH  27  28
ATOM     28  C   UNL     1       0.877   3.681   1.601  0.00  0.00    +0.019 C 
BRANCH  28  30
ATOM     29  C   UNL     1       0.847   5.757   2.991  0.00  0.00    +0.004 C 
ATOM     30  C   UNL     1       0.842   5.210   1.562  0.00  0.00    -0.002 C 
ENDBRANCH  28  30
ENDBRANCH  27  28
ENDBRANCH   1  27
TORSDOF 8
