REMARK  Name = ZINC02644064
REMARK  11 active torsions:
REMARK  status: ('A' for Active; 'I' for Inactive)
REMARK    1  A    between atoms: C_1  and  C_2
REMARK    2  A    between atoms: C_5  and  C_29
REMARK    3  A    between atoms: C_7  and  S_8
REMARK    4  A    between atoms: S_8  and  N_11
REMARK    5  A    between atoms: N_11  and  C_12
REMARK    6  A    between atoms: C_15  and  C_18
REMARK    7  A    between atoms: N_20  and  N_21
REMARK    8  A    between atoms: C_22  and  C_24
REMARK    9  A    between atoms: C_29  and  C_30
REMARK   10  A    between atoms: C_29  and  C_31
REMARK   11  A    between atoms: C_29  and  C_32
REMARK                            x       y       z     vdW  Elec       q    Type
REMARK                         _______ _______ _______ _____ _____    ______ ____
ROOT
ATOM      1  C   UNL     1      11.673   0.761  -1.526  0.00  0.00    +0.048 A 
ATOM      2  C   UNL     1      10.780   1.127  -2.529  0.00  0.00    +0.025 A 
ATOM      3  C   UNL     1      11.152   1.037  -3.851  0.00  0.00    +0.015 A 
ATOM      4  C   UNL     1      12.428   0.577  -4.186  0.00  0.00    +0.038 A 
ATOM      5  C   UNL     1      13.321   0.205  -3.177  0.00  0.00    +0.015 A 
ATOM      6  C   UNL     1      12.946   0.303  -1.857  0.00  0.00    +0.025 A 
ENDROOT
BRANCH   4   7
ATOM      7  C   UNL     1      12.830   0.480  -5.602  0.00  0.00    +0.260 C 
ATOM      8  O   UNL     1      12.051   0.799  -6.479  0.00  0.00    -0.269 OA
ATOM      9  N   UNL     1      14.062   0.036  -5.924  0.00  0.00    -0.230 N 
ATOM     10  H   UNL     1      14.684  -0.219  -5.225  0.00  0.00    +0.173 HD
BRANCH   9  11
ATOM     11  N   UNL     1      14.443  -0.057  -7.269  0.00  0.00    -0.230 N 
ATOM     12  C   UNL     1      15.675  -0.500  -7.591  0.00  0.00    +0.267 C 
ATOM     13  O   UNL     1      16.455  -0.820  -6.713  0.00  0.00    -0.268 OA
ATOM     14  H   UNL     1      13.822   0.199  -7.968  0.00  0.00    +0.173 HD
BRANCH  12  15
ATOM     15  C   UNL     1      16.074  -0.597  -8.998  0.00  0.00    +0.075 A 
ATOM     16  C   UNL     1      17.278  -1.022  -9.537  0.00  0.00    +0.021 A 
ATOM     17  C   UNL     1      17.390  -1.009 -10.905  0.00  0.00    +0.008 A 
ATOM     18  C   UNL     1      16.333  -0.597 -11.653  0.00  0.00    +0.046 A 
ATOM     19  S   UNL     1      15.137  -0.198 -10.463  0.00  0.00    -0.092 S 
ENDBRANCH  12  15
ENDBRANCH   9  11
ENDBRANCH   4   7
BRANCH   1  20
ATOM     20  N   UNL     1      11.294   0.853  -0.192  0.00  0.00    -0.216 N 
ATOM     21  H   UNL     1      10.851   1.653   0.133  0.00  0.00    +0.174 HD
BRANCH  20  22
ATOM     22  S   UNL     1      11.600  -0.402   0.845  0.00  0.00    +0.073 S 
ATOM     23  O   UNL     1      12.983  -0.704   0.720  0.00  0.00    -0.150 OA
ATOM     24  O   UNL     1      11.005  -0.056   2.088  0.00  0.00    -0.150 OA
BRANCH  22  31
ATOM     25  C   UNL     1       8.586  -0.561   0.640  0.00  0.00    +0.046 C 
ATOM     26  C   UNL     1       9.341  -1.783   0.182  0.00  0.00    -0.024 A 
ATOM     27  C   UNL     1       8.652  -2.881  -0.299  0.00  0.00    +0.005 A 
ATOM     28  C   UNL     1       9.343  -4.004  -0.713  0.00  0.00    +0.004 A 
ATOM     29  C   UNL     1      10.724  -4.026  -0.652  0.00  0.00    -0.040 A 
ATOM     30  C   UNL     1      11.413  -2.927  -0.177  0.00  0.00    +0.033 A 
ATOM     31  C   UNL     1      10.722  -1.804   0.238  0.00  0.00    +0.112 A 
BRANCH  29  32
ATOM     32  C   UNL     1      11.478  -5.250  -1.104  0.00  0.00    -0.013 C 
ATOM     33  C   UNL     1      12.298  -5.804   0.064  0.00  0.00    +0.015 C 
ATOM     34  C   UNL     1      10.486  -6.314  -1.580  0.00  0.00    +0.015 C 
ATOM     35  C   UNL     1      12.416  -4.877  -2.253  0.00  0.00    +0.015 C 
ENDBRANCH  29  32
ENDBRANCH  22  31
ENDBRANCH  20  22
ENDBRANCH   1  20
TORSDOF 7
