REMARK  Name = ZINC39634227
REMARK  9 active torsions:
REMARK  status: ('A' for Active; 'I' for Inactive)
REMARK    1  A    between atoms: C_1  and  C_2
REMARK    2  A    between atoms: C_5  and  C_8
REMARK    3  A    between atoms: C_8  and  N_9
REMARK    4  A    between atoms: C_10  and  C_12
REMARK    5  A    between atoms: C_23  and  C_25
REMARK    6  A    between atoms: C_27  and  O_33
REMARK    7  A    between atoms: C_29  and  O_31
REMARK    8  A    between atoms: O_31  and  C_32
REMARK    9  A    between atoms: O_33  and  C_34
REMARK                            x       y       z     vdW  Elec       q    Type
REMARK                         _______ _______ _______ _____ _____    ______ ____
ROOT
ATOM      1  C   UNL     1       2.761  -6.568  -0.639  0.00  0.00    +0.100 C 
ATOM      2  C   UNL     1       3.727  -6.156  -1.773  0.00  0.00    +0.121 C 
ATOM      3  N   UNL     1       4.597  -7.339  -1.972  0.00  0.00    -0.296 N 
ATOM      4  C   UNL     1       3.682  -8.497  -1.834  0.00  0.00    +0.115 C 
ATOM      5  C   UNL     1       2.733  -8.105  -0.683  0.00  0.00    -0.004 C 
ATOM      6  C   UNL     1       1.320  -8.600  -0.973  0.00  0.00    -0.010 C 
ATOM      7  C   UNL     1       1.306 -10.131  -0.954  0.00  0.00    -0.082 C 
ATOM      8  N   UNL     1       1.753 -10.609   0.360  0.00  0.00    +0.379 N 
ATOM      9  C   UNL     1       3.146 -10.208   0.591  0.00  0.00    -0.082 C 
ATOM     10  C   UNL     1       3.238  -8.680   0.637  0.00  0.00    -0.010 C 
ATOM     11  C   UNL     1       5.921  -7.358  -2.221  0.00  0.00    +0.247 C 
ATOM     12  O   UNL     1       6.563  -6.327  -2.179  0.00  0.00    -0.270 OA
ATOM     13  H   UNL     1       1.167 -10.213   1.079  0.00  0.00    -0.086 HD
ATOM     14  H   UNL     1       1.685 -11.616   0.390  0.00  0.00    -0.086 HD
ENDROOT
BRANCH  11  15
ATOM     15  C   UNL     1       6.594  -8.634  -2.547  0.00  0.00    +0.044 A 
ATOM     16  C   UNL     1       5.851  -9.716  -3.019  0.00  0.00    +0.059 A 
ATOM     17  C   UNL     1       6.485 -10.910  -3.324  0.00  0.00    +0.124 A 
ATOM     18  C   UNL     1       7.857 -11.030  -3.159  0.00  0.00    +0.091 A 
ATOM     19  C   UNL     1       8.600  -9.956  -2.690  0.00  0.00    +0.124 A 
ATOM     20  C   UNL     1       7.975  -8.758  -2.389  0.00  0.00    +0.059 A 
BRANCH  19  21
ATOM     21  O   UNL     1       9.944 -10.079  -2.531  0.00  0.00    -0.495 OA
ATOM     22  C   UNL     1      10.524 -11.341  -2.866  0.00  0.00    +0.277 C 
ENDBRANCH  19  21
BRANCH  17  23
ATOM     23  O   UNL     1       5.761 -11.964  -3.783  0.00  0.00    -0.495 OA
ATOM     24  C   UNL     1       6.479 -13.164  -4.077  0.00  0.00    +0.277 C 
ENDBRANCH  17  23
ENDBRANCH  11  15
BRANCH   1  26
ATOM     25  N   UNL     1       0.579  -5.704   0.141  0.00  0.00    -0.311 N 
ATOM     26  C   UNL     1       1.385  -6.010  -0.895  0.00  0.00    +0.218 C 
ATOM     27  O   UNL     1       1.002  -5.838  -2.033  0.00  0.00    -0.275 OA
ATOM     28  H   UNL     1       0.885  -5.842   1.051  0.00  0.00    +0.149 HD
BRANCH  25  29
ATOM     29  C   UNL     1      -0.759  -5.162  -0.107  0.00  0.00    +0.139 C 
BRANCH  29  34
ATOM     30  C   UNL     1      -3.410  -4.182   4.934  0.00  0.00    +0.044 C 
ATOM     31  C   UNL     1      -2.719  -4.438   3.619  0.00  0.00    -0.050 A 
ATOM     32  C   UNL     1      -1.954  -3.445   3.035  0.00  0.00    +0.003 A 
ATOM     33  C   UNL     1      -1.320  -3.679   1.830  0.00  0.00    +0.005 A 
ATOM     34  C   UNL     1      -1.450  -4.907   1.208  0.00  0.00    -0.030 A 
ATOM     35  C   UNL     1      -2.213  -5.901   1.792  0.00  0.00    +0.005 A 
ATOM     36  C   UNL     1      -2.844  -5.668   3.000  0.00  0.00    +0.003 A 
ENDBRANCH  29  34
ENDBRANCH  25  29
ENDBRANCH   1  26
TORSDOF 6
