REMARK  Name = ZINC17750355
REMARK  7 active torsions:
REMARK  status: ('A' for Active; 'I' for Inactive)
REMARK    1  A    between atoms: C_1  and  C_2
REMARK    2  A    between atoms: C_2  and  C_4
REMARK    3  A    between atoms: C_2  and  S_18
REMARK    4  A    between atoms: C_7  and  C_9
REMARK    5  A    between atoms: C_12  and  N_15
REMARK    6  A    between atoms: S_18  and  C_19
REMARK    7  A    between atoms: C_22  and  C_25
REMARK                            x       y       z     vdW  Elec       q    Type
REMARK                         _______ _______ _______ _____ _____    ______ ____
ROOT
ATOM      1  C   UNL     1      -0.013   1.086   0.008  0.00  0.00    +0.029 C 
ATOM      2  C   UNL     1      -0.729   1.579   1.267  0.00  0.00    +0.139 C 
ENDROOT
BRANCH   2   3
ATOM      3  C   UNL     1      -0.749   3.086   1.275  0.00  0.00    +0.231 A 
ATOM      4  N   UNL     1      -1.507   3.850   0.538  0.00  0.00    -0.111 NA
ATOM      5  N   UNL     1      -1.264   5.084   0.807  0.00  0.00    -0.107 NA
ATOM      6  C   UNL     1      -0.329   5.151   1.726  0.00  0.00    +0.248 A 
ATOM      7  O   UNL     1       0.014   3.886   2.039  0.00  0.00    -0.419 OA
BRANCH   6   8
ATOM      8  C   UNL     1       0.241   6.385   2.309  0.00  0.00    +0.039 A 
ATOM      9  C   UNL     1       1.232   6.304   3.288  0.00  0.00    +0.015 A 
ATOM     10  C   UNL     1       1.762   7.459   3.825  0.00  0.00    +0.033 A 
ATOM     11  C   UNL     1       1.307   8.695   3.402  0.00  0.00    +0.126 A 
ATOM     12  C   UNL     1       0.322   8.782   2.435  0.00  0.00    +0.033 A 
ATOM     13  C   UNL     1      -0.214   7.635   1.886  0.00  0.00    +0.015 A 
BRANCH  11  14
ATOM     14  N   UNL     1       1.877   9.929   3.986  0.00  0.00    +0.056 N 
ATOM     15  O   UNL     1       1.478  11.019   3.615  0.00  0.00    -0.126 OA
ATOM     16  O   UNL     1       2.745   9.856   4.838  0.00  0.00    -0.126 OA
ENDBRANCH  11  14
ENDBRANCH   6   8
ENDBRANCH   2   3
BRANCH   2  17
ATOM     17  S   UNL     1      -2.427   0.953   1.280  0.00  0.00    -0.075 S 
BRANCH  17  18
ATOM     18  C   UNL     1      -2.114  -0.776   1.419  0.00  0.00    +0.167 A 
ATOM     19  N   UNL     1      -3.062  -1.752   1.479  0.00  0.00    -0.333 N 
ATOM     20  H   UNL     1      -4.053  -1.621   1.456  0.00  0.00    +0.168 HD
ATOM     21  C   UNL     1      -2.391  -2.958   1.580  0.00  0.00    +0.067 A 
ATOM     22  C   UNL     1      -1.064  -2.665   1.585  0.00  0.00    +0.139 A 
ATOM     23  N   UNL     1      -0.928  -1.337   1.487  0.00  0.00    -0.230 NA
BRANCH  21  24
ATOM     24  C   UNL     1      -2.999  -4.302   1.670  0.00  0.00    +0.000 A 
ATOM     25  C   UNL     1      -4.388  -4.445   1.657  0.00  0.00    +0.013 A 
ATOM     26  C   UNL     1      -4.950  -5.702   1.736  0.00  0.00    +0.039 A 
ATOM     27  C   UNL     1      -4.139  -6.821   1.839  0.00  0.00    +0.123 A 
ATOM     28  C   UNL     1      -2.760  -6.685   1.858  0.00  0.00    +0.039 A 
ATOM     29  C   UNL     1      -2.187  -5.433   1.774  0.00  0.00    +0.013 A 
ATOM     30  F   UNL     1      -4.695  -8.050   1.921  0.00  0.00    -0.205 F 
ENDBRANCH  21  24
ENDBRANCH  17  18
ENDBRANCH   2  17
TORSDOF 6
