REMARK  Name = ZINC37359735
REMARK  3 active torsions:
REMARK  status: ('A' for Active; 'I' for Inactive)
REMARK    1  A    between atoms: C_6  and  O_7
REMARK    2  A    between atoms: C_10  and  C_11
REMARK    3  A    between atoms: C_10  and  N_14
REMARK                            x       y       z     vdW  Elec       q    Type
REMARK                         _______ _______ _______ _____ _____    ______ ____
ROOT
ATOM      1  C   UNL     1       0.124   0.853  -0.528  0.00  0.00    +0.046 A 
ATOM      2  C   UNL     1       1.197   1.714  -0.388  0.00  0.00    +0.010 A 
ATOM      3  C   UNL     1       2.466   1.211  -0.204  0.00  0.00    -0.002 A 
ATOM      4  C   UNL     1       2.689  -0.160  -0.149  0.00  0.00    +0.126 A 
ATOM      5  C   UNL     1       1.608  -1.024  -0.295  0.00  0.00    +0.091 A 
ATOM      6  C   UNL     1       0.333  -0.518  -0.483  0.00  0.00    +0.120 A 
ATOM      7  O   UNL     1       4.005  -0.436   0.060  0.00  0.00    -0.492 OA
ATOM      8  C   UNL     1       4.792   0.716  -0.285  0.00  0.00    +0.233 C 
ATOM      9  C   UNL     1       3.813   1.887  -0.035  0.00  0.00    +0.102 C 
ENDROOT
BRANCH   9  10
ATOM     10  N   UNL     1       3.997   2.948  -1.034  0.00  0.00    +0.396 N 
ATOM     11  C   UNL     1       5.403   3.428  -1.019  0.00  0.00    -0.077 C 
ATOM     12  C   UNL     1       5.573   4.070  -2.418  0.00  0.00    -0.020 C 
ATOM     13  C   UNL     1       4.757   3.128  -3.333  0.00  0.00    -0.020 C 
ATOM     14  C   UNL     1       3.768   2.413  -2.394  0.00  0.00    -0.077 C 
ATOM     15  H   UNL     1       3.365   3.713  -0.851  0.00  0.00    -0.080 HD
ENDBRANCH   9  10
BRANCH   9  16
ATOM     16  C   UNL     1       3.970   2.432   1.361  0.00  0.00    +0.354 C 
ATOM     17  O   UNL     1       3.905   1.682   2.320  0.00  0.00    -0.247 OA
ATOM     18  O   UNL     1       4.163   3.624   1.532  0.00  0.00    -0.247 OA
ENDBRANCH   9  16
BRANCH   6  19
ATOM     19  O   UNL     1      -0.718  -1.368  -0.624  0.00  0.00    -0.507 OA
ATOM     20  H   UNL     1      -0.897  -1.624  -1.540  0.00  0.00    +0.292 HD
ENDBRANCH   6  19
TORSDOF 3
