REMARK  Name = ZINC32939967
REMARK  9 active torsions:
REMARK  status: ('A' for Active; 'I' for Inactive)
REMARK    1  A    between atoms: C_1  and  C_2
REMARK    2  A    between atoms: C_2  and  C_3
REMARK    3  A    between atoms: C_2  and  C_4
REMARK    4  A    between atoms: C_2  and  C_5
REMARK    5  A    between atoms: C_9  and  C_26
REMARK    6  A    between atoms: C_19  and  C_20
REMARK    7  A    between atoms: C_26  and  O_28
REMARK    8  A    between atoms: O_28  and  C_29
REMARK    9  A    between atoms: C_29  and  C_30
REMARK                            x       y       z     vdW  Elec       q    Type
REMARK                         _______ _______ _______ _____ _____    ______ ____
ROOT
ATOM      1  C   UNL     1      -6.085   0.647   3.455  0.00  0.00    +0.003 C 
ATOM      2  C   UNL     1      -6.213   1.615   2.282  0.00  0.00    +0.042 C 
ATOM      3  C   UNL     1      -6.612   0.893   1.024  0.00  0.00    -0.007 A 
ATOM      4  C   UNL     1      -6.338   1.484  -0.202  0.00  0.00    +0.073 A 
ATOM      5  C   UNL     1      -6.755   0.768  -1.408  0.00  0.00    +0.015 A 
ATOM      6  C   UNL     1      -6.518   1.286  -2.685  0.00  0.00    +0.011 A 
ATOM      7  C   UNL     1      -6.924   0.586  -3.783  0.00  0.00    +0.001 A 
ATOM      8  C   UNL     1      -7.574  -0.639  -3.649  0.00  0.00    +0.002 A 
ATOM      9  C   UNL     1      -7.821  -1.172  -2.421  0.00  0.00    +0.028 A 
ATOM     10  C   UNL     1      -7.416  -0.478  -1.265  0.00  0.00    +0.072 A 
ATOM     11  N   UNL     1      -7.643  -0.974  -0.049  0.00  0.00    -0.247 NA
ATOM     12  C   UNL     1      -7.276  -0.347   1.058  0.00  0.00    +0.072 A 
ATOM     13  C   UNL     1      -7.566  -0.981   2.360  0.00  0.00    -0.020 C 
ATOM     14  C   UNL     1      -7.972  -2.266   2.436  0.00  0.00    +0.020 C 
ATOM     15  C   UNL     1      -7.392  -0.141   3.607  0.00  0.00    +0.041 C 
ENDROOT
BRANCH  14  16
ATOM     16  C   UNL     1      -8.460  -2.805   3.706  0.00  0.00    +0.013 A 
ATOM     17  C   UNL     1      -8.788  -4.112   4.032  0.00  0.00    +0.015 A 
ATOM     18  C   UNL     1      -9.229  -4.376   5.306  0.00  0.00    +0.008 A 
ATOM     19  C   UNL     1      -9.329  -3.356   6.200  0.00  0.00    +0.046 A 
ATOM     20  S   UNL     1      -8.780  -1.954   5.242  0.00  0.00    -0.097 S 
ENDBRANCH  14  16
BRANCH   1  22
ATOM     21  C   UNL     1      -5.686   0.463   5.915  0.00  0.00    +0.011 C 
ATOM     22  C   UNL     1      -5.810   1.434   4.738  0.00  0.00    -0.034 C 
ATOM     23  C   UNL     1      -4.506   2.219   4.585  0.00  0.00    +0.011 C 
ATOM     24  C   UNL     1      -6.963   2.405   4.998  0.00  0.00    +0.011 C 
ENDBRANCH   1  22
BRANCH   4  25
ATOM     25  C   UNL     1      -5.645   2.786  -0.286  0.00  0.00    +0.341 C 
ATOM     26  O   UNL     1      -6.287   3.817  -0.294  0.00  0.00    -0.245 OA
BRANCH  25  27
ATOM     27  O   UNL     1      -4.300   2.830  -0.354  0.00  0.00    -0.452 OA
BRANCH  27  28
ATOM     28  C   UNL     1      -3.686   4.143  -0.435  0.00  0.00    +0.328 C 
BRANCH  28  29
ATOM     29  C   UNL     1      -2.188   3.995  -0.503  0.00  0.00    +0.258 C 
ATOM     30  O   UNL     1      -1.687   2.891  -0.486  0.00  0.00    -0.272 OA
ATOM     31  N   UNL     1      -1.406   5.089  -0.590  0.00  0.00    -0.238 N 
ATOM     32  C   UNL     1      -0.066   4.956  -0.656  0.00  0.00    +0.303 C 
ATOM     33  O   UNL     1       0.436   3.849  -0.639  0.00  0.00    -0.253 OA
ATOM     34  N   UNL     1       0.716   6.050  -0.743  0.00  0.00    -0.313 N 
ATOM     35  H   UNL     1      -1.861   6.090  -0.606  0.00  0.00    +0.159 HD
ATOM     36  H   UNL     1       1.809   5.941  -0.797  0.00  0.00    +0.146 HD
ATOM     37  H   UNL     1       0.261   7.051  -0.759  0.00  0.00    +0.146 HD
ENDBRANCH  28  29
ENDBRANCH  27  28
ENDBRANCH  25  27
ENDBRANCH   4  25
TORSDOF 6
