REMARK  Name = ZINC56883947
REMARK  7 active torsions:
REMARK  status: ('A' for Active; 'I' for Inactive)
REMARK    1  A    between atoms: C_1  and  C_2
REMARK    2  A    between atoms: C_3  and  C_22
REMARK    3  A    between atoms: C_4  and  C_14
REMARK    4  A    between atoms: N_9  and  C_10
REMARK    5  A    between atoms: C_10  and  C_11
REMARK    6  A    between atoms: C_22  and  O_24
REMARK    7  A    between atoms: O_24  and  C_25
REMARK                            x       y       z     vdW  Elec       q    Type
REMARK                         _______ _______ _______ _____ _____    ______ ____
ROOT
ATOM      1  C   UNL     1       0.140   1.340   0.413  0.00  0.00    +0.061 C 
ATOM      2  C   UNL     1       0.075  -0.156   0.243  0.00  0.00    +0.024 C 
ATOM      3  C   UNL     1       0.029  -0.682  -0.999  0.00  0.00    +0.078 C 
ATOM      4  C   UNL     1      -0.035  -2.191  -1.124  0.00  0.00    +0.146 C 
ATOM      5  N   UNL     1      -0.043  -2.965   0.129  0.00  0.00    -0.288 N 
ATOM      6  C   UNL     1       0.008  -2.294   1.297  0.00  0.00    +0.307 C 
ATOM      7  O   UNL     1       0.003  -2.924   2.337  0.00  0.00    -0.252 OA
ATOM      8  N   UNL     1       0.070  -0.958   1.349  0.00  0.00    -0.259 N 
ATOM      9  H   UNL     1      -0.083  -3.934   0.114  0.00  0.00    +0.151 HD
ENDROOT
BRANCH   4  10
ATOM     10  C   UNL     1       1.149  -2.641  -1.940  0.00  0.00    +0.015 A 
ATOM     11  C   UNL     1       0.979  -3.007  -3.262  0.00  0.00    +0.047 A 
ATOM     12  C   UNL     1       2.067  -3.419  -4.011  0.00  0.00    +0.124 A 
ATOM     13  C   UNL     1       3.326  -3.466  -3.437  0.00  0.00    +0.041 A 
ATOM     14  C   UNL     1       3.497  -3.100  -2.115  0.00  0.00    +0.041 A 
ATOM     15  C   UNL     1       2.409  -2.682  -1.367  0.00  0.00    +0.129 A 
ATOM     16  F   UNL     1       2.576  -2.320  -0.076  0.00  0.00    -0.205 F 
ATOM     17  F   UNL     1       1.901  -3.777  -5.303  0.00  0.00    -0.205 F 
ENDBRANCH   4  10
BRANCH   3  18
ATOM     18  C   UNL     1       0.040   0.146  -2.146  0.00  0.00    +0.339 C 
ATOM     19  O   UNL     1       0.212   1.345  -2.028  0.00  0.00    -0.245 OA
BRANCH  18  20
ATOM     20  O   UNL     1      -0.140  -0.392  -3.370  0.00  0.00    -0.465 OA
ATOM     21  C   UNL     1      -0.117   0.504  -4.483  0.00  0.00    +0.280 C 
ENDBRANCH  18  20
ENDBRANCH   3  18
BRANCH   8  22
ATOM     22  C   UNL     1       0.128  -0.319   2.666  0.00  0.00    +0.118 C 
BRANCH  22  23
ATOM     23  C   UNL     1      -1.293  -0.038   3.160  0.00  0.00    +0.007 C 
ATOM     24  C   UNL     1      -1.695   1.424   3.363  0.00  0.00    +0.005 C 
ATOM     25  C   UNL     1      -1.452   0.522   4.575  0.00  0.00    +0.005 C 
ENDBRANCH  22  23
ENDBRANCH   8  22
TORSDOF 5
