REMARK  Name = ZINC06227256
REMARK  6 active torsions:
REMARK  status: ('A' for Active; 'I' for Inactive)
REMARK    1  A    between atoms: C_5  and  C_7
REMARK    2  A    between atoms: C_10  and  C_12
REMARK    3  A    between atoms: N_13  and  N_14
REMARK    4  A    between atoms: C_15  and  C_17
REMARK    5  A    between atoms: C_17  and  O_18
REMARK    6  A    between atoms: O_18  and  C_19
REMARK                            x       y       z     vdW  Elec       q    Type
REMARK                         _______ _______ _______ _____ _____    ______ ____
ROOT
ATOM      1  C   UNL     1       0.286  -5.422   1.202  0.00  0.00    +0.176 C 
ATOM      2  N   UNL     1      -0.537  -5.268   2.199  0.00  0.00    -0.185 NA
ENDROOT
BRANCH   1   6
ATOM      3  C   UNL     1       1.251  -2.159  -0.022  0.00  0.00    +0.137 A 
ATOM      4  C   UNL     1       1.965  -2.935  -0.885  0.00  0.00    +0.050 A 
ATOM      5  C   UNL     1       1.711  -4.271  -0.545  0.00  0.00    +0.051 A 
ATOM      6  C   UNL     1       0.835  -4.250   0.518  0.00  0.00    +0.148 A 
ATOM      7  O   UNL     1       0.570  -2.962   0.818  0.00  0.00    -0.454 OA
BRANCH   3  12
ATOM      8  C   UNL     1      -0.017   1.375   0.010  0.00  0.00    +0.001 A 
ATOM      9  C   UNL     1       1.170   2.087   0.002  0.00  0.00    +0.001 A 
ATOM     10  C   UNL     1       2.383   1.422  -0.013  0.00  0.00    +0.021 A 
ATOM     11  C   UNL     1       2.418   0.042  -0.021  0.00  0.00    +0.052 A 
ATOM     12  C   UNL     1       1.223  -0.683  -0.013  0.00  0.00    +0.036 A 
ATOM     13  C   UNL     1       0.002  -0.004   0.002  0.00  0.00    +0.013 A 
ATOM     14 CL   UNL     1       3.941  -0.790  -0.039  0.00  0.00    -0.083 Cl
ENDBRANCH   3  12
ENDBRANCH   1   6
BRANCH   2  15
ATOM     15  N   UNL     1      -1.062  -6.389   2.854  0.00  0.00    -0.204 N 
ATOM     16  C   UNL     1      -1.914  -6.229   3.886  0.00  0.00    +0.270 C 
ATOM     17  O   UNL     1      -2.227  -5.114   4.248  0.00  0.00    -0.270 OA
ATOM     18  H   UNL     1      -0.812  -7.281   2.565  0.00  0.00    +0.177 HD
BRANCH  16  19
ATOM     19  C   UNL     1      -2.479  -7.436   4.591  0.00  0.00    +0.326 C 
BRANCH  19  20
ATOM     20  O   UNL     1      -3.349  -7.010   5.641  0.00  0.00    -0.481 OA
BRANCH  20  21
ATOM     21  C   UNL     1      -3.946  -7.982   6.380  0.00  0.00    +0.139 A 
ATOM     22  C   UNL     1      -3.703  -9.318   6.098  0.00  0.00    +0.047 A 
ATOM     23  C   UNL     1      -4.305 -10.304   6.854  0.00  0.00    +0.004 A 
ATOM     24  C   UNL     1      -5.160  -9.961   7.886  0.00  0.00    +0.002 A 
ATOM     25  C   UNL     1      -5.409  -8.631   8.167  0.00  0.00    +0.023 A 
ATOM     26  C   UNL     1      -4.804  -7.639   7.417  0.00  0.00    +0.083 A 
ATOM     27 CL   UNL     1      -5.117  -5.969   7.769  0.00  0.00    -0.080 Cl
ENDBRANCH  20  21
ENDBRANCH  19  20
ENDBRANCH  16  19
ENDBRANCH   2  15
TORSDOF 6
