REMARK  Name = ZINC24592956
REMARK  10 active torsions:
REMARK  status: ('A' for Active; 'I' for Inactive)
REMARK    1  A    between atoms: C_1  and  C_2
REMARK    2  A    between atoms: C_2  and  O_3
REMARK    3  A    between atoms: O_3  and  C_4
REMARK    4  A    between atoms: C_4  and  C_6
REMARK    5  A    between atoms: C_10  and  N_11
REMARK    6  A    between atoms: C_12  and  C_14
REMARK    7  A    between atoms: C_14  and  C_16
REMARK    8  A    between atoms: C_14  and  N_17
REMARK    9  A    between atoms: C_23  and  C_25
REMARK   10  A    between atoms: C_29  and  C_33
REMARK                            x       y       z     vdW  Elec       q    Type
REMARK                         _______ _______ _______ _____ _____    ______ ____
ROOT
ATOM      1  N   UNL     1      -1.079  -0.852   0.124  0.00  0.00    -0.281 N 
ATOM      2  C   UNL     1      -2.337  -0.398  -0.045  0.00  0.00    +0.204 C 
ATOM      3  O   UNL     1      -2.533   0.780  -0.258  0.00  0.00    -0.277 OA
ATOM      4  H   UNL     1      -0.902  -1.920   0.316  0.00  0.00    +0.155 HD
ENDROOT
BRANCH   1   9
ATOM      5  C   UNL     1       1.343  -0.246   0.202  0.00  0.00    +0.091 A 
ATOM      6  C   UNL     1       2.270   0.867   0.083  0.00  0.00    -0.021 A 
ATOM      7  C   UNL     1       1.700   2.067  -0.161  0.00  0.00    -0.004 A 
ATOM      8  S   UNL     1      -0.038   1.736  -0.234  0.00  0.00    -0.077 S 
ATOM      9  C   UNL     1      -0.010   0.028   0.055  0.00  0.00    +0.086 A 
ATOM     10  C   UNL     1       2.398   3.381  -0.329  0.00  0.00    +0.046 C 
ATOM     11  C   UNL     1       3.837   3.234   0.187  0.00  0.00    -0.009 C 
ATOM     12  C   UNL     1       4.445   1.959  -0.405  0.00  0.00    +0.008 C 
ATOM     13  C   UNL     1       3.781   0.729   0.217  0.00  0.00    +0.037 C 
ATOM     14  C   UNL     1       4.662   4.448  -0.244  0.00  0.00    +0.008 C 
BRANCH   5  15
ATOM     15  C   UNL     1       1.819  -1.606   0.465  0.00  0.00    +0.342 C 
ATOM     16  O   UNL     1       2.093  -2.345  -0.462  0.00  0.00    -0.245 OA
BRANCH  15  17
ATOM     17  O   UNL     1       1.953  -2.039   1.736  0.00  0.00    -0.461 OA
BRANCH  17  19
ATOM     18  C   UNL     1       2.517  -3.707   3.418  0.00  0.00    +0.048 C 
ATOM     19  C   UNL     1       2.430  -3.398   1.922  0.00  0.00    +0.229 C 
ENDBRANCH  17  19
ENDBRANCH  15  17
ENDBRANCH   5  15
ENDBRANCH   1   9
BRANCH   2  20
ATOM     20  C   UNL     1      -3.500  -1.354   0.029  0.00  0.00    +0.017 C 
ATOM     21  C   UNL     1      -3.551  -2.195  -1.248  0.00  0.00    -0.004 C 
BRANCH  20  22
ATOM     22  N   UNL     1      -4.750  -0.595   0.167  0.00  0.00    +0.389 N 
ATOM     23  C   UNL     1      -5.843  -1.460   0.630  0.00  0.00    -0.058 C 
ATOM     24  C   UNL     1      -7.076  -0.602   0.933  0.00  0.00    +0.089 C 
ATOM     25  N   UNL     1      -7.385   0.208  -0.255  0.00  0.00    -0.305 N 
ATOM     26  C   UNL     1      -6.301   0.998  -0.859  0.00  0.00    +0.089 C 
ATOM     27  C   UNL     1      -5.099   0.077  -1.092  0.00  0.00    -0.058 C 
ATOM     28  C   UNL     1      -8.628   0.227  -0.775  0.00  0.00    +0.219 C 
ATOM     29  O   UNL     1      -8.865   0.901  -1.755  0.00  0.00    -0.275 OA
ATOM     30  H   UNL     1      -4.593   0.183   0.928  0.00  0.00    -0.081 HD
BRANCH  28  31
ATOM     31  C   UNL     1      -9.723  -0.590  -0.139  0.00  0.00    +0.075 C 
ATOM     32  C   UNL     1     -10.257  -1.789  -0.925  0.00  0.00    +0.013 C 
ATOM     33  C   UNL     1     -11.112  -0.528  -0.778  0.00  0.00    +0.013 C 
ENDBRANCH  28  31
ENDBRANCH  20  22
ENDBRANCH   2  20
TORSDOF 7
