REMARK  Name = ZINC63373364
REMARK  4 active torsions:
REMARK  status: ('A' for Active; 'I' for Inactive)
REMARK    1  A    between atoms: C_1  and  O_2
REMARK    2  A    between atoms: O_2  and  C_3
REMARK    3  A    between atoms: C_10  and  C_18
REMARK    4  A    between atoms: N_22  and  C_25
REMARK                            x       y       z     vdW  Elec       q    Type
REMARK                         _______ _______ _______ _____ _____    ______ ____
ROOT
ATOM      1  C   UNL     1       0.144  -1.099   1.361  0.00  0.00    +0.121 A 
ATOM      2  C   UNL     1      -0.707   0.006   1.535  0.00  0.00    +0.047 A 
ATOM      3  C   UNL     1      -2.031  -0.051   1.278  0.00  0.00    +0.029 A 
ATOM      4  C   UNL     1      -2.629  -1.299   0.799  0.00  0.00    +0.043 A 
ATOM      5  N   UNL     1      -3.867  -1.621   0.503  0.00  0.00    -0.376 N 
ATOM      6  C   UNL     1      -3.879  -2.985  -0.015  0.00  0.00    +0.128 C 
ATOM      7  C   UNL     1      -4.823  -3.904   0.765  0.00  0.00    +0.121 C 
ATOM      8  N   UNL     1      -4.549  -5.294   0.367  0.00  0.00    -0.307 NA
ATOM      9  C   UNL     1      -3.226  -5.765   0.785  0.00  0.00    +0.086 C 
ATOM     10  C   UNL     1      -2.127  -4.974   0.050  0.00  0.00    +0.048 C 
ATOM     11  C   UNL     1      -2.466  -3.508   0.198  0.00  0.00    -0.035 C 
ATOM     12  C   UNL     1      -1.734  -2.472   0.623  0.00  0.00    +0.003 A 
ATOM     13  C   UNL     1      -0.307  -2.298   0.923  0.00  0.00    +0.055 A 
ATOM     14  H   UNL     1      -5.274  -5.914   0.697  0.00  0.00    +0.123 HD
ATOM     15  H   UNL     1      -4.643  -1.049   0.610  0.00  0.00    +0.160 HD
ENDROOT
BRANCH   7  16
ATOM     16  C   UNL     1      -4.582  -3.741   2.244  0.00  0.00    +0.101 A 
ATOM     17  C   UNL     1      -3.333  -3.912   2.764  0.00  0.00    +0.263 A 
ATOM     18  N   UNL     1      -3.137  -3.759   4.113  0.00  0.00    -0.274 N 
ATOM     19  C   UNL     1      -4.166  -3.443   4.920  0.00  0.00    +0.337 A 
ATOM     20  N   UNL     1      -5.406  -3.271   4.426  0.00  0.00    -0.229 N 
ATOM     21  C   UNL     1      -5.641  -3.406   3.106  0.00  0.00    +0.270 A 
ATOM     22  O   UNL     1      -6.765  -3.244   2.663  0.00  0.00    -0.267 OA
ATOM     23  O   UNL     1      -3.973  -3.311   6.113  0.00  0.00    -0.246 OA
ATOM     24  O   UNL     1      -2.298  -4.229   1.958  0.00  0.00    -0.267 OA
ATOM     25  H   UNL     1      -2.250  -3.879   4.488  0.00  0.00    +0.173 HD
BRANCH  20  26
ATOM     26  C   UNL     1      -6.460  -2.943   5.290  0.00  0.00    +0.054 A 
ATOM     27  C   UNL     1      -7.210  -3.948   5.885  0.00  0.00    +0.028 A 
ATOM     28  C   UNL     1      -8.248  -3.623   6.736  0.00  0.00    +0.022 A 
ATOM     29  C   UNL     1      -8.540  -2.295   6.996  0.00  0.00    +0.041 A 
ATOM     30  C   UNL     1      -7.794  -1.291   6.404  0.00  0.00    +0.022 A 
ATOM     31  C   UNL     1      -6.751  -1.612   5.558  0.00  0.00    +0.028 A 
ATOM     32 CL   UNL     1      -9.847  -1.889   8.065  0.00  0.00    -0.084 Cl
ENDBRANCH  20  26
ENDBRANCH   7  16
BRANCH   1  34
ATOM     33  C   UNL     1       1.901   0.323   2.098  0.00  0.00    +0.277 C 
ATOM     34  O   UNL     1       1.468  -0.958   1.638  0.00  0.00    -0.495 OA
ENDBRANCH   1  34
TORSDOF 3
