REMARK  Name = ZINC09748956
REMARK  6 active torsions:
REMARK  status: ('A' for Active; 'I' for Inactive)
REMARK    1  A    between atoms: C_1  and  C_2
REMARK    2  A    between atoms: C_5  and  N_9
REMARK    3  A    between atoms: C_10  and  C_12
REMARK    4  A    between atoms: C_13  and  N_25
REMARK    5  A    between atoms: N_14  and  C_17
REMARK    6  A    between atoms: C_17  and  C_18
REMARK                            x       y       z     vdW  Elec       q    Type
REMARK                         _______ _______ _______ _____ _____    ______ ____
ROOT
ATOM      1  C   UNL     1       0.041  -2.111  -0.620  0.00  0.00    +0.188 A 
ATOM      2  C   UNL     1       0.021  -0.804  -1.091  0.00  0.00    +0.147 A 
ATOM      3  N   UNL     1       0.035  -0.003   0.000  0.00  0.00    -0.226 N 
ATOM      4  N   UNL     1       0.055  -0.844   1.122  0.00  0.00    -0.063 NA
ATOM      5  N   UNL     1       0.058  -2.068   0.726  0.00  0.00    -0.123 NA
ENDROOT
BRANCH   1   7
ATOM      6  N   UNL     1       0.055  -4.538  -0.856  0.00  0.00    -0.279 N 
ATOM      7  C   UNL     1       0.038  -3.325  -1.444  0.00  0.00    +0.272 C 
ATOM      8  O   UNL     1       0.021  -3.237  -2.657  0.00  0.00    -0.268 OA
ATOM      9  H   UNL     1       0.134  -4.609   0.108  0.00  0.00    +0.155 HD
BRANCH   6  14
ATOM     10  C   UNL     1      -0.339  -9.230  -4.022  0.00  0.00    +0.044 C 
ATOM     11  C   UNL     1      -0.234  -7.984  -3.181  0.00  0.00    -0.049 A 
ATOM     12  C   UNL     1       0.440  -6.878  -3.666  0.00  0.00    +0.005 A 
ATOM     13  C   UNL     1       0.537  -5.734  -2.898  0.00  0.00    +0.025 A 
ATOM     14  C   UNL     1      -0.043  -5.695  -1.637  0.00  0.00    +0.048 A 
ATOM     15  C   UNL     1      -0.715  -6.809  -1.150  0.00  0.00    +0.039 A 
ATOM     16  C   UNL     1      -0.813  -7.949  -1.926  0.00  0.00    +0.020 A 
ATOM     17 BR   UNL     1      -1.499  -6.765   0.570  0.00  0.00    -0.048 Br
ENDBRANCH   6  14
ENDBRANCH   1   7
BRANCH   2  18
ATOM     18  N   UNL     1      -0.006  -0.402  -2.411  0.00  0.00    -0.341 N 
ATOM     19  H   UNL     1      -0.017   0.542  -2.630  0.00  0.00    +0.144 HD
ATOM     20  H   UNL     1      -0.015  -1.065  -3.120  0.00  0.00    +0.144 HD
ENDBRANCH   2  18
BRANCH   3  21
ATOM     21  C   UNL     1       0.024   1.462   0.007  0.00  0.00    +0.182 C 
BRANCH  21  22
ATOM     22  C   UNL     1       1.442   1.974  -0.009  0.00  0.00    -0.025 A 
ATOM     23  C   UNL     1       2.075   2.215  -1.214  0.00  0.00    +0.005 A 
ATOM     24  C   UNL     1       3.375   2.685  -1.230  0.00  0.00    +0.002 A 
ATOM     25  C   UNL     1       4.042   2.914  -0.041  0.00  0.00    +0.020 A 
ATOM     26  C   UNL     1       3.408   2.673   1.165  0.00  0.00    +0.041 A 
ATOM     27  C   UNL     1       2.105   2.208   1.180  0.00  0.00    +0.025 A 
ATOM     28 CL   UNL     1       4.245   2.961   2.659  0.00  0.00    -0.084 Cl
ENDBRANCH  21  22
ENDBRANCH   3  21
TORSDOF 5
