REMARK  Name = ZINC35052871
REMARK  9 active torsions:
REMARK  status: ('A' for Active; 'I' for Inactive)
REMARK    1  A    between atoms: C_1  and  C_2
REMARK    2  A    between atoms: C_9  and  O_12
REMARK    3  A    between atoms: O_12  and  C_13
REMARK    4  A    between atoms: C_15  and  N_28
REMARK    5  A    between atoms: C_17  and  O_27
REMARK    6  A    between atoms: C_19  and  O_26
REMARK    7  A    between atoms: C_21  and  C_24
REMARK    8  A    between atoms: C_24  and  O_25
REMARK    9  A    between atoms: C_29  and  C_31
REMARK                            x       y       z     vdW  Elec       q    Type
REMARK                         _______ _______ _______ _____ _____    ______ ____
ROOT
ATOM      1  C   UNL     1       0.083  -2.765   4.815  0.00  0.00    +0.331 C 
ATOM      2  C   UNL     1      -0.196  -1.821   5.988  0.00  0.00    +0.173 C 
ATOM      3  C   UNL     1      -0.140  -2.616   7.297  0.00  0.00    +0.172 C 
ATOM      4  C   UNL     1       1.227  -3.297   7.410  0.00  0.00    +0.176 C 
ATOM      5  C   UNL     1       1.450  -4.184   6.182  0.00  0.00    +0.179 C 
ATOM      6  O   UNL     1       1.355  -3.389   4.998  0.00  0.00    -0.332 OA
ENDROOT
BRANCH   2   7
ATOM      7  N   UNL     1       0.816  -0.762   6.014  0.00  0.00    -0.304 N 
ATOM      8  C   UNL     1       0.511   0.448   6.523  0.00  0.00    +0.210 C 
ATOM      9  O   UNL     1      -0.601   0.660   6.959  0.00  0.00    -0.276 OA
ATOM     10  C   UNL     1       1.551   1.538   6.550  0.00  0.00    +0.109 C 
ATOM     11  H   UNL     1       1.705  -0.931   5.666  0.00  0.00    +0.149 HD
ENDBRANCH   2   7
BRANCH   4  12
ATOM     12  O   UNL     1       2.252  -2.304   7.476  0.00  0.00    -0.387 OA
ATOM     13  H   UNL     1       3.146  -2.665   7.549  0.00  0.00    +0.210 HD
ENDBRANCH   4  12
BRANCH   3  14
ATOM     14  O   UNL     1      -0.328  -1.730   8.402  0.00  0.00    -0.387 OA
ATOM     15  H   UNL     1      -0.305  -2.167   9.264  0.00  0.00    +0.210 HD
ENDBRANCH   3  14
BRANCH   1  16
ATOM     16  O   UNL     1       0.088  -2.020   3.595  0.00  0.00    -0.459 OA
BRANCH  16  25
ATOM     17  C   UNL     1       0.089   1.401  -0.041  0.00  0.00    +0.065 C 
ATOM     18  C   UNL     1       0.109  -0.105  -0.023  0.00  0.00    +0.039 A 
ATOM     19  C   UNL     1       0.134  -0.798  -1.232  0.00  0.00    +0.023 A 
ATOM     20  C   UNL     1       0.152  -2.163  -1.235  0.00  0.00    +0.012 A 
ATOM     21  C   UNL     1       0.145  -2.830   0.004  0.00  0.00    +0.004 A 
ATOM     22  C   UNL     1       0.163  -4.233   0.080  0.00  0.00    +0.010 A 
ATOM     23  C   UNL     1       0.156  -4.843   1.297  0.00  0.00    +0.004 A 
ATOM     24  C   UNL     1       0.131  -4.097   2.472  0.00  0.00    +0.048 A 
ATOM     25  C   UNL     1       0.113  -2.732   2.439  0.00  0.00    +0.150 A 
ATOM     26  C   UNL     1       0.119  -2.065   1.196  0.00  0.00    +0.113 A 
ATOM     27  N   UNL     1       0.108  -0.730   1.129  0.00  0.00    -0.248 NA
ENDBRANCH  16  25
ENDBRANCH   1  16
BRANCH   5  28
ATOM     28  C   UNL     1       2.839  -4.822   6.259  0.00  0.00    +0.190 C 
BRANCH  28  29
ATOM     29  O   UNL     1       3.002  -5.738   5.175  0.00  0.00    -0.392 OA
ATOM     30  H   UNL     1       3.862  -6.181   5.160  0.00  0.00    +0.210 HD
ENDBRANCH  28  29
ENDBRANCH   5  28
TORSDOF 7
