REMARK  Name = ZINC52645353
REMARK  4 active torsions:
REMARK  status: ('A' for Active; 'I' for Inactive)
REMARK    1  A    between atoms: C_1  and  C_2
REMARK    2  A    between atoms: N_9  and  C_13
REMARK    3  A    between atoms: C_13  and  C_14
REMARK    4  A    between atoms: N_16  and  C_17
REMARK                            x       y       z     vdW  Elec       q    Type
REMARK                         _______ _______ _______ _____ _____    ______ ____
ROOT
ATOM      1  C   UNL     1       0.384  -4.954   1.194  0.00  0.00    +0.200 C 
ENDROOT
BRANCH   1  10
ATOM      2  C   UNL     1      -0.182   1.374  -0.310  0.00  0.00    +0.044 C 
ATOM      3  C   UNL     1      -0.122  -0.131  -0.250  0.00  0.00    -0.047 A 
ATOM      4  C   UNL     1      -0.087  -0.866  -1.419  0.00  0.00    +0.009 A 
ATOM      5  C   UNL     1      -0.030  -2.249  -1.375  0.00  0.00    -0.023 A 
ATOM      6  C   UNL     1      -0.006  -2.894  -0.148  0.00  0.00    +0.069 A 
ATOM      7  C   UNL     1      -0.042  -2.152   1.029  0.00  0.00    +0.145 A 
ATOM      8  C   UNL     1      -0.095  -0.772   0.975  0.00  0.00    +0.043 A 
ATOM      9  F   UNL     1      -0.021  -2.781   2.225  0.00  0.00    -0.204 F 
ATOM     10  N   UNL     1       0.061  -4.291  -0.072  0.00  0.00    -0.319 N 
ATOM     11  C   UNL     1      -0.199  -5.081  -1.284  0.00  0.00    +0.106 C 
ATOM     12  C   UNL     1       0.561  -4.423  -2.444  0.00  0.00    +0.024 C 
ATOM     13  C   UNL     1      -0.000  -3.019  -2.669  0.00  0.00    +0.038 C 
ENDBRANCH   1  10
BRANCH   1  14
ATOM     14  C   UNL     1      -0.888  -5.229   1.955  0.00  0.00    +0.231 C 
ATOM     15  O   UNL     1      -1.958  -4.903   1.486  0.00  0.00    -0.274 OA
ATOM     16  N   UNL     1      -0.835  -5.836   3.157  0.00  0.00    -0.303 N 
ATOM     17  H   UNL     1       0.021  -6.096   3.532  0.00  0.00    +0.149 HD
BRANCH  16  18
ATOM     18  C   UNL     1      -2.071  -6.104   3.897  0.00  0.00    +0.159 C 
ATOM     19  C   UNL     1      -1.738  -6.415   5.358  0.00  0.00    +0.032 C 
ATOM     20  C   UNL     1      -0.425  -7.170   5.461  0.00  0.00    +0.004 C 
ATOM     21  C   UNL     1      -0.472  -8.566   4.866  0.00  0.00    +0.019 C 
ATOM     22  C   UNL     1      -0.655  -8.505   3.349  0.00  0.00    +0.104 C 
ATOM     23  N   UNL     1      -2.094  -8.424   3.050  0.00  0.00    -0.314 N 
ATOM     24  C   UNL     1      -2.776  -7.301   3.295  0.00  0.00    +0.233 C 
ATOM     25  O   UNL     1      -3.960  -7.240   3.041  0.00  0.00    -0.274 OA
ATOM     26  H   UNL     1      -2.551  -9.191   2.670  0.00  0.00    +0.149 HD
ENDBRANCH  16  18
ENDBRANCH   1  14
TORSDOF 3
