REMARK  Name = ZINC04587533
REMARK  8 active torsions:
REMARK  status: ('A' for Active; 'I' for Inactive)
REMARK    1  A    between atoms: C_1  and  C_2
REMARK    2  A    between atoms: C_4  and  O_30
REMARK    3  A    between atoms: C_6  and  O_29
REMARK    4  A    between atoms: C_8  and  O_28
REMARK    5  A    between atoms: C_10  and  N_13
REMARK    6  A    between atoms: N_13  and  C_14
REMARK    7  A    between atoms: C_17  and  N_20
REMARK    8  A    between atoms: N_21  and  C_22
REMARK                            x       y       z     vdW  Elec       q    Type
REMARK                         _______ _______ _______ _____ _____    ______ ____
ROOT
ATOM      1  N   UNL     1       1.538  -2.273   2.443  0.00  0.00    -0.317 N 
ATOM      2  H   UNL     1       1.078  -2.351   3.293  0.00  0.00    +0.149 HD
ENDROOT
BRANCH   1   8
ATOM      3  C   UNL     1      -0.019   1.526   0.010  0.00  0.00    +0.041 C 
ATOM      4  C   UNL     1       0.002  -0.004   0.002  0.00  0.00    +0.149 C 
ATOM      5  C   UNL     1      -1.434  -0.534   0.013  0.00  0.00    +0.174 C 
ATOM      6  C   UNL     1      -1.405  -2.065   0.066  0.00  0.00    +0.178 C 
ATOM      7  C   UNL     1      -0.612  -2.507   1.299  0.00  0.00    +0.192 C 
ATOM      8  C   UNL     1       0.793  -1.901   1.238  0.00  0.00    +0.235 C 
ATOM      9  O   UNL     1       0.693  -0.478   1.160  0.00  0.00    -0.351 OA
BRANCH   7  10
ATOM     10  O   UNL     1      -1.277  -2.057   2.481  0.00  0.00    -0.385 OA
ATOM     11  H   UNL     1      -0.829  -2.303   3.302  0.00  0.00    +0.210 HD
ENDBRANCH   7  10
BRANCH   6  12
ATOM     12  O   UNL     1      -2.740  -2.566   0.149  0.00  0.00    -0.386 OA
ATOM     13  H   UNL     1      -2.797  -3.531   0.185  0.00  0.00    +0.210 HD
ENDBRANCH   6  12
BRANCH   5  14
ATOM     14  O   UNL     1      -2.120  -0.029   1.161  0.00  0.00    -0.387 OA
ATOM     15  H   UNL     1      -2.173   0.936   1.194  0.00  0.00    +0.210 HD
ENDBRANCH   5  14
ENDBRANCH   1   8
BRANCH   1  16
ATOM     16  C   UNL     1       2.908  -2.515   2.368  0.00  0.00    +0.029 A 
ATOM     17  C   UNL     1       3.567  -2.397   1.148  0.00  0.00    +0.025 A 
ATOM     18  C   UNL     1       4.920  -2.634   1.069  0.00  0.00    +0.031 A 
ATOM     19  C   UNL     1       5.633  -2.995   2.217  0.00  0.00    +0.086 A 
ATOM     20  C   UNL     1       4.967  -3.113   3.442  0.00  0.00    +0.031 A 
ATOM     21  C   UNL     1       3.614  -2.868   3.514  0.00  0.00    +0.025 A 
BRANCH  19  22
ATOM     22  N   UNL     1       6.975  -3.233   2.143  0.00  0.00    -0.149 NA
ATOM     23  N   UNL     1       7.630  -3.565   3.203  0.00  0.00    -0.149 NA
BRANCH  23  24
ATOM     24  C   UNL     1       8.975  -3.803   3.129  0.00  0.00    +0.086 A 
ATOM     25  C   UNL     1       9.643  -3.681   1.908  0.00  0.00    +0.029 A 
ATOM     26  C   UNL     1      10.999  -3.922   1.841  0.00  0.00    +0.002 A 
ATOM     27  C   UNL     1      11.698  -4.284   2.979  0.00  0.00    +0.000 A 
ATOM     28  C   UNL     1      11.043  -4.408   4.192  0.00  0.00    +0.002 A 
ATOM     29  C   UNL     1       9.688  -4.164   4.275  0.00  0.00    +0.029 A 
ENDBRANCH  23  24
ENDBRANCH  19  22
ENDBRANCH   1  16
TORSDOF 7
