REMARK  Name = ZINC43618836
REMARK  12 active torsions:
REMARK  status: ('A' for Active; 'I' for Inactive)
REMARK    1  A    between atoms: CB_1  and  CA_2
REMARK    2  A    between atoms: CA_2  and  C_4
REMARK    3  A    between atoms: CA_2  and  N_14
REMARK    4  A    between atoms: N_6  and  CA_7
REMARK    5  A    between atoms: CA_7  and  C_9
REMARK    6  A    between atoms: CA_7  and  CB_11
REMARK    7  A    between atoms: C_9  and  O_10
REMARK    8  A    between atoms: CB_11  and  CG1_12
REMARK    9  A    between atoms: CB_11  and  CG2_13
REMARK   10  A    between atoms: C_15  and  C_17
REMARK   11  A    between atoms: C_19  and  C_32
REMARK   12  A    between atoms: C_19  and  C_33
REMARK                            x       y       z     vdW  Elec       q    Type
REMARK                         _______ _______ _______ _____ _____    ______ ____
ROOT
ATOM      1  N   VAL A   1       0.834  -0.137  -0.860  0.00  0.00    -0.303 N 
ATOM      2  C   UNK A   0       2.178  -0.137  -0.769  0.00  0.00    +0.236 C 
ATOM      3  O   UNK A   0       2.716   0.193   0.267  0.00  0.00    -0.274 OA
ATOM      4  H   VAL A   1       0.403  -0.401  -1.688  0.00  0.00    +0.149 HD
ENDROOT
BRANCH   2   5
ATOM      5  C   UNK A   0       3.014  -0.546  -1.954  0.00  0.00    +0.179 C 
ATOM      6  C   UNK A   0       3.052   0.626  -2.962  0.00  0.00    +0.040 C 
ATOM      7  S   UNK A   0       4.831   1.114  -2.895  0.00  0.00    -0.125 S 
ATOM      8  C   UNK A   0       5.245   0.225  -1.335  0.00  0.00    +0.167 C 
ATOM      9  N   UNK A   0       4.338  -0.947  -1.478  0.00  0.00    -0.269 N 
ATOM     10  C   UNK A   0       5.075  -2.023  -1.127  0.00  0.00    +0.249 C 
ATOM     11  O   UNK A   0       4.625  -3.087  -0.749  0.00  0.00    -0.270 OA
ATOM     12  C   UNK A   0       6.510  -1.710  -1.271  0.00  0.00    +0.043 A 
ATOM     13  C   UNK A   0       6.645  -0.315  -1.401  0.00  0.00    -0.005 A 
ATOM     14  C   UNK A   0       7.882   0.265  -1.555  0.00  0.00    +0.007 A 
ATOM     15  C   UNK A   0       9.022  -0.522  -1.560  0.00  0.00    +0.000 A 
ATOM     16  C   UNK A   0       8.921  -1.893  -1.407  0.00  0.00    +0.001 A 
ATOM     17  C   UNK A   0       7.656  -2.505  -1.265  0.00  0.00    +0.013 A 
ATOM     18  C   UNK A   0       2.151   1.774  -2.502  0.00  0.00    +0.025 C 
ATOM     19  C   UNK A   0       2.664   0.156  -4.366  0.00  0.00    +0.025 C 
ENDBRANCH   2   5
BRANCH   1  21
ATOM     20  CB  VAL A   1      -0.127   1.784   0.311  0.00  0.00    +0.038 C 
ATOM     21  CA  VAL A   1       0.021   0.261   0.293  0.00  0.00    +0.156 C 
BRANCH  21  22
ATOM     22  C   VAL A   1      -1.341  -0.375   0.191  0.00  0.00    +0.233 C 
ATOM     23  O   VAL A   1      -1.607  -1.090  -0.751  0.00  0.00    -0.274 OA
ATOM     24  N   VAL A   1      -2.264  -0.149   1.147  0.00  0.00    -0.309 N 
ATOM     25  H   VAL A   1      -2.050   0.423   1.901  0.00  0.00    +0.149 HD
BRANCH  24  26
ATOM     26  CA  VAL A   1      -3.588  -0.767   1.048  0.00  0.00    +0.101 C 
BRANCH  26  27
ATOM     27  CB  VAL A   1      -4.197  -0.894   2.446  0.00  0.00    +0.005 C 
ATOM     28  CG1 VAL A   1      -5.549  -1.604   2.350  0.00  0.00    +0.009 C 
ATOM     29  CG2 VAL A   1      -3.257  -1.706   3.340  0.00  0.00    +0.009 C 
ENDBRANCH  26  27
BRANCH  26  30
ATOM     30  C   VAL A   1      -4.493   0.104   0.175  0.00  0.00    +0.178 C 
BRANCH  30  31
ATOM     31  O   VAL A   1      -4.703   1.365   0.815  0.00  0.00    -0.393 OA
ATOM     32  H   VAL A   1      -5.269   1.970   0.316  0.00  0.00    +0.209 HD
ENDBRANCH  30  31
ENDBRANCH  26  30
ENDBRANCH  24  26
ENDBRANCH  21  22
ENDBRANCH   1  21
TORSDOF 7
