REMARK  Name = ZINC33266849
REMARK  7 active torsions:
REMARK  status: ('A' for Active; 'I' for Inactive)
REMARK    1  A    between atoms: C_1  and  C_2
REMARK    2  A    between atoms: N_5  and  C_7
REMARK    3  A    between atoms: C_18  and  C_30
REMARK    4  A    between atoms: N_24  and  C_25
REMARK    5  A    between atoms: C_33  and  N_36
REMARK    6  A    between atoms: N_36  and  C_37
REMARK    7  A    between atoms: N_36  and  C_38
REMARK                            x       y       z     vdW  Elec       q    Type
REMARK                         _______ _______ _______ _____ _____    ______ ____
ROOT
ATOM      1  C   UNL     1       3.753   5.583   4.893  0.00  0.00    +0.068 C 
ATOM      2  C   UNL     1       3.333   4.866   6.150  0.00  0.00    +0.067 A 
ATOM      3  C   UNL     1       2.820   3.574   6.218  0.00  0.00    +0.035 A 
ATOM      4  C   UNL     1       2.540   3.310   7.528  0.00  0.00    +0.146 A 
ATOM      5  N   UNL     1       2.910   4.378   8.259  0.00  0.00    -0.215 N 
ATOM      6  N   UNL     1       3.389   5.353   7.368  0.00  0.00    -0.169 NA
ATOM      7  N   UNL     1       1.949   2.098   7.899  0.00  0.00    -0.303 N 
ATOM      8  C   UNL     1       2.244   1.249   8.912  0.00  0.00    +0.093 A 
ATOM      9  C   UNL     1       1.454   0.159   8.782  0.00  0.00    +0.020 A 
ATOM     10  C   UNL     1       0.625   0.364   7.658  0.00  0.00    +0.025 A 
ATOM     11  C   UNL     1       0.923   1.573   7.155  0.00  0.00    +0.050 A 
ATOM     12  C   UNL     1       0.294   2.295   5.999  0.00  0.00    +0.155 C 
ATOM     13  N   UNL     1       1.199   2.341   4.827  0.00  0.00    -0.269 N 
ATOM     14  C   UNL     1       2.635   2.564   5.119  0.00  0.00    +0.151 C 
ATOM     15  C   UNL     1       0.743   2.184   3.569  0.00  0.00    +0.303 C 
ATOM     16  O   UNL     1      -0.442   1.998   3.370  0.00  0.00    -0.253 OA
ATOM     17  N   UNL     1       1.601   2.234   2.530  0.00  0.00    -0.296 N 
ATOM     18  H   UNL     1       2.673   2.402   2.710  0.00  0.00    +0.151 HD
ENDROOT
BRANCH   5  19
ATOM     19  C   UNL     1       2.833   4.496   9.654  0.00  0.00    +0.068 A 
ATOM     20  C   UNL     1       1.779   3.911  10.344  0.00  0.00    +0.028 A 
ATOM     21  C   UNL     1       1.708   4.025  11.718  0.00  0.00    +0.002 A 
ATOM     22  C   UNL     1       2.679   4.729  12.407  0.00  0.00    +0.000 A 
ATOM     23  C   UNL     1       3.727   5.316  11.722  0.00  0.00    +0.002 A 
ATOM     24  C   UNL     1       3.806   5.202  10.348  0.00  0.00    +0.028 A 
ENDBRANCH   5  19
BRANCH  12  25
ATOM     25  C   UNL     1      -0.036   3.703   6.422  0.00  0.00    -0.021 A 
ATOM     26  C   UNL     1      -0.525   3.946   7.693  0.00  0.00    +0.007 A 
ATOM     27  C   UNL     1      -0.824   5.236   8.085  0.00  0.00    +0.023 A 
ATOM     28  C   UNL     1      -0.642   6.289   7.198  0.00  0.00    +0.029 A 
ATOM     29  C   UNL     1      -0.156   6.042   5.921  0.00  0.00    +0.023 A 
ATOM     30  C   UNL     1       0.145   4.750   5.537  0.00  0.00    +0.007 A 
BRANCH  28  31
ATOM     31  N   UNL     1      -0.949   7.595   7.590  0.00  0.00    -0.336 N 
ATOM     32  C   UNL     1      -0.757   8.704   6.653  0.00  0.00    +0.129 C 
ATOM     33  C   UNL     1      -1.461   7.854   8.938  0.00  0.00    +0.129 C 
ENDBRANCH  28  31
ENDBRANCH  12  25
BRANCH  17  34
ATOM     34  C   UNL     1       1.106   2.063   1.162  0.00  0.00    +0.074 C 
ATOM     35  C   UNL     1       2.229   1.541   0.243  0.00  0.00    +0.022 C 
ATOM     36  C   UNL     1       2.050   2.243  -1.115  0.00  0.00    +0.002 C 
ATOM     37  C   UNL     1       0.823   3.168  -0.974  0.00  0.00    +0.002 C 
ATOM     38  C   UNL     1       0.720   3.433   0.549  0.00  0.00    +0.022 C 
ENDBRANCH  17  34
TORSDOF 4
