REMARK  Name = ZINC13643671
REMARK  6 active torsions:
REMARK  status: ('A' for Active; 'I' for Inactive)
REMARK    1  A    between atoms: C_1  and  N_2
REMARK    2  A    between atoms: N_2  and  C_3
REMARK    3  A    between atoms: N_2  and  C_4
REMARK    4  A    between atoms: C_7  and  C_10
REMARK    5  A    between atoms: C_20  and  N_27
REMARK    6  A    between atoms: C_23  and  O_26
REMARK                            x       y       z     vdW  Elec       q    Type
REMARK                         _______ _______ _______ _____ _____    ______ ____
ROOT
ATOM      1  C   UNL     1      -0.004  -2.813  -4.924  0.00  0.00    +0.105 C 
ATOM      2  C   UNL     1      -1.392  -3.409  -5.170  0.00  0.00    +0.029 C 
ATOM      3  C   UNL     1      -2.436  -2.268  -5.010  0.00  0.00    +0.033 C 
ATOM      4  C   UNL     1      -2.645  -2.187  -3.510  0.00  0.00    -0.030 C 
ATOM      5  C   UNL     1      -2.285  -3.307  -2.935  0.00  0.00    -0.023 C 
ATOM      6  C   UNL     1      -1.778  -4.291  -3.964  0.00  0.00    +0.051 C 
ATOM      7  C   UNL     1      -0.597  -5.049  -3.434  0.00  0.00    +0.014 A 
ATOM      8  C   UNL     1      -0.823  -6.006  -2.452  0.00  0.00    +0.132 A 
ATOM      9  C   UNL     1       0.221  -6.735  -1.923  0.00  0.00    +0.037 A 
ATOM     10  C   UNL     1       1.513  -6.517  -2.367  0.00  0.00    +0.049 A 
ATOM     11  C   UNL     1       1.750  -5.568  -3.344  0.00  0.00    +0.138 A 
ATOM     12  C   UNL     1       0.692  -4.830  -3.883  0.00  0.00    +0.076 A 
ATOM     13  N   UNL     1       0.986  -3.889  -4.873  0.00  0.00    -0.334 N 
ATOM     14  H   UNL     1       1.837  -3.886  -5.570  0.00  0.00    +0.147 HD
ENDROOT
BRANCH   1  18
ATOM     15  C   UNL     1      -0.000  -0.696  -1.212  0.00  0.00    +0.029 A 
ATOM     16  C   UNL     1       0.519  -1.982  -1.280  0.00  0.00    +0.023 A 
ATOM     17  C   UNL     1       0.512  -2.665  -2.480  0.00  0.00    +0.007 A 
ATOM     18  C   UNL     1      -0.003  -2.066  -3.615  0.00  0.00    -0.027 A 
ATOM     19  C   UNL     1      -0.516  -0.784  -3.552  0.00  0.00    +0.007 A 
ATOM     20  C   UNL     1      -0.516  -0.097  -2.354  0.00  0.00    +0.023 A 
BRANCH  15  22
ATOM     21  C   UNL     1      -0.541   1.356   0.070  0.00  0.00    +0.129 C 
ATOM     22  N   UNL     1       0.002  -0.003   0.002  0.00  0.00    -0.336 N 
ATOM     23  C   UNL     1       0.547  -0.636   1.205  0.00  0.00    +0.129 C 
ENDBRANCH  15  22
ENDBRANCH   1  18
BRANCH   8  24
ATOM     24  N   UNL     1      -2.202  -6.247  -1.970  0.00  0.00    +0.057 N 
ATOM     25  O   UNL     1      -2.408  -7.085  -1.109  0.00  0.00    -0.126 OA
ATOM     26  O   UNL     1      -3.130  -5.608  -2.433  0.00  0.00    -0.126 OA
ENDBRANCH   8  24
BRANCH  11  27
ATOM     27  O   UNL     1       3.019  -5.352  -3.783  0.00  0.00    -0.505 OA
ATOM     28  H   UNL     1       3.211  -4.598  -4.561  0.00  0.00    +0.292 HD
ENDBRANCH  11  27
TORSDOF 4
