REMARK  Name = ZINC17118693
REMARK  9 active torsions:
REMARK  status: ('A' for Active; 'I' for Inactive)
REMARK    1  A    between atoms: C_1  and  C_2
REMARK    2  A    between atoms: C_6  and  O_9
REMARK    3  A    between atoms: C_7  and  C_8
REMARK    4  A    between atoms: O_9  and  C_10
REMARK    5  A    between atoms: C_10  and  C_11
REMARK    6  A    between atoms: N_13  and  N_14
REMARK    7  A    between atoms: C_15  and  C_16
REMARK    8  A    between atoms: C_25  and  O_26
REMARK    9  A    between atoms: O_26  and  C_27
REMARK                            x       y       z     vdW  Elec       q    Type
REMARK                         _______ _______ _______ _____ _____    ______ ____
ROOT
ATOM      1  C   UNL     1      -0.281   9.512   0.232  0.00  0.00    +0.270 C 
ATOM      2  O   UNL     1      -1.339  10.087   0.372  0.00  0.00    -0.270 OA
ATOM      3  N   UNL     1      -0.258   8.176   0.052  0.00  0.00    -0.204 N 
ATOM      4  H   UNL     1       0.581   7.726  -0.133  0.00  0.00    +0.177 HD
ENDROOT
BRANCH   3   5
ATOM      5  N   UNL     1      -1.447   7.439   0.130  0.00  0.00    -0.187 NA
ATOM      6  C   UNL     1      -1.412   6.141   0.061  0.00  0.00    +0.142 C 
BRANCH   6   7
ATOM      7  C   UNL     1      -0.120   5.440   0.048  0.00  0.00    +0.044 A 
ATOM      8  C   UNL     1       0.220   4.523  -1.037  0.00  0.00    -0.006 A 
ATOM      9  C   UNL     1      -0.665   4.282  -2.095  0.00  0.00    +0.009 A 
ATOM     10  C   UNL     1      -0.307   3.423  -3.091  0.00  0.00    +0.001 A 
ATOM     11  C   UNL     1       0.924   2.772  -3.066  0.00  0.00    +0.001 A 
ATOM     12  C   UNL     1       1.809   2.984  -2.052  0.00  0.00    +0.008 A 
ATOM     13  C   UNL     1       1.475   3.867  -1.011  0.00  0.00    -0.017 A 
ATOM     14  C   UNL     1       2.362   4.110   0.052  0.00  0.00    +0.012 A 
ATOM     15  C   UNL     1       2.030   4.966   1.054  0.00  0.00    +0.047 A 
ATOM     16  C   UNL     1       0.806   5.635   1.072  0.00  0.00    +0.129 A 
BRANCH  16  17
ATOM     17  O   UNL     1       0.516   6.482   2.093  0.00  0.00    -0.494 OA
ATOM     18  C   UNL     1       1.548   6.721   3.051  0.00  0.00    +0.277 C 
ENDBRANCH  16  17
ENDBRANCH   6   7
ENDBRANCH   3   5
BRANCH   1  19
ATOM     19  C   UNL     1       1.010  10.290   0.260  0.00  0.00    +0.326 C 
BRANCH  19  20
ATOM     20  O   UNL     1       0.735  11.656   0.579  0.00  0.00    -0.482 OA
BRANCH  20  26
ATOM     21  C   UNL     1       2.477  16.150   1.347  0.00  0.00    +0.044 C 
ATOM     22  C   UNL     1       2.687  14.695   1.016  0.00  0.00    -0.044 A 
ATOM     23  C   UNL     1       3.963  14.217   0.779  0.00  0.00    +0.004 A 
ATOM     24  C   UNL     1       4.159  12.883   0.475  0.00  0.00    +0.004 A 
ATOM     25  C   UNL     1       3.079  12.023   0.407  0.00  0.00    +0.046 A 
ATOM     26  C   UNL     1       1.799  12.499   0.645  0.00  0.00    +0.124 A 
ATOM     27  C   UNL     1       1.604  13.840   0.945  0.00  0.00    -0.006 A 
ATOM     28  C   UNL     1       0.213  14.363   1.197  0.00  0.00    +0.048 C 
ENDBRANCH  20  26
ENDBRANCH  19  20
ENDBRANCH   1  19
TORSDOF 6
