REMARK  Name = ZINC09885007
REMARK  8 active torsions:
REMARK  status: ('A' for Active; 'I' for Inactive)
REMARK    1  A    between atoms: C_1  and  C_2
REMARK    2  A    between atoms: C_2  and  C_4
REMARK    3  A    between atoms: C_2  and  O_14
REMARK    4  A    between atoms: N_6  and  C_7
REMARK    5  A    between atoms: C_8  and  C_12
REMARK    6  A    between atoms: O_14  and  C_15
REMARK    7  A    between atoms: C_15  and  C_17
REMARK    8  A    between atoms: C_21  and  N_23
REMARK                            x       y       z     vdW  Elec       q    Type
REMARK                         _______ _______ _______ _____ _____    ______ ____
ROOT
ATOM      1  C   UNL     1      -0.729   1.579   1.267  0.00  0.00    +0.062 C 
ATOM      2  C   UNL     1      -0.013   1.086   0.008  0.00  0.00    +0.259 C 
ENDROOT
BRANCH   2   3
ATOM      3  C   UNL     1      -0.742   1.585  -1.213  0.00  0.00    +0.258 C 
ATOM      4  O   UNL     1      -0.169   2.295  -2.013  0.00  0.00    -0.271 OA
ATOM      5  N   UNL     1      -2.029   1.243  -1.416  0.00  0.00    -0.276 N 
ATOM      6  H   UNL     1      -2.487   0.676  -0.776  0.00  0.00    +0.155 HD
BRANCH   5   7
ATOM      7  C   UNL     1      -2.701   1.703  -2.540  0.00  0.00    +0.089 A 
ATOM      8  C   UNL     1      -4.013   1.457  -2.922  0.00  0.00    +0.080 A 
ATOM      9  C   UNL     1      -4.458   2.070  -4.150  0.00  0.00    +0.028 A 
ATOM     10  C   UNL     1      -3.564   2.817  -4.823  0.00  0.00    +0.048 A 
ATOM     11  S   UNL     1      -2.102   2.716  -3.811  0.00  0.00    -0.081 S 
BRANCH   8  12
ATOM     12  C   UNL     1      -4.884   0.638  -2.133  0.00  0.00    +0.102 C 
ATOM     13  N   UNL     1      -5.574  -0.012  -1.508  0.00  0.00    -0.191 NA
ENDBRANCH   8  12
ENDBRANCH   5   7
ENDBRANCH   2   3
BRANCH   2  14
ATOM     14  O   UNL     1       1.349   1.588  -0.002  0.00  0.00    -0.449 OA
BRANCH  14  15
ATOM     15  C   UNL     1       2.289   0.822   0.585  0.00  0.00    +0.340 C 
ATOM     16  O   UNL     1       1.978  -0.238   1.091  0.00  0.00    -0.245 OA
BRANCH  15  17
ATOM     17  C   UNL     1       3.696   1.269   0.612  0.00  0.00    +0.061 A 
ATOM     18  C   UNL     1       4.056   2.484   0.025  0.00  0.00    +0.016 A 
ATOM     19  C   UNL     1       5.370   2.902   0.057  0.00  0.00    +0.022 A 
ATOM     20  C   UNL     1       6.337   2.117   0.659  0.00  0.00    +0.062 A 
ATOM     21  C   UNL     1       5.989   0.902   1.242  0.00  0.00    +0.044 A 
ATOM     22  C   UNL     1       4.671   0.476   1.220  0.00  0.00    +0.039 A 
ATOM     23 CL   UNL     1       7.989   2.649   0.688  0.00  0.00    -0.082 Cl
BRANCH  21  24
ATOM     24  N   UNL     1       6.969   0.113   1.850  0.00  0.00    -0.357 N 
ATOM     25  H   UNL     1       6.726  -0.734   2.256  0.00  0.00    +0.142 HD
ATOM     26  H   UNL     1       7.892   0.411   1.865  0.00  0.00    +0.142 HD
ENDBRANCH  21  24
ENDBRANCH  15  17
ENDBRANCH  14  15
ENDBRANCH   2  14
TORSDOF 7
