REMARK  Name = ZINC12986496
REMARK  6 active torsions:
REMARK  status: ('A' for Active; 'I' for Inactive)
REMARK    1  A    between atoms: C_1  and  C_2
REMARK    2  A    between atoms: C_3  and  C_13
REMARK    3  A    between atoms: C_5  and  C_7
REMARK    4  A    between atoms: C_13  and  O_14
REMARK    5  A    between atoms: O_14  and  C_15
REMARK    6  A    between atoms: C_20  and  C_21
REMARK                            x       y       z     vdW  Elec       q    Type
REMARK                         _______ _______ _______ _____ _____    ______ ____
ROOT
ATOM      1  C   UNL     1      -0.487   4.068   0.818  0.00  0.00    +0.288 C 
ENDROOT
BRANCH   1   4
ATOM      2  C   UNL     1      -0.013   1.086   0.008  0.00  0.00    +0.088 C 
ATOM      3  C   UNL     1      -0.718   1.572   1.248  0.00  0.00    +0.129 A 
ATOM      4  C   UNL     1      -0.923   2.855   1.598  0.00  0.00    +0.120 A 
ATOM      5  N   UNL     1      -1.587   2.861   2.764  0.00  0.00    -0.210 NA
ATOM      6  C   UNL     1      -1.786   1.620   3.140  0.00  0.00    +0.228 A 
ATOM      7  O   UNL     1      -1.256   0.802   2.215  0.00  0.00    -0.440 OA
BRANCH   6   8
ATOM      8  C   UNL     1      -2.479   1.193   4.375  0.00  0.00    +0.037 A 
ATOM      9  C   UNL     1      -2.982   2.146   5.261  0.00  0.00    +0.013 A 
ATOM     10  C   UNL     1      -3.632   1.741   6.409  0.00  0.00    +0.001 A 
ATOM     11  C   UNL     1      -3.775   0.394   6.687  0.00  0.00    +0.000 A 
ATOM     12  C   UNL     1      -3.273  -0.556   5.815  0.00  0.00    +0.001 A 
ATOM     13  C   UNL     1      -2.626  -0.165   4.662  0.00  0.00    +0.013 A 
ENDBRANCH   6   8
ENDBRANCH   1   4
BRANCH   1  14
ATOM     14  O   UNL     1      -1.521   4.446  -0.093  0.00  0.00    -0.485 OA
BRANCH  14  15
ATOM     15  C   UNL     1      -1.286   5.528  -0.877  0.00  0.00    +0.133 A 
ATOM     16  C   UNL     1      -0.088   6.219  -0.770  0.00  0.00    +0.046 A 
ATOM     17  C   UNL     1       0.152   7.316  -1.572  0.00  0.00    +0.004 A 
ATOM     18  C   UNL     1      -0.804   7.743  -2.480  0.00  0.00    +0.001 A 
ATOM     19  C   UNL     1      -2.002   7.072  -2.595  0.00  0.00    +0.017 A 
ATOM     20  C   UNL     1      -2.255   5.956  -1.794  0.00  0.00    +0.078 A 
BRANCH  20  21
ATOM     21  C   UNL     1      -3.536   5.234  -1.912  0.00  0.00    +0.245 C 
ATOM     22  O   UNL     1      -3.753   4.263  -1.212  0.00  0.00    -0.270 OA
ATOM     23  N   UNL     1      -4.466   5.649  -2.795  0.00  0.00    -0.325 N 
ATOM     24  H   UNL     1      -4.292   6.423  -3.353  0.00  0.00    +0.145 HD
ATOM     25  H   UNL     1      -5.308   5.174  -2.872  0.00  0.00    +0.145 HD
ENDBRANCH  20  21
ENDBRANCH  14  15
ENDBRANCH   1  14
TORSDOF 5
