REMARK  Name = ZINC03516768
REMARK  4 active torsions:
REMARK  status: ('A' for Active; 'I' for Inactive)
REMARK    1  A    between atoms: C_1  and  C_2
REMARK    2  A    between atoms: N_11  and  C_15
REMARK    3  A    between atoms: C_15  and  C_16
REMARK    4  A    between atoms: N_21  and  C_22
REMARK                            x       y       z     vdW  Elec       q    Type
REMARK                         _______ _______ _______ _____ _____    ______ ____
ROOT
ATOM      1  C   UNL     1      -0.002   1.056   2.507  0.00  0.00    +0.010 C 
ATOM      2  C   UNL     1      -0.730   1.580   1.267  0.00  0.00    +0.018 C 
ATOM      3  C   UNL     1      -0.013   1.086   0.008  0.00  0.00    +0.006 C 
ATOM      4  C   UNL     1      -0.753   1.593  -1.231  0.00  0.00    +0.000 C 
ATOM      5  C   UNL     1      -2.186   1.056  -1.227  0.00  0.00    +0.003 C 
ATOM      6  C   UNL     1      -2.911   1.550   0.027  0.00  0.00    +0.035 C 
ATOM      7  C   UNL     1      -2.167   1.069   1.268  0.00  0.00    +0.115 C 
ATOM      8  C   UNL     1      -2.885   1.517   2.521  0.00  0.00    +0.247 C 
ATOM      9  O   UNL     1      -3.102   2.655   2.875  0.00  0.00    -0.273 OA
ATOM     10  N   UNL     1      -3.233   0.381   3.161  0.00  0.00    -0.215 N 
ATOM     11  C   UNL     1      -2.836  -0.706   2.489  0.00  0.00    +0.310 C 
ATOM     12  O   UNL     1      -3.035  -1.844   2.866  0.00  0.00    -0.252 OA
ATOM     13  N   UNL     1      -2.191  -0.397   1.347  0.00  0.00    -0.285 N 
ATOM     14  H   UNL     1      -1.817  -1.020   0.705  0.00  0.00    +0.151 HD
ENDROOT
BRANCH  10  15
ATOM     15  C   UNL     1      -3.957   0.343   4.434  0.00  0.00    +0.214 C 
BRANCH  15  16
ATOM     16  C   UNL     1      -2.970   0.347   5.573  0.00  0.00    +0.238 C 
ATOM     17  O   UNL     1      -1.780   0.379   5.344  0.00  0.00    -0.274 OA
ATOM     18  N   UNL     1      -3.411   0.316   6.846  0.00  0.00    -0.239 N 
ATOM     19  C   UNL     1      -2.528   0.320   7.865  0.00  0.00    +0.306 C 
ATOM     20  O   UNL     1      -1.335   0.351   7.636  0.00  0.00    -0.252 OA
ATOM     21  N   UNL     1      -2.969   0.288   9.139  0.00  0.00    -0.296 N 
ATOM     22  H   UNL     1      -4.363   0.290   7.030  0.00  0.00    +0.159 HD
ATOM     23  H   UNL     1      -3.921   0.263   9.322  0.00  0.00    +0.151 HD
BRANCH  21  24
ATOM     24  C   UNL     1      -2.010   0.292  10.246  0.00  0.00    +0.074 C 
ATOM     25  C   UNL     1      -1.588  -1.152  10.585  0.00  0.00    +0.022 C 
ATOM     26  C   UNL     1      -1.452  -1.156  12.128  0.00  0.00    +0.002 C 
ATOM     27  C   UNL     1      -2.625  -0.249  12.577  0.00  0.00    +0.002 C 
ATOM     28  C   UNL     1      -2.669   0.867  11.512  0.00  0.00    +0.022 C 
ENDBRANCH  21  24
ENDBRANCH  15  16
ENDBRANCH  10  15
TORSDOF 3
