REMARK  Name = ZINC34757690
REMARK  5 active torsions:
REMARK  status: ('A' for Active; 'I' for Inactive)
REMARK    1  A    between atoms: C_7  and  C_9
REMARK    2  A    between atoms: C_9  and  N_10
REMARK    3  A    between atoms: C_23  and  S_25
REMARK    4  A    between atoms: S_25  and  C_26
REMARK    5  A    between atoms: C_26  and  C_27
REMARK                            x       y       z     vdW  Elec       q    Type
REMARK                         _______ _______ _______ _____ _____    ______ ____
ROOT
ATOM      1  N   UNL     1       4.419  -2.621   1.758  0.00  0.00    +0.387 N 
ATOM      2  C   UNL     1       5.166  -2.181   2.943  0.00  0.00    -0.059 C 
ATOM      3  C   UNL     1       6.550  -2.840   2.947  0.00  0.00    +0.088 C 
ATOM      4  N   UNL     1       6.373  -4.297   2.847  0.00  0.00    -0.318 N 
ATOM      5  C   UNL     1       5.503  -4.818   1.782  0.00  0.00    +0.088 C 
ATOM      6  C   UNL     1       4.168  -4.066   1.833  0.00  0.00    -0.059 C 
ATOM      7  C   UNL     1       7.007  -5.152   3.729  0.00  0.00    +0.134 A 
ATOM      8  C   UNL     1       8.334  -5.597   3.474  0.00  0.00    +0.051 A 
ATOM      9  C   UNL     1       9.204  -5.266   2.332  0.00  0.00    -0.025 A 
ATOM     10  C   UNL     1      10.427  -5.820   2.321  0.00  0.00    -0.004 A 
ATOM     11  S   UNL     1      10.505  -6.801   3.803  0.00  0.00    -0.073 S 
ATOM     12  C   UNL     1       8.884  -6.463   4.435  0.00  0.00    +0.115 A 
ATOM     13  N   UNL     1       8.201  -6.834   5.502  0.00  0.00    -0.214 NA
ATOM     14  C   UNL     1       6.966  -6.388   5.691  0.00  0.00    +0.191 A 
ATOM     15  N   UNL     1       6.390  -5.564   4.824  0.00  0.00    -0.206 NA
ATOM     16  C   UNL     1      11.223  -5.417   1.109  0.00  0.00    +0.043 C 
ATOM     17  C   UNL     1      10.173  -4.861   0.122  0.00  0.00    +0.010 C 
ATOM     18  C   UNL     1       9.060  -4.394   1.081  0.00  0.00    +0.037 C 
ATOM     19  H   UNL     1       4.957  -2.416   0.929  0.00  0.00    -0.081 HD
ENDROOT
BRANCH   1  20
ATOM     20  C   UNL     1       3.137  -1.906   1.697  0.00  0.00    +0.019 C 
BRANCH  20  27
ATOM     21  C   UNL     1       0.317   1.949   0.179  0.00  0.00    +0.003 C 
ATOM     22  C   UNL     1       1.788   2.329  -0.004  0.00  0.00    +0.019 C 
ATOM     23  C   UNL     1       2.588   1.861   1.215  0.00  0.00    +0.107 C 
ATOM     24  N   UNL     1       2.356   0.423   1.410  0.00  0.00    -0.303 N 
ATOM     25  C   UNL     1       0.972  -0.062   1.508  0.00  0.00    +0.107 C 
ATOM     26  C   UNL     1       0.190   0.427   0.285  0.00  0.00    +0.019 C 
ATOM     27  C   UNL     1       3.392  -0.434   1.497  0.00  0.00    +0.199 C 
ATOM     28  O   UNL     1       4.529  -0.022   1.414  0.00  0.00    -0.278 OA
ENDBRANCH  20  27
ENDBRANCH   1  20
BRANCH  14  29
ATOM     29  S   UNL     1       6.075  -6.896   7.124  0.00  0.00    -0.077 S 
BRANCH  29  30
ATOM     30  C   UNL     1       7.232  -7.986   7.997  0.00  0.00    +0.172 C 
BRANCH  30  31
ATOM     31  C   UNL     1       6.586  -8.497   9.259  0.00  0.00    +0.221 C 
ATOM     32  O   UNL     1       5.456  -8.160   9.541  0.00  0.00    -0.275 OA
ATOM     33  N   UNL     1       7.264  -9.330  10.074  0.00  0.00    -0.329 N 
ATOM     34  H   UNL     1       8.168  -9.600   9.848  0.00  0.00    +0.145 HD
ATOM     35  H   UNL     1       6.848  -9.659  10.886  0.00  0.00    +0.145 HD
ENDBRANCH  30  31
ENDBRANCH  29  30
ENDBRANCH  14  29
TORSDOF 5
