REMARK  Name = ZINC09124149
REMARK  9 active torsions:
REMARK  status: ('A' for Active; 'I' for Inactive)
REMARK    1  A    between atoms: C_1  and  C_2
REMARK    2  A    between atoms: C_5  and  C_10
REMARK    3  A    between atoms: C_6  and  O_9
REMARK    4  A    between atoms: C_7  and  C_8
REMARK    5  A    between atoms: C_12  and  C_16
REMARK    6  A    between atoms: N_18  and  C_19
REMARK    7  A    between atoms: C_20  and  C_27
REMARK    8  A    between atoms: N_29  and  C_30
REMARK    9  A    between atoms: C_30  and  C_31
REMARK                            x       y       z     vdW  Elec       q    Type
REMARK                         _______ _______ _______ _____ _____    ______ ____
ROOT
ATOM      1  C   UNL     1      -0.782  -7.636  -1.120  0.00  0.00    +0.269 C 
ATOM      2  O   UNL     1      -1.564  -7.585  -2.050  0.00  0.00    -0.268 OA
ATOM      3  N   UNL     1      -0.365  -8.830  -0.654  0.00  0.00    -0.274 N 
ATOM      4  H   UNL     1       0.259  -8.870   0.087  0.00  0.00    +0.156 HD
ENDROOT
BRANCH   3   5
ATOM      5  C   UNL     1      -0.828  -9.999  -1.234  0.00  0.00    +0.085 A 
ATOM      6  C   UNL     1      -0.517 -11.302  -0.888  0.00  0.00    +0.069 A 
ATOM      7  C   UNL     1      -1.145 -12.370  -1.664  0.00  0.00    -0.023 A 
ATOM      8  C   UNL     1      -1.963 -11.932  -2.638  0.00  0.00    -0.004 A 
ATOM      9  S   UNL     1      -1.900 -10.162  -2.514  0.00  0.00    -0.077 S 
ATOM     10  C   UNL     1      -2.579 -13.069  -3.407  0.00  0.00    +0.043 C 
ATOM     11  C   UNL     1      -1.703 -14.294  -3.060  0.00  0.00    +0.010 C 
ATOM     12  C   UNL     1      -1.139 -13.897  -1.681  0.00  0.00    +0.037 C 
BRANCH   6  13
ATOM     13  C   UNL     1       0.405 -11.599   0.212  0.00  0.00    +0.247 C 
ATOM     14  O   UNL     1      -0.021 -11.736   1.344  0.00  0.00    -0.270 OA
ATOM     15  N   UNL     1       1.726 -11.720  -0.029  0.00  0.00    -0.304 N 
ATOM     16  H   UNL     1       2.066 -11.610  -0.931  0.00  0.00    +0.149 HD
BRANCH  15  17
ATOM     17  C   UNL     1       2.647 -12.017   1.070  0.00  0.00    +0.179 C 
BRANCH  17  18
ATOM     18  C   UNL     1       4.055 -12.100   0.537  0.00  0.00    +0.122 A 
ATOM     19  C   UNL     1       4.922 -11.076   0.443  0.00  0.00    +0.046 A 
ATOM     20  C   UNL     1       6.115 -11.598  -0.107  0.00  0.00    +0.041 A 
ATOM     21  C   UNL     1       5.905 -12.910  -0.317  0.00  0.00    +0.195 A 
ATOM     22  O   UNL     1       4.658 -13.210   0.081  0.00  0.00    -0.466 OA
ENDBRANCH  17  18
ENDBRANCH  15  17
ENDBRANCH   6  13
ENDBRANCH   3   5
BRANCH   1  25
ATOM     23  C   UNL     1       0.061  -4.255  -0.033  0.00  0.00    +0.070 A 
ATOM     24  C   UNL     1      -0.634  -5.073  -0.881  0.00  0.00    +0.062 A 
ATOM     25  C   UNL     1      -0.288  -6.388  -0.502  0.00  0.00    +0.148 A 
ATOM     26  N   UNL     1       0.557  -6.298   0.507  0.00  0.00    -0.169 NA
ATOM     27  N   UNL     1       0.780  -5.066   0.795  0.00  0.00    -0.276 N 
ATOM     28  H   UNL     1       1.371  -4.758   1.499  0.00  0.00    +0.189 HD
BRANCH  23  33
ATOM     29  C   UNL     1      -0.018   1.503   0.010  0.00  0.00    +0.044 C 
ATOM     30  C   UNL     1       0.002  -0.004   0.002  0.00  0.00    -0.044 A 
ATOM     31  C   UNL     1       0.006  -0.686  -1.202  0.00  0.00    +0.004 A 
ATOM     32  C   UNL     1       0.025  -2.066  -1.220  0.00  0.00    +0.014 A 
ATOM     33  C   UNL     1       0.041  -2.776  -0.020  0.00  0.00    +0.041 A 
ATOM     34  C   UNL     1       0.037  -2.083   1.195  0.00  0.00    +0.129 A 
ATOM     35  C   UNL     1       0.023  -0.698   1.197  0.00  0.00    -0.005 A 
ATOM     36  C   UNL     1       0.025   0.053   2.504  0.00  0.00    +0.048 C 
BRANCH  34  37
ATOM     37  O   UNL     1       0.052  -2.767   2.369  0.00  0.00    -0.506 OA
ATOM     38  H   UNL     1       0.939  -2.952   2.705  0.00  0.00    +0.292 HD
ENDBRANCH  34  37
ENDBRANCH  23  33
ENDBRANCH   1  25
TORSDOF 7
