REMARK  Name = ZINC39464586
REMARK  6 active torsions:
REMARK  status: ('A' for Active; 'I' for Inactive)
REMARK    1  A    between atoms: C_1  and  O_2
REMARK    2  A    between atoms: O_2  and  P_3
REMARK    3  A    between atoms: C_11  and  C_26
REMARK    4  A    between atoms: C_12  and  C_19
REMARK    5  A    between atoms: C_19  and  C_20
REMARK    6  A    between atoms: C_31  and  O_32
REMARK                            x       y       z     vdW  Elec       q    Type
REMARK                         _______ _______ _______ _____ _____    ______ ____
ROOT
ATOM      1  P   UNL     1       0.700  -0.878   1.160  0.00  0.00    +0.421 P 
ATOM      2  O   UNL     1       2.009  -0.290   1.524  0.00  0.00    -0.239 OA
ATOM      3  N   UNL     1      -0.283  -0.957   2.487  0.00  0.00    -0.156 NA
ATOM      4  N   UNL     1      -0.060  -2.001   3.358  0.00  0.00    -0.224 NA
ATOM      5  C   UNL     1      -1.024  -1.939   4.467  0.00  0.00    +0.108 C 
ATOM      6  C   UNL     1      -0.558  -2.882   5.576  0.00  0.00    +0.052 C 
ATOM      7  C   UNL     1      -0.289  -4.249   5.000  0.00  0.00    -0.041 A 
ATOM      8  C   UNL     1      -0.241  -5.331   5.862  0.00  0.00    +0.013 A 
ATOM      9  C   UNL     1       0.005  -6.609   5.370  0.00  0.00    -0.011 A 
ATOM     10  C   UNL     1       0.203  -6.792   4.003  0.00  0.00    -0.035 A 
ATOM     11  C   UNL     1       0.154  -5.709   3.153  0.00  0.00    +0.010 A 
ATOM     12  C   UNL     1      -0.092  -4.434   3.647  0.00  0.00    -0.023 A 
ATOM     13  C   UNL     1      -0.136  -3.289   2.669  0.00  0.00    +0.130 C 
ATOM     14  C   UNL     1       1.011  -3.445   1.666  0.00  0.00    +0.196 C 
ATOM     15  O   UNL     1       0.893  -2.415   0.665  0.00  0.00    -0.294 OA
ATOM     16  H   UNL     1      -0.981  -0.302   2.644  0.00  0.00    +0.153 HD
ENDROOT
BRANCH   9  17
ATOM     17  C   UNL     1       0.057  -7.768   6.294  0.00  0.00    +0.024 A 
ATOM     18  C   UNL     1      -1.086  -8.164   6.985  0.00  0.00    +0.012 A 
ATOM     19  C   UNL     1      -1.033  -9.243   7.843  0.00  0.00    +0.001 A 
ATOM     20  C   UNL     1       0.152  -9.935   8.021  0.00  0.00    +0.004 A 
ATOM     21  C   UNL     1       1.292  -9.551   7.341  0.00  0.00    +0.046 A 
ATOM     22  C   UNL     1       1.252  -8.472   6.472  0.00  0.00    +0.125 A 
BRANCH  22  23
ATOM     23  O   UNL     1       2.370  -8.097   5.799  0.00  0.00    -0.506 OA
ATOM     24  H   UNL     1       2.913  -7.449   6.268  0.00  0.00    +0.292 HD
ENDBRANCH  22  23
ENDBRANCH   9  17
BRANCH   1  26
ATOM     25  C   UNL     1      -0.017   1.425   0.010  0.00  0.00    +0.206 C 
ATOM     26  O   UNL     1       0.002  -0.004   0.002  0.00  0.00    -0.299 OA
ENDBRANCH   1  26
BRANCH  10  27
ATOM     27  C   UNL     1       0.470  -8.171   3.455  0.00  0.00    +0.070 C 
BRANCH  27  28
ATOM     28  C   UNL     1      -0.839  -8.877   3.213  0.00  0.00    -0.043 A 
ATOM     29  C   UNL     1      -1.413  -9.633   4.217  0.00  0.00    +0.004 A 
ATOM     30  C   UNL     1      -2.614 -10.280   3.995  0.00  0.00    +0.000 A 
ATOM     31  C   UNL     1      -3.241 -10.171   2.768  0.00  0.00    +0.000 A 
ATOM     32  C   UNL     1      -2.668  -9.415   1.763  0.00  0.00    +0.000 A 
ATOM     33  C   UNL     1      -1.469  -8.763   1.987  0.00  0.00    +0.004 A 
ENDBRANCH  27  28
ENDBRANCH  10  27
TORSDOF 5
