REMARK  Name = ZINC66713829
REMARK  12 active torsions:
REMARK  status: ('A' for Active; 'I' for Inactive)
REMARK    1  A    between atoms: C_1  and  C_2
REMARK    2  A    between atoms: C_5  and  N_11
REMARK    3  A    between atoms: C_7  and  C_8
REMARK    4  A    between atoms: C_12  and  C_14
REMARK    5  A    between atoms: C_14  and  C_15
REMARK    6  A    between atoms: C_14  and  C_16
REMARK    7  A    between atoms: C_14  and  N_17
REMARK    8  A    between atoms: C_18  and  O_20
REMARK    9  A    between atoms: O_20  and  C_21
REMARK   10  A    between atoms: C_21  and  C_22
REMARK   11  A    between atoms: C_21  and  C_23
REMARK   12  A    between atoms: C_21  and  C_24
REMARK                            x       y       z     vdW  Elec       q    Type
REMARK                         _______ _______ _______ _____ _____    ______ ____
ROOT
ATOM      1  N   UNL     1       0.332  -4.127   0.468  0.00  0.00    -0.284 N 
ATOM      2  C   UNL     1       0.292  -4.992  -0.565  0.00  0.00    +0.240 C 
ATOM      3  O   UNL     1       0.031  -4.593  -1.680  0.00  0.00    -0.273 OA
ATOM      4  H   UNL     1       0.467  -4.455   1.371  0.00  0.00    +0.155 HD
ENDROOT
BRANCH   1   9
ATOM      5  C   UNL     1      -0.275   1.441  -0.495  0.00  0.00    +0.044 C 
ATOM      6  C   UNL     1      -0.115  -0.035  -0.236  0.00  0.00    -0.038 A 
ATOM      7  C   UNL     1       0.524  -0.833  -1.164  0.00  0.00    +0.006 A 
ATOM      8  C   UNL     1       0.673  -2.187  -0.931  0.00  0.00    +0.023 A 
ATOM      9  C   UNL     1       0.180  -2.755   0.238  0.00  0.00    +0.034 A 
ATOM     10  C   UNL     1      -0.464  -1.962   1.175  0.00  0.00    +0.036 A 
ATOM     11  C   UNL     1      -0.609  -0.594   0.943  0.00  0.00    +0.041 A 
BRANCH  11  12
ATOM     12  C   UNL     1      -1.289   0.259   1.941  0.00  0.00    +0.242 C 
ATOM     13  O   UNL     1      -1.312   1.466   1.794  0.00  0.00    -0.270 OA
ATOM     14  N   UNL     1      -1.882  -0.300   3.014  0.00  0.00    -0.325 N 
ATOM     15  H   UNL     1      -1.863  -1.263   3.132  0.00  0.00    +0.145 HD
ATOM     16  H   UNL     1      -2.328   0.260   3.669  0.00  0.00    +0.145 HD
ENDBRANCH  11  12
ENDBRANCH   1   9
BRANCH   2  17
ATOM     17  C   UNL     1       0.573  -6.455  -0.334  0.00  0.00    +0.108 C 
ATOM     18  C   UNL     1      -0.712  -7.156   0.113  0.00  0.00    +0.041 C 
ATOM     19  C   UNL     1       1.075  -7.089  -1.632  0.00  0.00    +0.041 C 
BRANCH  17  20
ATOM     20  N   UNL     1       1.594  -6.598   0.707  0.00  0.00    -0.268 N 
ATOM     21  C   UNL     1       2.006  -7.824   1.082  0.00  0.00    +0.402 C 
ATOM     22  O   UNL     1       1.531  -8.812   0.558  0.00  0.00    -0.226 OA
ATOM     23  H   UNL     1       1.974  -5.809   1.126  0.00  0.00    +0.153 HD
BRANCH  21  24
ATOM     24  O   UNL     1       2.945  -7.956   2.038  0.00  0.00    -0.445 OA
BRANCH  24  25
ATOM     25  C   UNL     1       3.335  -9.286   2.387  0.00  0.00    +0.107 C 
ATOM     26  C   UNL     1       3.903  -9.990   1.153  0.00  0.00    +0.055 C 
ATOM     27  C   UNL     1       4.402  -9.235   3.482  0.00  0.00    +0.055 C 
ATOM     28  C   UNL     1       2.116 -10.057   2.898  0.00  0.00    +0.055 C 
ENDBRANCH  24  25
ENDBRANCH  21  24
ENDBRANCH  17  20
ENDBRANCH   2  17
TORSDOF 6
