REMARK  Name = ZINC04227423
REMARK  8 active torsions:
REMARK  status: ('A' for Active; 'I' for Inactive)
REMARK    1  A    between atoms: C_1  and  C_2
REMARK    2  A    between atoms: C_5  and  C_16
REMARK    3  A    between atoms: C_6  and  O_8
REMARK    4  A    between atoms: O_8  and  C_9
REMARK    5  A    between atoms: C_9  and  C_10
REMARK    6  A    between atoms: C_16  and  C_17
REMARK    7  A    between atoms: C_16  and  C_18
REMARK    8  A    between atoms: C_16  and  C_19
REMARK                            x       y       z     vdW  Elec       q    Type
REMARK                         _______ _______ _______ _____ _____    ______ ____
ROOT
ATOM      1  C   UNL     1       3.677   2.181  -0.023  0.00  0.00    +0.044 C 
ATOM      2  C   UNL     1       2.380   1.413  -0.013  0.00  0.00    -0.047 A 
ATOM      3  C   UNL     1       2.396   0.030  -0.021  0.00  0.00    +0.004 A 
ATOM      4  C   UNL     1       1.208  -0.677  -0.013  0.00  0.00    +0.008 A 
ATOM      5  C   UNL     1       0.002  -0.004   0.002  0.00  0.00    -0.000 A 
ATOM      6  C   UNL     1      -0.017   1.383   0.010  0.00  0.00    +0.125 A 
ATOM      7  C   UNL     1       1.177   2.091   0.002  0.00  0.00    +0.049 A 
ENDROOT
BRANCH   5   8
ATOM      8  C   UNL     1      -1.292  -0.776   0.010  0.00  0.00    -0.009 C 
ATOM      9  C   UNL     1      -0.992  -2.276  -0.001  0.00  0.00    +0.015 C 
ATOM     10  C   UNL     1      -2.088  -0.424   1.268  0.00  0.00    +0.015 C 
ATOM     11  C   UNL     1      -2.111  -0.411  -1.230  0.00  0.00    +0.015 C 
ENDBRANCH   5   8
BRANCH   6  12
ATOM     12  O   UNL     1      -1.202   2.047   0.019  0.00  0.00    -0.485 OA
BRANCH  12  13
ATOM     13  C   UNL     1      -1.145   3.475   0.026  0.00  0.00    +0.293 C 
BRANCH  13  14
ATOM     14  C   UNL     1      -2.545   4.034   0.036  0.00  0.00    +0.141 A 
ATOM     15  N   UNL     1      -3.326   4.342   1.051  0.00  0.00    -0.141 NA
ATOM     16  N   UNL     1      -4.488   4.807   0.888  0.00  0.00    -0.126 NA
ATOM     17  C   UNL     1      -4.995   5.013  -0.320  0.00  0.00    +0.179 A 
ATOM     18  S   UNL     1      -3.617   4.474  -1.328  0.00  0.00    -0.033 S 
ATOM     19  N   UNL     1      -6.235   5.510  -0.694  0.00  0.00    -0.336 N 
ATOM     20  H   UNL     1      -6.880   5.765  -0.016  0.00  0.00    +0.144 HD
ATOM     21  H   UNL     1      -6.457   5.602  -1.634  0.00  0.00    +0.144 HD
ENDBRANCH  13  14
ENDBRANCH  12  13
ENDBRANCH   6  12
TORSDOF 4
