REMARK  Name = ZINC11712521
REMARK  6 active torsions:
REMARK  status: ('A' for Active; 'I' for Inactive)
REMARK    1  A    between atoms: C_1  and  N_2
REMARK    2  A    between atoms: N_2  and  C_3
REMARK    3  A    between atoms: N_2  and  C_22
REMARK    4  A    between atoms: C_4  and  C_8
REMARK    5  A    between atoms: C_8  and  N_9
REMARK    6  A    between atoms: C_10  and  C_12
REMARK                            x       y       z     vdW  Elec       q    Type
REMARK                         _______ _______ _______ _____ _____    ______ ____
ROOT
ATOM      1  C   UNL     1      -6.669   3.723  -1.542  0.00  0.00    +0.143 C 
ENDROOT
BRANCH   1   3
ATOM      2  C   UNL     1      -6.902   5.841  -2.881  0.00  0.00    +0.103 A 
ATOM      3  C   UNL     1      -6.821   5.219  -1.639  0.00  0.00    +0.008 A 
ATOM      4  C   UNL     1      -6.877   5.994  -0.495  0.00  0.00    +0.010 A 
ATOM      5  C   UNL     1      -7.017   7.369  -0.631  0.00  0.00    +0.018 A 
ATOM      6  C   UNL     1      -7.097   7.918  -1.895  0.00  0.00    +0.084 A 
ATOM      7  N   UNL     1      -7.046   7.188  -3.041  0.00  0.00    -0.349 N 
ATOM      8  H   UNL     1      -7.112   7.623  -3.969  0.00  0.00    +0.167 HD
BRANCH   2  10
ATOM      9  C   UNL     1      -7.976   5.370  -4.926  0.00  0.00    +0.131 C 
ATOM     10  N   UNL     1      -6.842   5.075  -4.040  0.00  0.00    -0.316 N 
BRANCH  10  11
ATOM     11  C   UNL     1      -5.564   5.274  -4.737  0.00  0.00    +0.074 C 
ATOM     12  C   UNL     1      -5.470   6.721  -5.225  0.00  0.00    +0.022 C 
ATOM     13  C   UNL     1      -4.139   6.929  -5.951  0.00  0.00    +0.002 C 
ATOM     14  C   UNL     1      -4.058   5.980  -7.149  0.00  0.00    +0.000 C 
ATOM     15  C   UNL     1      -4.153   4.533  -6.661  0.00  0.00    +0.002 C 
ATOM     16  C   UNL     1      -5.484   4.326  -5.935  0.00  0.00    +0.022 C 
ENDBRANCH  10  11
ENDBRANCH   2  10
ENDBRANCH   1   3
BRANCH   1  17
ATOM     17  N   UNL     1      -5.303   3.346  -1.911  0.00  0.00    -0.311 N 
ATOM     18  C   UNL     1      -4.934   2.050  -1.898  0.00  0.00    +0.218 C 
ATOM     19  O   UNL     1      -5.733   1.196  -1.579  0.00  0.00    -0.275 OA
ATOM     20  H   UNL     1      -4.663   4.030  -2.166  0.00  0.00    +0.149 HD
BRANCH  18  21
ATOM     21  C   UNL     1      -3.528   1.662  -2.278  0.00  0.00    +0.092 C 
ATOM     22  C   UNL     1      -3.372   0.143  -2.175  0.00  0.00    +0.016 C 
ATOM     23  C   UNL     1      -1.954  -0.254  -2.592  0.00  0.00    +0.020 C 
ATOM     24  C   UNL     1      -0.946   0.401  -1.650  0.00  0.00    +0.109 C 
ATOM     25  N   UNL     1      -1.184   1.850  -1.627  0.00  0.00    -0.285 N 
ATOM     26  C   UNL     1      -2.536   2.339  -1.326  0.00  0.00    +0.122 C 
ATOM     27  C   UNL     1      -0.182   2.715  -1.882  0.00  0.00    +0.300 C 
ATOM     28  O   UNL     1      -0.371   3.912  -1.780  0.00  0.00    -0.253 OA
ATOM     29  N   UNL     1       1.030   2.253  -2.250  0.00  0.00    -0.313 N 
ATOM     30  H   UNL     1       1.200   1.298  -2.267  0.00  0.00    +0.146 HD
ATOM     31  H   UNL     1       1.730   2.875  -2.501  0.00  0.00    +0.146 HD
ENDBRANCH  18  21
ENDBRANCH   1  17
TORSDOF 5
