REMARK  Name = ZINC01466019
REMARK  6 active torsions:
REMARK  status: ('A' for Active; 'I' for Inactive)
REMARK    1  A    between atoms: C_1  and  C_2
REMARK    2  A    between atoms: C_6  and  C_9
REMARK    3  A    between atoms: N_17  and  N_18
REMARK    4  A    between atoms: C_19  and  C_20
REMARK    5  A    between atoms: C_23  and  O_27
REMARK    6  A    between atoms: C_25  and  O_26
REMARK                            x       y       z     vdW  Elec       q    Type
REMARK                         _______ _______ _______ _____ _____    ______ ____
ROOT
ATOM      1  C   UNL     1      -0.878  -4.822   0.116  0.00  0.00    +0.088 C 
ATOM      2  C   UNL     1      -2.256  -4.212   0.108  0.00  0.00    +0.133 A 
ATOM      3  N   UNL     1      -3.304  -4.991   0.160  0.00  0.00    -0.225 NA
ATOM      4  C   UNL     1      -4.534  -4.486   0.148  0.00  0.00    +0.116 A 
ATOM      5  C   UNL     1      -4.769  -3.102   0.086  0.00  0.00    +0.082 A 
ATOM      6  C   UNL     1      -6.174  -2.713   0.082  0.00  0.00    +0.004 A 
ATOM      7  C   UNL     1      -7.119  -3.683   0.137  0.00  0.00    +0.056 A 
ATOM      8  S   UNL     1      -6.163  -5.187   0.198  0.00  0.00    -0.076 S 
ATOM      9  C   UNL     1      -3.601  -2.277   0.036  0.00  0.00    +0.283 A 
ATOM     10  O   UNL     1      -3.703  -1.063  -0.020  0.00  0.00    -0.265 OA
ATOM     11  N   UNL     1      -2.388  -2.861   0.051  0.00  0.00    -0.182 N 
ENDROOT
BRANCH   6  12
ATOM     12  C   UNL     1      -6.562  -1.284   0.019  0.00  0.00    -0.017 A 
ATOM     13  C   UNL     1      -5.992  -0.365   0.899  0.00  0.00    +0.008 A 
ATOM     14  C   UNL     1      -6.352   0.965   0.832  0.00  0.00    +0.001 A 
ATOM     15  C   UNL     1      -7.286   1.386  -0.099  0.00  0.00    +0.000 A 
ATOM     16  C   UNL     1      -7.859   0.477  -0.970  0.00  0.00    +0.001 A 
ATOM     17  C   UNL     1      -7.502  -0.855  -0.917  0.00  0.00    +0.008 A 
ENDBRANCH   6  12
BRANCH  11  18
ATOM     18  N   UNL     1      -1.240  -2.059   0.002  0.00  0.00    -0.170 NA
ATOM     19  C   UNL     1      -0.957  -1.268   0.994  0.00  0.00    +0.145 C 
BRANCH  19  20
ATOM     20  C   UNL     1       0.184  -0.344   0.895  0.00  0.00    +0.036 A 
ATOM     21  C   UNL     1       0.491   0.508   1.960  0.00  0.00    +0.016 A 
ATOM     22  C   UNL     1       1.560   1.371   1.863  0.00  0.00    +0.046 A 
ATOM     23  C   UNL     1       2.336   1.398   0.710  0.00  0.00    +0.120 A 
ATOM     24  C   UNL     1       2.040   0.557  -0.352  0.00  0.00    +0.091 A 
ATOM     25  C   UNL     1       0.969  -0.315  -0.268  0.00  0.00    +0.129 A 
BRANCH  25  26
ATOM     26  O   UNL     1       0.678  -1.139  -1.307  0.00  0.00    -0.506 OA
ATOM     27  H   UNL     1       0.063  -0.760  -1.950  0.00  0.00    +0.292 HD
ENDBRANCH  25  26
BRANCH  23  28
ATOM     28  O   UNL     1       3.388   2.253   0.623  0.00  0.00    -0.507 OA
ATOM     29  H   UNL     1       3.162   3.119   0.255  0.00  0.00    +0.292 HD
ENDBRANCH  23  28
ENDBRANCH  19  20
ENDBRANCH  11  18
TORSDOF 5
