REMARK  Name = ZINC38828210
REMARK  5 active torsions:
REMARK  status: ('A' for Active; 'I' for Inactive)
REMARK    1  A    between atoms: C_1  and  C_2
REMARK    2  A    between atoms: C_5  and  N_9
REMARK    3  A    between atoms: C_10  and  C_12
REMARK    4  A    between atoms: C_27  and  C_35
REMARK    5  A    between atoms: C_32  and  C_34
REMARK                            x       y       z     vdW  Elec       q    Type
REMARK                         _______ _______ _______ _____ _____    ______ ____
ROOT
ATOM      1  C   UNL     1      -0.013  -6.346  -1.013  0.00  0.00    +0.122 C 
ATOM      2  C   UNL     1      -1.296  -6.790  -0.309  0.00  0.00    +0.114 C 
ATOM      3  C   UNL     1      -1.479  -8.276  -0.480  0.00  0.00    +0.219 C 
ATOM      4  O   UNL     1      -1.935  -8.933   0.431  0.00  0.00    -0.275 OA
ATOM      5  N   UNL     1      -1.142  -8.880  -1.632  0.00  0.00    -0.270 N 
ATOM      6  C   UNL     1      -0.523  -8.176  -2.650  0.00  0.00    +0.138 A 
ATOM      7  C   UNL     1       0.032  -6.934  -2.398  0.00  0.00    +0.069 A 
ATOM      8  C   UNL     1       0.633  -6.231  -3.446  0.00  0.00    +0.258 A 
ATOM      9  O   UNL     1       1.121  -5.128  -3.259  0.00  0.00    -0.267 OA
ATOM     10  N   UNL     1       0.664  -6.799  -4.672  0.00  0.00    -0.295 N 
ATOM     11  H   UNL     1       1.063  -6.322  -5.417  0.00  0.00    +0.172 HD
ATOM     12  C   UNL     1       0.136  -8.038  -4.862  0.00  0.00    +0.200 A 
ATOM     13  N   UNL     1      -0.433  -8.701  -3.877  0.00  0.00    -0.200 NA
ATOM     14  N   UNL     1       0.198  -8.609  -6.105  0.00  0.00    -0.295 N 
ATOM     15  C   UNL     1      -0.927  -8.487  -7.042  0.00  0.00    +0.073 C 
ATOM     16  C   UNL     1      -1.332  -9.888  -7.512  0.00  0.00    +0.022 C 
ATOM     17  C   UNL     1      -0.107 -10.601  -8.090  0.00  0.00    +0.004 C 
ATOM     18  C   UNL     1       0.961 -10.745  -7.003  0.00  0.00    +0.022 C 
ATOM     19  C   UNL     1       1.394  -9.349  -6.530  0.00  0.00    +0.073 C 
ATOM     20  C   UNL     1       2.360  -9.482  -5.351  0.00  0.00    +0.028 C 
ATOM     21  C   UNL     1      -2.110  -7.818  -6.339  0.00  0.00    +0.028 C 
ATOM     22  H   UNL     1      -1.335  -9.823  -1.752  0.00  0.00    +0.156 HD
ENDROOT
BRANCH   1  24
ATOM     23  N   UNL     1       1.066  -4.156  -0.613  0.00  0.00    -0.283 N 
ATOM     24  C   UNL     1       0.015  -4.842  -1.105  0.00  0.00    +0.225 C 
ATOM     25  O   UNL     1      -0.908  -4.249  -1.621  0.00  0.00    -0.275 OA
ATOM     26  H   UNL     1       1.840  -4.632  -0.273  0.00  0.00    +0.155 HD
BRANCH  23  31
ATOM     27  C   UNL     1       0.961   1.518  -0.529  0.00  0.00    +0.044 C 
ATOM     28  C   UNL     1       0.990   0.011  -0.552  0.00  0.00    -0.048 A 
ATOM     29  C   UNL     1      -0.195  -0.701  -0.554  0.00  0.00    +0.005 A 
ATOM     30  C   UNL     1      -0.173  -2.082  -0.574  0.00  0.00    +0.026 A 
ATOM     31  C   UNL     1       1.040  -2.756  -0.593  0.00  0.00    +0.069 A 
ATOM     32  C   UNL     1       2.231  -2.037  -0.591  0.00  0.00    +0.145 A 
ATOM     33  C   UNL     1       2.201  -0.655  -0.576  0.00  0.00    +0.043 A 
ATOM     34  F   UNL     1       3.414  -2.688  -0.609  0.00  0.00    -0.204 F 
ENDBRANCH  23  31
ENDBRANCH   1  24
TORSDOF 2
