REMARK  Name = ZINC61665725
REMARK  7 active torsions:
REMARK  status: ('A' for Active; 'I' for Inactive)
REMARK    1  A    between atoms: C_1  and  C_2
REMARK    2  A    between atoms: C_2  and  C_3
REMARK    3  A    between atoms: C_3  and  C_4
REMARK    4  A    between atoms: C_3  and  C_5
REMARK    5  A    between atoms: C_3  and  N_16
REMARK    6  A    between atoms: C_7  and  C_10
REMARK    7  A    between atoms: N_14  and  C_15
REMARK                            x       y       z     vdW  Elec       q    Type
REMARK                         _______ _______ _______ _____ _____    ______ ____
ROOT
ATOM      1  C   UNL     1      -1.413  -2.041   0.005  0.00  0.00    +0.161 A 
ATOM      2  N   UNL     1      -2.486  -2.828  -0.089  0.00  0.00    -0.192 NA
ATOM      3  C   UNL     1      -2.119  -4.092  -0.068  0.00  0.00    +0.276 A 
ATOM      4  O   UNL     1      -0.779  -4.133   0.043  0.00  0.00    -0.331 OA
ATOM      5  N   UNL     1      -0.344  -2.782   0.083  0.00  0.00    -0.062 NA
ENDROOT
BRANCH   3   6
ATOM      6  C   UNL     1      -3.017  -5.255  -0.150  0.00  0.00    +0.126 A 
ATOM      7  C   UNL     1      -4.391  -5.224  -0.269  0.00  0.00    +0.054 A 
ATOM      8  C   UNL     1      -4.842  -6.542  -0.313  0.00  0.00    +0.135 A 
ATOM      9  N   UNL     1      -3.810  -7.343  -0.227  0.00  0.00    -0.179 NA
ATOM     10  N   UNL     1      -2.646  -6.570  -0.128  0.00  0.00    -0.262 N 
ATOM     11  C   UNL     1      -1.277  -7.080  -0.019  0.00  0.00    +0.173 C 
ENDBRANCH   3   6
BRANCH   1  12
ATOM     12  C   UNL     1      -1.433  -0.534   0.013  0.00  0.00    -0.009 C 
ATOM     13  C   UNL     1      -2.149  -0.040   1.272  0.00  0.00    -0.003 C 
BRANCH  12  14
ATOM     14  N   UNL     1      -2.144  -0.047  -1.177  0.00  0.00    +0.386 N 
ATOM     15  H   UNL     1      -1.671  -0.372  -2.007  0.00  0.00    -0.089 HD
ATOM     16  H   UNL     1      -3.090  -0.396  -1.170  0.00  0.00    -0.089 HD
ATOM     17  H   UNL     1      -2.158   0.962  -1.172  0.00  0.00    -0.089 HD
ENDBRANCH  12  14
BRANCH  12  19
ATOM     18  C   UNL     1      -0.019   1.526   0.010  0.00  0.00    +0.003 C 
ATOM     19  C   UNL     1       0.002  -0.004   0.002  0.00  0.00    -0.009 C 
ENDBRANCH  12  19
ENDBRANCH   1  12
TORSDOF 4
