REMARK  Name = ZINC08848444
REMARK  10 active torsions:
REMARK  status: ('A' for Active; 'I' for Inactive)
REMARK    1  A    between atoms: C_1  and  C_2
REMARK    2  A    between atoms: C_2  and  C_3
REMARK    3  A    between atoms: C_3  and  C_4
REMARK    4  A    between atoms: C_4  and  N_5
REMARK    5  A    between atoms: C_6  and  N_29
REMARK    6  A    between atoms: C_7  and  N_14
REMARK    7  A    between atoms: N_14  and  C_15
REMARK    8  A    between atoms: N_14  and  C_16
REMARK    9  A    between atoms: C_16  and  N_18
REMARK   10  A    between atoms: N_18  and  C_19
REMARK                            x       y       z     vdW  Elec       q    Type
REMARK                         _______ _______ _______ _____ _____    ______ ____
ROOT
ATOM      1  N   UNL     1       0.509   0.425  -0.926  0.00  0.00    -0.280 N 
ATOM      2  C   UNL     1       1.619   1.230  -1.044  0.00  0.00    +0.127 A 
ATOM      3  C   UNL     1       2.467   1.370   0.035  0.00  0.00    +0.139 A 
ATOM      4  C   UNL     1       2.171   0.682   1.226  0.00  0.00    +0.277 A 
ATOM      5  O   UNL     1       2.904   0.787   2.194  0.00  0.00    -0.266 OA
ATOM      6  N   UNL     1       1.071  -0.095   1.289  0.00  0.00    -0.273 N 
ATOM      7  H   UNL     1       0.860  -0.584   2.135  0.00  0.00    +0.173 HD
ATOM      8  C   UNL     1       0.255  -0.219   0.227  0.00  0.00    +0.331 A 
ATOM      9  O   UNL     1      -0.731  -0.925   0.312  0.00  0.00    -0.246 OA
ENDROOT
BRANCH   2  10
ATOM     10  N   UNL     1       1.878   1.889  -2.223  0.00  0.00    -0.343 N 
ATOM     11  H   UNL     1       1.232   1.862  -2.945  0.00  0.00    +0.144 HD
ATOM     12  H   UNL     1       2.708   2.380  -2.332  0.00  0.00    +0.144 HD
ENDBRANCH   2  10
BRANCH   3  13
ATOM     13  N   UNL     1       3.614   2.188  -0.055  0.00  0.00    -0.279 N 
ATOM     14  C   UNL     1       3.469   3.638  -0.210  0.00  0.00    +0.137 C 
BRANCH  13  15
ATOM     15  C   UNL     1       4.842   1.636   0.001  0.00  0.00    +0.137 C 
ATOM     16  S   UNL     1       5.014  -0.066   0.059  0.00  0.00    -0.018 S 
BRANCH  15  17
ATOM     17  N   UNL     1       5.936   2.425   0.012  0.00  0.00    -0.323 N 
ATOM     18  H   UNL     1       5.838   3.389  -0.021  0.00  0.00    +0.148 HD
BRANCH  17  19
ATOM     19  C   UNL     1       7.271   1.825   0.073  0.00  0.00    +0.075 C 
ATOM     20  C   UNL     1       8.326   2.798  -0.500  0.00  0.00    +0.026 C 
ATOM     21  C   UNL     1       9.276   3.100   0.699  0.00  0.00    -0.009 C 
ATOM     22  C   UNL     1       8.425   3.950   1.692  0.00  0.00    +0.004 C 
ATOM     23  C   UNL     1       7.382   2.961   2.259  0.00  0.00    +0.005 C 
ATOM     24  C   UNL     1       7.701   1.606   1.556  0.00  0.00    +0.010 C 
ATOM     25  C   UNL     1       9.262   1.686   1.420  0.00  0.00    +0.009 C 
ENDBRANCH  17  19
ENDBRANCH  15  17
ENDBRANCH  13  15
ENDBRANCH   3  13
BRANCH   1  26
ATOM     26  C   UNL     1      -0.397   0.263  -2.066  0.00  0.00    +0.128 C 
BRANCH  26  27
ATOM     27  C   UNL     1      -1.489   1.333  -2.004  0.00  0.00    +0.021 C 
BRANCH  27  29
ATOM     28  C   UNL     1      -3.528   2.234  -3.133  0.00  0.00    +0.004 C 
ATOM     29  C   UNL     1      -2.436   1.164  -3.194  0.00  0.00    -0.002 C 
ENDBRANCH  27  29
ENDBRANCH  26  27
ENDBRANCH   1  26
TORSDOF 8
