REMARK  Name = ZINC52017738
REMARK  3 active torsions:
REMARK  status: ('A' for Active; 'I' for Inactive)
REMARK    1  A    between atoms: C_9  and  O_11
REMARK    2  A    between atoms: O_11  and  C_12
REMARK    3  A    between atoms: C_17  and  N_18
REMARK                            x       y       z     vdW  Elec       q    Type
REMARK                         _______ _______ _______ _____ _____    ______ ____
ROOT
ATOM      1  O   UNL     1       4.825  -2.549  -0.055  0.00  0.00    -0.435 OA
ENDROOT
BRANCH   1  10
ATOM      2  C   UNL     1       0.018   1.369   0.439  0.00  0.00    +0.002 A 
ATOM      3  C   UNL     1       1.207   2.095   0.430  0.00  0.00    +0.002 A 
ATOM      4  C   UNL     1       2.410   1.466   0.329  0.00  0.00    +0.030 A 
ATOM      5  C   UNL     1       2.459   0.065   0.233  0.00  0.00    +0.093 A 
ATOM      6  C   UNL     1       1.250  -0.673   0.242  0.00  0.00    +0.089 A 
ATOM      7  C   UNL     1       0.026   0.011   0.347  0.00  0.00    +0.030 A 
ATOM      8  N   UNL     1       1.287  -2.008   0.151  0.00  0.00    -0.248 NA
ATOM      9  C   UNL     1       2.442  -2.623   0.054  0.00  0.00    +0.179 A 
ATOM     10  C   UNL     1       3.642  -1.894   0.045  0.00  0.00    +0.239 A 
ATOM     11  N   UNL     1       3.628  -0.579   0.133  0.00  0.00    -0.210 NA
ENDBRANCH   1  10
BRANCH   1  12
ATOM     12  C   UNL     1       5.958  -1.805  -0.166  0.00  0.00    +0.152 A 
ATOM     13  C   UNL     1       6.476  -1.512  -1.417  0.00  0.00    +0.068 A 
ATOM     14  C   UNL     1       7.629  -0.755  -1.528  0.00  0.00    +0.045 A 
ATOM     15  C   UNL     1       8.268  -0.290  -0.392  0.00  0.00    +0.022 A 
ATOM     16  C   UNL     1       7.756  -0.579   0.859  0.00  0.00    +0.028 A 
ATOM     17  C   UNL     1       6.598  -1.332   0.978  0.00  0.00    +0.068 A 
ATOM     18 CL   UNL     1       8.277  -0.389  -3.097  0.00  0.00    -0.083 Cl
BRANCH  17  19
ATOM     19  N   UNL     1       6.075  -1.621   2.244  0.00  0.00    -0.355 N 
ATOM     20  H   UNL     1       5.267  -2.151   2.326  0.00  0.00    +0.142 HD
ATOM     21  H   UNL     1       6.522  -1.291   3.040  0.00  0.00    +0.142 HD
ENDBRANCH  17  19
ENDBRANCH   1  12
TORSDOF 3
