REMARK  Name = ZINC55998443
REMARK  9 active torsions:
REMARK  status: ('A' for Active; 'I' for Inactive)
REMARK    1  A    between atoms: C_1  and  C_2
REMARK    2  A    between atoms: C_4  and  C_27
REMARK    3  A    between atoms: N_5  and  C_7
REMARK    4  A    between atoms: C_7  and  C_8
REMARK    5  A    between atoms: C_8  and  C_10
REMARK    6  A    between atoms: C_8  and  C_11
REMARK    7  A    between atoms: C_11  and  N_12
REMARK    8  A    between atoms: C_13  and  C_15
REMARK    9  A    between atoms: N_25  and  C_26
REMARK                            x       y       z     vdW  Elec       q    Type
REMARK                         _______ _______ _______ _____ _____    ______ ____
ROOT
ATOM      1  N   UNL     1       2.912  -5.145   3.146  0.00  0.00    -0.311 N 
ATOM      2  C   UNL     1       3.178  -6.137   4.019  0.00  0.00    +0.244 C 
ATOM      3  O   UNL     1       2.267  -6.785   4.498  0.00  0.00    -0.270 OA
ATOM      4  H   UNL     1       3.639  -4.628   2.764  0.00  0.00    +0.149 HD
ENDROOT
BRANCH   2   5
ATOM      5  C   UNL     1       4.573  -6.437   4.393  0.00  0.00    +0.039 A 
ATOM      6  C   UNL     1       5.619  -5.688   3.846  0.00  0.00    +0.015 A 
ATOM      7  C   UNL     1       6.923  -5.966   4.196  0.00  0.00    +0.026 A 
ATOM      8  C   UNL     1       7.196  -6.990   5.091  0.00  0.00    +0.051 A 
ATOM      9  C   UNL     1       6.156  -7.747   5.641  0.00  0.00    +0.055 A 
ATOM     10  C   UNL     1       4.848  -7.466   5.299  0.00  0.00    +0.038 A 
ATOM     11  N   UNL     1       6.454  -8.784   6.534  0.00  0.00    -0.283 N 
ATOM     12  C   UNL     1       7.676  -8.879   7.090  0.00  0.00    +0.235 C 
ATOM     13  O   UNL     1       7.929  -9.808   7.829  0.00  0.00    -0.274 OA
ATOM     14  C   UNL     1       8.735  -7.845   6.805  0.00  0.00    +0.200 C 
ATOM     15  N   UNL     1       8.509  -7.285   5.464  0.00  0.00    -0.323 N 
ATOM     16  C   UNL     1       9.626  -7.044   4.548  0.00  0.00    +0.130 C 
ATOM     17  H   UNL     1       5.773  -9.438   6.755  0.00  0.00    +0.155 HD
ENDBRANCH   2   5
BRANCH   1  18
ATOM     18  C   UNL     1       1.527  -4.848   2.774  0.00  0.00    +0.109 C 
BRANCH  18  19
ATOM     19  C   UNL     1       1.504  -3.688   1.777  0.00  0.00    +0.024 C 
ATOM     20  C   UNL     1       2.188  -4.118   0.478  0.00  0.00    +0.011 C 
BRANCH  19  21
ATOM     21  C   UNL     1       0.055  -3.295   1.485  0.00  0.00    +0.148 C 
BRANCH  21  26
ATOM     22  C   UNL     1      -0.018   1.503   0.010  0.00  0.00    +0.067 C 
ATOM     23  C   UNL     1       0.002  -0.004   0.002  0.00  0.00    +0.060 A 
ATOM     24  C   UNL     1       0.008  -0.818  -1.135  0.00  0.00    +0.047 A 
ATOM     25  C   UNL     1       0.028  -2.107  -0.725  0.00  0.00    +0.036 A 
ATOM     26  N   UNL     1       0.034  -2.109   0.625  0.00  0.00    -0.268 N 
ATOM     27  N   UNL     1       0.023  -0.777   1.058  0.00  0.00    -0.176 NA
ATOM     28  C   UNL     1       0.040  -3.323  -1.615  0.00  0.00    +0.065 C 
ENDBRANCH  21  26
ENDBRANCH  19  21
ENDBRANCH  18  19
ENDBRANCH   1  18
TORSDOF 5
