REMARK  Name = ZINC17115026
REMARK  4 active torsions:
REMARK  status: ('A' for Active; 'I' for Inactive)
REMARK    1  A    between atoms: C_5  and  C_6
REMARK    2  A    between atoms: N_8  and  C_9
REMARK    3  A    between atoms: C_9  and  C_10
REMARK    4  A    between atoms: N_12  and  N_13
REMARK                            x       y       z     vdW  Elec       q    Type
REMARK                         _______ _______ _______ _____ _____    ______ ____
ROOT
ATOM      1  C   UNL     1      -1.576   2.734   1.152  0.00  0.00    +0.247 C 
ATOM      2  O   UNL     1      -0.915   2.621   2.163  0.00  0.00    -0.273 OA
ATOM      3  N   UNL     1      -1.186   2.116   0.019  0.00  0.00    -0.222 N 
ATOM      4  H   UNL     1      -1.714   2.207  -0.789  0.00  0.00    +0.174 HD
ENDROOT
BRANCH   3   5
ATOM      5  N   UNL     1      -0.016   1.345   0.009  0.00  0.00    -0.137 N 
ATOM      6  C   UNL     1       0.002  -0.004   0.002  0.00  0.00    +0.263 C 
ATOM      7  O   UNL     1      -0.953  -0.751   0.007  0.00  0.00    -0.271 OA
ATOM      8  C   UNL     1       1.464  -0.388  -0.014  0.00  0.00    +0.114 C 
ATOM      9  C   UNL     1       1.792  -1.178  -1.276  0.00  0.00    +0.035 C 
ATOM     10  C   UNL     1       3.281  -1.532  -1.287  0.00  0.00    +0.003 C 
ATOM     11  C   UNL     1       3.616  -2.361  -0.045  0.00  0.00    +0.000 C 
ATOM     12  C   UNL     1       3.305  -1.546   1.212  0.00  0.00    +0.003 C 
ATOM     13  C   UNL     1       1.816  -1.192   1.233  0.00  0.00    +0.035 C 
ATOM     14  N   UNL     1       2.171   0.899  -0.014  0.00  0.00    -0.284 N 
ATOM     15  C   UNL     1       1.222   1.855   0.000  0.00  0.00    +0.326 C 
ATOM     16  O   UNL     1       1.462   3.046   0.004  0.00  0.00    -0.251 OA
ATOM     17  H   UNL     1       3.131   1.035  -0.023  0.00  0.00    +0.151 HD
ENDBRANCH   3   5
BRANCH   1  18
ATOM     18  C   UNL     1      -2.834   3.564   1.163  0.00  0.00    +0.202 C 
BRANCH  18  21
ATOM     19  C   UNL     1      -4.108   4.905   2.748  0.00  0.00    +0.280 C 
ATOM     20  O   UNL     1      -4.904   5.146   1.860  0.00  0.00    -0.267 OA
ATOM     21  N   UNL     1      -3.038   4.124   2.501  0.00  0.00    -0.300 N 
ATOM     22  H   UNL     1      -2.403   3.932   3.209  0.00  0.00    +0.150 HD
BRANCH  19  27
ATOM     23  C   UNL     1      -5.345   6.273   4.470  0.00  0.00    +0.056 A 
ATOM     24  C   UNL     1      -5.146   6.568   5.827  0.00  0.00    +0.058 A 
ATOM     25  C   UNL     1      -4.008   5.942   6.207  0.00  0.00    +0.171 A 
ATOM     26  O   UNL     1      -3.509   5.279   5.156  0.00  0.00    -0.444 OA
ATOM     27  C   UNL     1      -4.312   5.466   4.087  0.00  0.00    +0.191 A 
ATOM     28 BR   UNL     1      -3.248   5.993   7.939  0.00  0.00    -0.008 Br
ENDBRANCH  19  27
ENDBRANCH  18  21
ENDBRANCH   1  18
TORSDOF 4
