REMARK  Name = ZINC03841350
REMARK  6 active torsions:
REMARK  status: ('A' for Active; 'I' for Inactive)
REMARK    1  A    between atoms: C_1  and  O_2
REMARK    2  A    between atoms: O_2  and  C_3
REMARK    3  A    between atoms: C_6  and  S_9
REMARK    4  A    between atoms: S_9  and  N_12
REMARK    5  A    between atoms: N_12  and  C_13
REMARK    6  A    between atoms: N_31  and  C_32
REMARK                            x       y       z     vdW  Elec       q    Type
REMARK                         _______ _______ _______ _____ _____    ______ ____
ROOT
ATOM      1  C   UNL     1       0.367  -0.641   1.188  0.00  0.00    +0.112 A 
ATOM      2  C   UNL     1       0.834   0.057   2.268  0.00  0.00    +0.031 A 
ATOM      3  C   UNL     1       1.289  -0.654   3.385  0.00  0.00    +0.024 A 
ATOM      4  C   UNL     1       1.289  -2.012   3.390  0.00  0.00    +0.027 A 
ATOM      5  N   UNL     1       0.907  -2.706   2.290  0.00  0.00    -0.310 N 
ATOM      6  C   UNL     1       0.395  -2.049   1.220  0.00  0.00    +0.274 A 
ATOM      7  O   UNL     1      -0.047  -2.683   0.276  0.00  0.00    -0.266 OA
ATOM      8  C   UNL     1       1.053  -4.157   2.168  0.00  0.00    +0.130 C 
ATOM      9  C   UNL     1       1.203  -4.839   3.515  0.00  0.00    +0.027 C 
ATOM     10  C   UNL     1       2.237  -4.097   4.362  0.00  0.00    +0.018 C 
ATOM     11  C   UNL     1       1.693  -2.700   4.674  0.00  0.00    +0.054 C 
ATOM     12  C   UNL     1       0.430  -2.855   5.539  0.00  0.00    +0.119 C 
ATOM     13  N   UNL     1      -0.539  -3.643   4.761  0.00  0.00    -0.285 N 
ATOM     14  C   UNL     1      -0.126  -4.955   4.249  0.00  0.00    +0.114 C 
ATOM     15  C   UNL     1      -1.780  -3.171   4.525  0.00  0.00    +0.302 C 
ATOM     16  O   UNL     1      -2.139  -2.125   5.031  0.00  0.00    -0.253 OA
ATOM     17  N   UNL     1      -2.622  -3.858   3.728  0.00  0.00    -0.296 N 
ATOM     18  H   UNL     1      -2.363  -4.728   3.384  0.00  0.00    +0.151 HD
ENDROOT
BRANCH  17  19
ATOM     19  C   UNL     1      -3.927  -3.292   3.381  0.00  0.00    +0.074 C 
ATOM     20  C   UNL     1      -4.936  -3.622   4.483  0.00  0.00    +0.022 C 
ATOM     21  C   UNL     1      -6.299  -3.031   4.121  0.00  0.00    +0.002 C 
ATOM     22  C   UNL     1      -6.779  -3.628   2.796  0.00  0.00    +0.000 C 
ATOM     23  C   UNL     1      -5.770  -3.298   1.694  0.00  0.00    +0.002 C 
ATOM     24  C   UNL     1      -4.407  -3.890   2.056  0.00  0.00    +0.022 C 
ENDBRANCH  17  19
BRANCH   1  25
ATOM     25  N   UNL     1      -0.125   0.035   0.065  0.00  0.00    -0.211 N 
ATOM     26  H   UNL     1      -0.380  -0.463  -0.728  0.00  0.00    +0.174 HD
BRANCH  25  27
ATOM     27  S   UNL     1      -0.272   1.684   0.089  0.00  0.00    +0.073 S 
ATOM     28  O   UNL     1       0.960   2.195   0.580  0.00  0.00    -0.150 OA
ATOM     29  O   UNL     1      -0.805   2.063  -1.173  0.00  0.00    -0.150 OA
BRANCH  27  33
ATOM     30  C   UNL     1      -3.419   2.702   3.182  0.00  0.00    +0.120 A 
ATOM     31  C   UNL     1      -2.074   2.752   3.517  0.00  0.00    +0.047 A 
ATOM     32  C   UNL     1      -1.115   2.442   2.572  0.00  0.00    +0.032 A 
ATOM     33  C   UNL     1      -1.496   2.081   1.292  0.00  0.00    +0.109 A 
ATOM     34  C   UNL     1      -2.836   2.036   0.954  0.00  0.00    +0.032 A 
ATOM     35  C   UNL     1      -3.798   2.341   1.898  0.00  0.00    +0.047 A 
BRANCH  30  37
ATOM     36  C   UNL     1      -5.729   2.935   3.695  0.00  0.00    +0.277 C 
ATOM     37  O   UNL     1      -4.363   3.008   4.110  0.00  0.00    -0.495 OA
ENDBRANCH  30  37
ENDBRANCH  27  33
ENDBRANCH  25  27
ENDBRANCH   1  25
TORSDOF 5
