REMARK  Name = ZINC11881462
REMARK  7 active torsions:
REMARK  status: ('A' for Active; 'I' for Inactive)
REMARK    1  A    between atoms: C_4  and  C_7
REMARK    2  A    between atoms: C_18  and  C_19
REMARK    3  A    between atoms: C_18  and  N_66
REMARK    4  A    between atoms: N_21  and  C_22
REMARK    5  A    between atoms: C_22  and  C_23
REMARK    6  A    between atoms: C_23  and  C_25
REMARK    7  A    between atoms: C_23  and  N_68
REMARK                            x       y       z     vdW  Elec       q    Type
REMARK                         _______ _______ _______ _____ _____    ______ ____
ROOT
ATOM      1  C   UNL     1      -5.618   6.354   2.916  0.00  0.00    +0.019 C 
ENDROOT
BRANCH   1  12
ATOM      2  C   UNL     1      -6.782   5.559   6.413  0.00  0.00    +0.187 C 
ATOM      3  C   UNL     1      -6.149   5.364   5.053  0.00  0.00    -0.028 C 
ATOM      4  C   UNL     1      -4.875   7.437   4.948  0.00  0.00    -0.038 C 
ATOM      5  C   UNL     1      -5.497   8.261   6.059  0.00  0.00    -0.022 A 
ATOM      6  C   UNL     1      -5.601   9.630   5.932  0.00  0.00    +0.005 A 
ATOM      7  C   UNL     1      -6.154  10.373   6.961  0.00  0.00    +0.000 A 
ATOM      8  C   UNL     1      -6.598   9.745   8.110  0.00  0.00    +0.004 A 
ATOM      9  C   UNL     1      -6.499   8.372   8.234  0.00  0.00    +0.046 A 
ATOM     10  C   UNL     1      -5.954   7.626   7.198  0.00  0.00    +0.123 A 
ATOM     11  O   UNL     1      -5.898   6.269   7.289  0.00  0.00    -0.486 OA
ATOM     12  N   UNL     1      -5.952   6.634   4.321  0.00  0.00    +0.391 N 
ATOM     13  H   UNL     1      -6.825   7.172   4.354  0.00  0.00    -0.080 HD
BRANCH   2  17
ATOM     14  C   UNL     1      -7.675   1.741   8.108  0.00  0.00    +0.000 A 
ATOM     15  C   UNL     1      -8.640   2.421   7.390  0.00  0.00    +0.000 A 
ATOM     16  C   UNL     1      -8.352   3.657   6.841  0.00  0.00    +0.007 A 
ATOM     17  C   UNL     1      -7.097   4.212   7.011  0.00  0.00    -0.009 A 
ATOM     18  C   UNL     1      -6.130   3.530   7.725  0.00  0.00    +0.007 A 
ATOM     19  C   UNL     1      -6.420   2.296   8.278  0.00  0.00    +0.000 A 
ENDBRANCH   2  17
ENDBRANCH   1  12
BRANCH   1  20
ATOM     20  C   UNL     1      -4.380   5.500   2.814  0.00  0.00    +0.196 C 
ATOM     21  O   UNL     1      -3.805   5.143   3.820  0.00  0.00    -0.278 OA
ATOM     22  N   UNL     1      -3.911   5.135   1.604  0.00  0.00    -0.318 N 
ATOM     23  H   UNL     1      -4.371   5.421   0.799  0.00  0.00    +0.149 HD
BRANCH  22  24
ATOM     24  C   UNL     1      -2.707   4.306   1.505  0.00  0.00    +0.093 C 
BRANCH  24  25
ATOM     25  C   UNL     1      -2.468   3.927   0.042  0.00  0.00    -0.019 C 
BRANCH  25  31
ATOM     26  C   UNL     1      -1.466   4.875  -1.949  0.00  0.00    -0.049 C 
ATOM     27  C   UNL     1      -1.344   6.155  -2.779  0.00  0.00    +0.141 C 
ATOM     28  O   UNL     1      -0.785   7.192  -1.968  0.00  0.00    -0.383 OA
ATOM     29  C   UNL     1      -1.552   7.483  -0.796  0.00  0.00    +0.141 C 
ATOM     30  C   UNL     1      -1.676   6.216   0.054  0.00  0.00    -0.049 C 
ATOM     31  N   UNL     1      -2.303   5.156  -0.764  0.00  0.00    +0.388 N 
ATOM     32  H   UNL     1      -3.227   5.477  -1.076  0.00  0.00    -0.081 HD
ENDBRANCH  25  31
BRANCH  25  33
ATOM     33  C   UNL     1      -1.236   3.065  -0.059  0.00  0.00    -0.041 A 
ATOM     34  C   UNL     1      -1.345   1.718  -0.368  0.00  0.00    +0.005 A 
ATOM     35  C   UNL     1      -0.185   0.962  -0.445  0.00  0.00    +0.020 A 
ATOM     36  C   UNL     1       1.034   1.575  -0.223  0.00  0.00    +0.111 A 
ATOM     37  N   UNL     1       1.100   2.860   0.064  0.00  0.00    -0.263 NA
ATOM     38  C   UNL     1       0.017   3.608   0.151  0.00  0.00    +0.112 A 
ENDBRANCH  25  33
ENDBRANCH  24  25
ENDBRANCH  22  24
ENDBRANCH   1  20
TORSDOF 7
