REMARK  Name = ZINC08569127
REMARK  10 active torsions:
REMARK  status: ('A' for Active; 'I' for Inactive)
REMARK    1  A    between atoms: C_1  and  C_2
REMARK    2  A    between atoms: C_2  and  O_3
REMARK    3  A    between atoms: O_3  and  C_4
REMARK    4  A    between atoms: C_4  and  C_6
REMARK    5  A    between atoms: C_6  and  O_7
REMARK    6  A    between atoms: O_7  and  C_8
REMARK    7  A    between atoms: C_13  and  C_14
REMARK    8  A    between atoms: C_17  and  C_28
REMARK    9  A    between atoms: C_23  and  N_27
REMARK   10  A    between atoms: C_24  and  C_25
REMARK                            x       y       z     vdW  Elec       q    Type
REMARK                         _______ _______ _______ _____ _____    ______ ____
ROOT
ATOM      1  C   UNL     1      -2.623  -6.672  -0.008  0.00  0.00    +0.105 C 
ATOM      2  C   UNL     1      -2.522  -7.558   1.207  0.00  0.00    +0.049 A 
ATOM      3  C   UNL     1      -2.321  -7.208   2.535  0.00  0.00    +0.068 A 
ATOM      4  N   UNL     1      -2.303  -8.309   3.249  0.00  0.00    -0.176 NA
ATOM      5  N   UNL     1      -2.494  -9.399   2.386  0.00  0.00    -0.246 N 
ATOM      6  H   UNL     1      -2.527 -10.334   2.644  0.00  0.00    +0.192 HD
ATOM      7  C   UNL     1      -2.626  -8.919   1.139  0.00  0.00    +0.222 A 
ATOM      8  O   UNL     1      -2.824  -9.581  -0.028  0.00  0.00    -0.423 OA
ATOM      9  C   UNL     1      -2.647  -8.892  -1.174  0.00  0.00    +0.200 C 
ATOM     10  C   UNL     1      -2.544  -7.545  -1.236  0.00  0.00    +0.098 C 
ATOM     11  C   UNL     1      -2.151  -5.807   3.066  0.00  0.00    +0.068 C 
ENDROOT
BRANCH   1  17
ATOM     12  C   UNL     1      -3.954  -4.548   0.015  0.00  0.00    +0.125 A 
ATOM     13  C   UNL     1      -5.166  -3.872   0.025  0.00  0.00    +0.046 A 
ATOM     14  C   UNL     1      -6.351  -4.581   0.032  0.00  0.00    +0.004 A 
ATOM     15  C   UNL     1      -6.331  -5.964   0.029  0.00  0.00    +0.001 A 
ATOM     16  C   UNL     1      -5.125  -6.640   0.021  0.00  0.00    +0.008 A 
ATOM     17  C   UNL     1      -3.937  -5.935   0.008  0.00  0.00    +0.007 A 
BRANCH  12  18
ATOM     18  O   UNL     1      -2.787  -3.852   0.008  0.00  0.00    -0.480 OA
BRANCH  18  19
ATOM     19  C   UNL     1      -2.881  -2.427   0.017  0.00  0.00    +0.349 C 
BRANCH  19  20
ATOM     20  C   UNL     1      -1.496  -1.832   0.006  0.00  0.00    +0.345 C 
ATOM     21  O   UNL     1      -0.528  -2.555  -0.007  0.00  0.00    -0.247 OA
BRANCH  20  22
ATOM     22  O   UNL     1      -1.339  -0.499   0.012  0.00  0.00    -0.463 OA
BRANCH  22  24
ATOM     23  C   UNL     1      -0.019   1.526   0.010  0.00  0.00    +0.048 C 
ATOM     24  C   UNL     1       0.002  -0.004   0.002  0.00  0.00    +0.229 C 
ENDBRANCH  22  24
ENDBRANCH  20  22
ENDBRANCH  19  20
ENDBRANCH  18  19
ENDBRANCH  12  18
ENDBRANCH   1  17
BRANCH   9  25
ATOM     25  N   UNL     1      -2.567  -9.600  -2.348  0.00  0.00    -0.328 N 
ATOM     26  H   UNL     1      -2.638 -10.568  -2.336  0.00  0.00    +0.145 HD
ATOM     27  H   UNL     1      -2.440  -9.133  -3.188  0.00  0.00    +0.145 HD
ENDBRANCH   9  25
BRANCH  10  28
ATOM     28  C   UNL     1      -2.353  -6.925  -2.512  0.00  0.00    +0.101 C 
ATOM     29  N   UNL     1      -2.200  -6.432  -3.524  0.00  0.00    -0.191 NA
ENDBRANCH  10  28
TORSDOF 8
