REMARK  Name = ZINC57415125
REMARK  7 active torsions:
REMARK  status: ('A' for Active; 'I' for Inactive)
REMARK    1  A    between atoms: C_1  and  O_2
REMARK    2  A    between atoms: O_2  and  C_3
REMARK    3  A    between atoms: C_3  and  C_5
REMARK    4  A    between atoms: C_6  and  C_20
REMARK    5  A    between atoms: C_11  and  C_13
REMARK    6  A    between atoms: C_20  and  N_21
REMARK    7  A    between atoms: C_27  and  C_29
REMARK                            x       y       z     vdW  Elec       q    Type
REMARK                         _______ _______ _______ _____ _____    ______ ____
ROOT
ATOM      1  C   UNL     1       0.775  -1.891  -0.960  0.00  0.00    +0.079 C 
ATOM      2  C   UNL     1       1.160  -2.492  -2.106  0.00  0.00    +0.038 C 
ATOM      3  N   UNL     1       1.087  -3.848  -2.249  0.00  0.00    -0.271 N 
ATOM      4  C   UNL     1       0.641  -4.673  -1.294  0.00  0.00    +0.304 C 
ATOM      5  O   UNL     1       0.613  -5.868  -1.514  0.00  0.00    -0.252 OA
ATOM      6  N   UNL     1       0.221  -4.221  -0.095  0.00  0.00    -0.288 N 
ATOM      7  C   UNL     1       0.265  -2.772   0.162  0.00  0.00    +0.144 C 
ATOM      8  H   UNL     1       1.375  -4.236  -3.091  0.00  0.00    +0.156 HD
ATOM      9  H   UNL     1      -0.099  -4.836   0.583  0.00  0.00    +0.151 HD
ENDROOT
BRANCH   7  10
ATOM     10  C   UNL     1      -1.132  -2.323   0.507  0.00  0.00    -0.021 A 
ATOM     11  C   UNL     1      -2.200  -2.731  -0.270  0.00  0.00    +0.006 A 
ATOM     12  C   UNL     1      -3.482  -2.320   0.046  0.00  0.00    +0.002 A 
ATOM     13  C   UNL     1      -3.695  -1.501   1.139  0.00  0.00    +0.020 A 
ATOM     14  C   UNL     1      -2.627  -1.093   1.917  0.00  0.00    +0.041 A 
ATOM     15  C   UNL     1      -1.345  -1.510   1.603  0.00  0.00    +0.025 A 
ATOM     16 CL   UNL     1      -2.894  -0.065   3.289  0.00  0.00    -0.084 Cl
ENDBRANCH   7  10
BRANCH   1  17
ATOM     17  C   UNL     1       0.850  -0.486  -0.811  0.00  0.00    +0.339 C 
ATOM     18  O   UNL     1       1.732   0.007  -0.133  0.00  0.00    -0.245 OA
BRANCH  17  20
ATOM     19  C   UNL     1       0.079   1.716  -1.225  0.00  0.00    +0.280 C 
ATOM     20  O   UNL     1      -0.057   0.307  -1.419  0.00  0.00    -0.465 OA
ENDBRANCH  17  20
ENDBRANCH   1  17
BRANCH   2  21
ATOM     21  C   UNL     1       1.678  -1.653  -3.246  0.00  0.00    +0.136 C 
BRANCH  21  22
ATOM     22  N   UNL     1       3.084  -1.992  -3.503  0.00  0.00    -0.294 NA
ATOM     23  C   UNL     1       3.934  -1.612  -2.366  0.00  0.00    +0.104 C 
ATOM     24  C   UNL     1       5.353  -2.142  -2.594  0.00  0.00    +0.123 C 
ATOM     25  N   UNL     1       5.823  -1.670  -3.906  0.00  0.00    -0.293 N 
ATOM     26  C   UNL     1       4.959  -1.893  -5.076  0.00  0.00    +0.123 C 
ATOM     27  C   UNL     1       3.555  -1.373  -4.750  0.00  0.00    +0.104 C 
ATOM     28  C   UNL     1       7.013  -1.051  -4.033  0.00  0.00    +0.282 C 
ATOM     29  O   UNL     1       7.744  -0.934  -3.067  0.00  0.00    -0.267 OA
BRANCH  28  30
ATOM     30  C   UNL     1       7.427  -0.518  -5.335  0.00  0.00    +0.189 A 
ATOM     31  C   UNL     1       8.537   0.241  -5.575  0.00  0.00    +0.054 A 
ATOM     32  C   UNL     1       8.541   0.525  -6.950  0.00  0.00    +0.042 A 
ATOM     33  C   UNL     1       7.448  -0.064  -7.481  0.00  0.00    +0.196 A 
ATOM     34  O   UNL     1       6.782  -0.696  -6.506  0.00  0.00    -0.458 OA
ENDBRANCH  28  30
ENDBRANCH  21  22
ENDBRANCH   2  21
TORSDOF 6
