REMARK  Name = ZINC67432906
REMARK  6 active torsions:
REMARK  status: ('A' for Active; 'I' for Inactive)
REMARK    1  A    between atoms: C_1  and  C_2
REMARK    2  A    between atoms: C_2  and  N_3
REMARK    3  A    between atoms: C_6  and  C_8
REMARK    4  A    between atoms: C_12  and  N_16
REMARK    5  A    between atoms: N_19  and  C_22
REMARK    6  A    between atoms: C_24  and  C_29
REMARK                            x       y       z     vdW  Elec       q    Type
REMARK                         _______ _______ _______ _____ _____    ______ ____
ROOT
ATOM      1  N   UNL     1       6.034  -1.516   2.369  0.00  0.00    -0.296 NA
ATOM      2  C   UNL     1       7.012  -1.164   1.331  0.00  0.00    +0.103 C 
ATOM      3  C   UNL     1       8.326  -1.907   1.599  0.00  0.00    +0.122 C 
ATOM      4  N   UNL     1       8.751  -1.621   2.978  0.00  0.00    -0.313 N 
ATOM      5  C   UNL     1       7.777  -1.820   4.062  0.00  0.00    +0.122 C 
ATOM      6  C   UNL     1       6.486  -1.080   3.697  0.00  0.00    +0.103 C 
ENDROOT
BRANCH   4   7
ATOM      7  C   UNL     1      10.036  -1.178   3.248  0.00  0.00    +0.127 A 
ATOM      8  C   UNL     1      10.889  -0.802   2.208  0.00  0.00    +0.064 A 
ATOM      9  C   UNL     1      12.161  -0.366   2.525  0.00  0.00    +0.019 A 
ATOM     10  N   UNL     1      12.532  -0.318   3.796  0.00  0.00    -0.332 N 
ATOM     11  C   UNL     1      11.702  -0.681   4.762  0.00  0.00    +0.192 A 
ATOM     12  N   UNL     1      10.472  -1.099   4.501  0.00  0.00    -0.201 NA
ATOM     13  N   UNL     1      12.128  -0.617   6.077  0.00  0.00    -0.329 N 
ATOM     14  C   UNL     1      13.116   0.050   1.436  0.00  0.00    +0.063 C 
ATOM     15  H   UNL     1      13.024  -0.309   6.282  0.00  0.00    +0.145 HD
ATOM     16  H   UNL     1      11.530  -0.881   6.794  0.00  0.00    +0.145 HD
ATOM     17  H   UNL     1      13.424  -0.012   4.022  0.00  0.00    +0.168 HD
ENDBRANCH   4   7
BRANCH   1  24
ATOM     18  N   UNL     1       1.164   1.134   2.146  0.00  0.00    -0.268 N 
ATOM     19  C   UNL     1       2.231   0.320   2.279  0.00  0.00    +0.043 A 
ATOM     20  C   UNL     1       3.340   1.084   2.125  0.00  0.00    +0.009 A 
ATOM     21  C   UNL     1       2.879   2.393   1.897  0.00  0.00    +0.177 A 
ATOM     22  N   UNL     1       1.557   2.340   1.918  0.00  0.00    -0.164 NA
ATOM     23  C   UNL     1       4.750   0.567   2.195  0.00  0.00    +0.058 C 
ATOM     24  C   UNL     1       4.711  -0.961   2.055  0.00  0.00    +0.062 C 
ATOM     25  C   UNL     1       3.673  -1.537   3.023  0.00  0.00    +0.025 C 
ATOM     26  C   UNL     1       2.263  -1.163   2.549  0.00  0.00    +0.057 C 
BRANCH  21  27
ATOM     27  C   UNL     1       3.708   3.590   1.671  0.00  0.00    +0.406 C 
ATOM     28  O   UNL     1       4.928   3.498   1.671  0.00  0.00    -0.239 OA
ATOM     29  O   UNL     1       3.176   4.675   1.484  0.00  0.00    -0.239 OA
ENDBRANCH  21  27
BRANCH  18  31
ATOM     30  C   UNL     1      -0.737   0.299   0.854  0.00  0.00    +0.029 C 
ATOM     31  C   UNL     1      -0.235   0.709   2.240  0.00  0.00    +0.140 C 
ENDBRANCH  18  31
ENDBRANCH   1  24
TORSDOF 4
