REMARK  Name = ZINC13350349
REMARK  4 active torsions:
REMARK  status: ('A' for Active; 'I' for Inactive)
REMARK    1  A    between atoms: C_4  and  C_26
REMARK    2  A    between atoms: C_5  and  C_7
REMARK    3  A    between atoms: N_8  and  N_9
REMARK    4  A    between atoms: C_10  and  C_15
REMARK                            x       y       z     vdW  Elec       q    Type
REMARK                         _______ _______ _______ _____ _____    ______ ____
ROOT
ATOM      1  N   UNL     1       2.686  -4.225  -0.020  0.00  0.00    -0.189 N 
ATOM      2  C   UNL     1       3.852  -4.953  -0.025  0.00  0.00    +0.197 A 
ATOM      3  N   UNL     1       3.559  -6.209  -0.141  0.00  0.00    -0.153 NA
ATOM      4  N   UNL     1       2.164  -6.327  -0.216  0.00  0.00    -0.253 N 
ATOM      5  C   UNL     1       1.651  -5.082  -0.132  0.00  0.00    +0.197 A 
ATOM      6  S   UNL     1      -0.010  -4.666  -0.167  0.00  0.00    -0.010 S 
ATOM      7  H   UNL     1       1.661  -7.151  -0.306  0.00  0.00    +0.191 HD
ENDROOT
BRANCH   2   8
ATOM      8  C   UNL     1       5.243  -4.384   0.085  0.00  0.00    +0.280 C 
ATOM      9  C   UNL     1       6.239  -5.508   0.402  0.00  0.00    +0.281 C 
ATOM     10  O   UNL     1       7.548  -4.935   0.486  0.00  0.00    -0.484 OA
ATOM     11  C   UNL     1       7.903  -4.071  -0.504  0.00  0.00    +0.162 A 
ATOM     12  C   UNL     1       9.242  -3.765  -0.694  0.00  0.00    +0.049 A 
ATOM     13  C   UNL     1       9.617  -2.887  -1.693  0.00  0.00    +0.004 A 
ATOM     14  C   UNL     1       8.659  -2.311  -2.506  0.00  0.00    +0.004 A 
ATOM     15  C   UNL     1       7.323  -2.612  -2.323  0.00  0.00    +0.049 A 
ATOM     16  C   UNL     1       6.939  -3.494  -1.323  0.00  0.00    +0.163 A 
ATOM     17  O   UNL     1       5.620  -3.786  -1.160  0.00  0.00    -0.474 OA
ENDBRANCH   2   8
BRANCH   1  19
ATOM     18  C   UNL     1       1.434  -2.249  -0.033  0.00  0.00    +0.142 C 
ATOM     19  N   UNL     1       2.589  -2.832   0.089  0.00  0.00    -0.171 NA
BRANCH  18  24
ATOM     20  C   UNL     1       2.422   1.370  -0.011  0.00  0.00    +0.001 A 
ATOM     21  C   UNL     1       1.186   1.996  -0.028  0.00  0.00    +0.001 A 
ATOM     22  C   UNL     1       0.025   1.253  -0.047  0.00  0.00    +0.016 A 
ATOM     23  C   UNL     1       0.089  -0.142  -0.049  0.00  0.00    +0.072 A 
ATOM     24  C   UNL     1       1.347  -0.780  -0.032  0.00  0.00    +0.009 A 
ATOM     25  C   UNL     1       2.510  -0.007  -0.012  0.00  0.00    +0.010 A 
BRANCH  23  26
ATOM     26  C   UNL     1      -1.147  -0.941  -0.069  0.00  0.00    +0.387 C 
ATOM     27  O   UNL     1      -2.235  -0.388   0.019  0.00  0.00    -0.241 OA
ATOM     28  O   UNL     1      -1.087  -2.159  -0.173  0.00  0.00    -0.241 OA
ENDBRANCH  23  26
ENDBRANCH  18  24
ENDBRANCH   1  19
TORSDOF 4
