REMARK  Name = ZINC32561819
REMARK  4 active torsions:
REMARK  status: ('A' for Active; 'I' for Inactive)
REMARK    1  A    between atoms: C_4  and  C_7
REMARK    2  A    between atoms: C_7  and  C_9
REMARK    3  A    between atoms: C_7  and  N_15
REMARK    4  A    between atoms: C_9  and  N_10
REMARK                            x       y       z     vdW  Elec       q    Type
REMARK                         _______ _______ _______ _____ _____    ______ ____
ROOT
ATOM      1  N   UNL     1      -2.329  -0.675   0.020  0.00  0.00    -0.320 N 
ATOM      2  C   UNL     1      -0.988  -1.007   0.005  0.00  0.00    +0.135 A 
ATOM      3  C   UNL     1       0.002  -0.004   0.002  0.00  0.00    +0.078 A 
ATOM      4  C   UNL     1      -0.017   1.408   0.010  0.00  0.00    +0.147 A 
ATOM      5  N   UNL     1       1.212   1.837   0.000  0.00  0.00    -0.180 NA
ATOM      6  N   UNL     1       2.093   0.748  -0.014  0.00  0.00    -0.260 N 
ATOM      7  H   UNL     1       3.179   0.918  -0.023  0.00  0.00    +0.191 HD
ATOM      8  C   UNL     1       1.354  -0.398  -0.013  0.00  0.00    +0.163 A 
ATOM      9  N   UNL     1       1.646  -1.698  -0.023  0.00  0.00    -0.195 NA
ATOM     10  C   UNL     1       0.684  -2.604  -0.018  0.00  0.00    +0.216 A 
ATOM     11  N   UNL     1      -0.603  -2.277  -0.004  0.00  0.00    -0.199 NA
ATOM     12  N   UNL     1       1.030  -3.944  -0.029  0.00  0.00    -0.327 N 
ATOM     13  H   UNL     1      -2.634   0.382   0.029  0.00  0.00    +0.148 HD
ATOM     14  H   UNL     1       0.246  -4.715  -0.026  0.00  0.00    +0.145 HD
ATOM     15  H   UNL     1       2.090  -4.238  -0.041  0.00  0.00    +0.145 HD
ENDROOT
BRANCH   1  16
ATOM     16  C   UNL     1      -3.344  -1.731   0.024  0.00  0.00    +0.122 C 
BRANCH  16  20
ATOM     17  C   UNL     1      -4.040  -3.025   4.035  0.00  0.00    +0.000 A 
ATOM     18  C   UNL     1      -3.998  -3.949   3.008  0.00  0.00    +0.000 A 
ATOM     19  C   UNL     1      -3.772  -3.530   1.710  0.00  0.00    +0.005 A 
ATOM     20  C   UNL     1      -3.590  -2.187   1.439  0.00  0.00    -0.026 A 
ATOM     21  C   UNL     1      -3.627  -1.264   2.466  0.00  0.00    +0.005 A 
ATOM     22  C   UNL     1      -3.857  -1.682   3.764  0.00  0.00    +0.000 A 
ENDBRANCH  16  20
BRANCH  16  23
ATOM     23  C   UNL     1      -4.646  -1.188  -0.570  0.00  0.00    +0.149 C 
BRANCH  23  24
ATOM     24  N   UNL     1      -4.437  -0.856  -1.982  0.00  0.00    -0.335 N 
ATOM     25  C   UNL     1      -4.030   0.353  -2.480  0.00  0.00    +0.107 A 
ATOM     26  C   UNL     1      -3.966   0.220  -3.819  0.00  0.00    +0.130 A 
ATOM     27  N   UNL     1      -4.332  -1.032  -4.130  0.00  0.00    -0.244 NA
ATOM     28  C   UNL     1      -4.616  -1.682  -3.035  0.00  0.00    +0.199 A 
ENDBRANCH  23  24
ENDBRANCH  16  23
ENDBRANCH   1  16
TORSDOF 4
