REMARK  Name = ZINC38094052
REMARK  8 active torsions:
REMARK  status: ('A' for Active; 'I' for Inactive)
REMARK    1  A    between atoms: C_1  and  C_2
REMARK    2  A    between atoms: C_2  and  C_3
REMARK    3  A    between atoms: C_2  and  C_4
REMARK    4  A    between atoms: C_4  and  C_5
REMARK    5  A    between atoms: C_5  and  C_6
REMARK    6  A    between atoms: C_6  and  N_7
REMARK    7  A    between atoms: N_14  and  C_21
REMARK    8  A    between atoms: N_17  and  C_20
REMARK                            x       y       z     vdW  Elec       q    Type
REMARK                         _______ _______ _______ _____ _____    ______ ____
ROOT
ATOM      1  N   UNL     1      -0.052  -0.260   4.939  0.00  0.00    -0.315 N 
ATOM      2  C   UNL     1       0.423  -0.611   6.182  0.00  0.00    +0.195 A 
ATOM      3  N   UNL     1       1.573  -1.294   6.419  0.00  0.00    -0.321 N 
ATOM      4  H   UNL     1       2.201  -1.619   5.755  0.00  0.00    +0.169 HD
ATOM      5  C   UNL     1       1.677  -1.438   7.796  0.00  0.00    +0.150 A 
ATOM      6  C   UNL     1       0.556  -0.819   8.339  0.00  0.00    +0.170 A 
ATOM      7  N   UNL     1      -0.165  -0.332   7.328  0.00  0.00    -0.196 NA
ATOM      8  N   UNL     1       0.400  -0.811   9.716  0.00  0.00    -0.280 N 
ATOM      9  C   UNL     1       1.323  -1.395  10.503  0.00  0.00    +0.333 A 
ATOM     10  O   UNL     1       1.169  -1.380  11.709  0.00  0.00    -0.246 OA
ATOM     11  N   UNL     1       2.409  -1.996   9.988  0.00  0.00    -0.262 N 
ATOM     12  C   UNL     1       2.616  -2.035   8.656  0.00  0.00    +0.282 A 
ATOM     13  O   UNL     1       3.605  -2.583   8.202  0.00  0.00    -0.265 OA
ATOM     14  C   UNL     1       3.384  -2.618  10.888  0.00  0.00    +0.157 C 
ATOM     15  C   UNL     1      -0.771  -0.166  10.316  0.00  0.00    +0.155 C 
ATOM     16  H   UNL     1      -0.883   0.233   4.859  0.00  0.00    +0.149 HD
ENDROOT
BRANCH   1  17
ATOM     17  C   UNL     1       0.698  -0.630   3.737  0.00  0.00    +0.104 C 
BRANCH  17  18
ATOM     18  C   UNL     1      -0.042  -0.124   2.497  0.00  0.00    +0.019 C 
BRANCH  18  19
ATOM     19  C   UNL     1       0.742  -0.511   1.242  0.00  0.00    +0.004 C 
BRANCH  19  21
ATOM     20  C   UNL     1      -0.019   1.526   0.010  0.00  0.00    +0.007 C 
ATOM     21  C   UNL     1       0.002  -0.004   0.002  0.00  0.00    -0.017 C 
ATOM     22  C   UNL     1       0.718  -0.497  -1.257  0.00  0.00    +0.007 C 
ENDBRANCH  19  21
ENDBRANCH  18  19
ENDBRANCH  17  18
ENDBRANCH   1  17
TORSDOF 4
