REMARK  Name = ZINC65527103
REMARK  8 active torsions:
REMARK  status: ('A' for Active; 'I' for Inactive)
REMARK    1  A    between atoms: C_1  and  C_2
REMARK    2  A    between atoms: C_4  and  C_24
REMARK    3  A    between atoms: N_6  and  C_8
REMARK    4  A    between atoms: C_8  and  C_9
REMARK    5  A    between atoms: C_8  and  C_10
REMARK    6  A    between atoms: C_8  and  C_11
REMARK    7  A    between atoms: C_11  and  N_12
REMARK    8  A    between atoms: N_15  and  C_16
REMARK                            x       y       z     vdW  Elec       q    Type
REMARK                         _______ _______ _______ _____ _____    ______ ____
ROOT
ATOM      1  N   UNL     1       3.477  -2.389   0.896  0.00  0.00    -0.301 N 
ATOM      2  C   UNL     1       4.769  -2.196   0.567  0.00  0.00    +0.300 C 
ATOM      3  O   UNL     1       5.538  -1.720   1.380  0.00  0.00    -0.253 OA
ATOM      4  N   UNL     1       5.209  -2.528  -0.663  0.00  0.00    -0.288 N 
ATOM      5  H   UNL     1       2.863  -2.769   0.247  0.00  0.00    +0.150 HD
ATOM      6  H   UNL     1       4.595  -2.908  -1.311  0.00  0.00    +0.151 HD
ENDROOT
BRANCH   4   7
ATOM      7  C   UNL     1       6.614  -2.318  -1.020  0.00  0.00    +0.160 C 
ATOM      8  C   UNL     1       7.004  -3.267  -2.155  0.00  0.00    +0.032 C 
ATOM      9  C   UNL     1       8.500  -3.526  -2.150  0.00  0.00    +0.004 C 
ATOM     10  C   UNL     1       9.334  -2.304  -2.489  0.00  0.00    +0.019 C 
ATOM     11  C   UNL     1       9.218  -1.243  -1.392  0.00  0.00    +0.104 C 
ATOM     12  N   UNL     1       8.039  -0.406  -1.668  0.00  0.00    -0.314 N 
ATOM     13  C   UNL     1       6.810  -0.894  -1.496  0.00  0.00    +0.233 C 
ATOM     14  O   UNL     1       5.845  -0.194  -1.722  0.00  0.00    -0.274 OA
ATOM     15  H   UNL     1       8.157   0.505  -1.977  0.00  0.00    +0.149 HD
ENDBRANCH   4   7
BRANCH   1  16
ATOM     16  C   UNL     1       2.998  -2.028   2.232  0.00  0.00    +0.093 C 
BRANCH  16  17
ATOM     17  C   UNL     1       1.483  -2.226   2.303  0.00  0.00    -0.055 C 
ATOM     18  C   UNL     1       0.972  -1.768   3.670  0.00  0.00    -0.008 C 
ATOM     19  C   UNL     1       1.153  -3.707   2.106  0.00  0.00    -0.008 C 
BRANCH  17  25
ATOM     20  C   UNL     1       0.933   2.275   0.459  0.00  0.00    +0.005 C 
ATOM     21  C   UNL     1       0.575   0.799   0.276  0.00  0.00    -0.031 C 
ATOM     22  C   UNL     1      -0.948   0.636   0.290  0.00  0.00    +0.003 C 
ATOM     23  C   UNL     1      -1.294  -0.852   0.185  0.00  0.00    -0.031 C 
ATOM     24  C   UNL     1      -0.620  -1.608   1.332  0.00  0.00    -0.075 C 
ATOM     25  N   UNL     1       0.836  -1.436   1.248  0.00  0.00    +0.384 N 
ATOM     26  C   UNL     1       1.180  -0.019   1.419  0.00  0.00    -0.075 C 
ATOM     27  C   UNL     1      -0.793  -1.400  -1.153  0.00  0.00    +0.005 C 
ATOM     28  H   UNL     1       1.160  -1.752   0.346  0.00  0.00    -0.081 HD
ENDBRANCH  17  25
ENDBRANCH  16  17
ENDBRANCH   1  16
TORSDOF 4
