REMARK  Name = ZINC66671297
REMARK  5 active torsions:
REMARK  status: ('A' for Active; 'I' for Inactive)
REMARK    1  A    between atoms: C_1  and  C_2
REMARK    2  A    between atoms: C_2  and  C_4
REMARK    3  A    between atoms: C_2  and  N_12
REMARK    4  A    between atoms: N_15  and  C_16
REMARK    5  A    between atoms: C_21  and  N_22
REMARK                            x       y       z     vdW  Elec       q    Type
REMARK                         _______ _______ _______ _____ _____    ______ ____
ROOT
ATOM      1  N   UNL     1      -1.379  -0.494   0.015  0.00  0.00    -0.293 N 
ATOM      2  C   UNL     1      -2.053  -0.637  -1.143  0.00  0.00    +0.304 C 
ATOM      3  O   UNL     1      -1.522  -0.340  -2.196  0.00  0.00    -0.252 OA
ATOM      4  N   UNL     1      -3.315  -1.109  -1.135  0.00  0.00    -0.266 N 
ATOM      5  H   UNL     1      -1.803  -0.731   0.855  0.00  0.00    +0.151 HD
ATOM      6  H   UNL     1      -3.710  -1.423  -0.306  0.00  0.00    +0.156 HD
ENDROOT
BRANCH   4   7
ATOM      7  C   UNL     1      -4.056  -1.148  -2.322  0.00  0.00    +0.079 A 
ATOM      8  C   UNL     1      -3.757  -0.283  -3.369  0.00  0.00    +0.028 A 
ATOM      9  C   UNL     1      -4.519  -0.358  -4.526  0.00  0.00    +0.022 A 
ATOM     10  C   UNL     1      -5.543  -1.283  -4.603  0.00  0.00    +0.113 A 
ATOM     11  N   UNL     1      -5.806  -2.091  -3.595  0.00  0.00    -0.235 NA
ATOM     12  C   UNL     1      -5.102  -2.058  -2.475  0.00  0.00    +0.177 A 
BRANCH  12  13
ATOM     13  N   UNL     1      -5.413  -2.939  -1.434  0.00  0.00    -0.200 N 
ATOM     14  C   UNL     1      -6.602  -3.530  -1.203  0.00  0.00    +0.226 A 
ATOM     15  N   UNL     1      -6.482  -4.279  -0.137  0.00  0.00    -0.222 NA
ATOM     16  C   UNL     1      -5.240  -4.193   0.338  0.00  0.00    +0.245 A 
ATOM     17  N   UNL     1      -4.546  -3.390  -0.425  0.00  0.00    -0.152 NA
ENDBRANCH  12  13
ENDBRANCH   4   7
BRANCH   1  19
ATOM     18  C   UNL     1      -0.035   1.549   0.003  0.00  0.00    +0.033 C 
ATOM     19  C   UNL     1      -0.007   0.019   0.006  0.00  0.00    +0.102 C 
BRANCH  19  20
ATOM     20  C   UNL     1       0.720  -0.468   1.233  0.00  0.00    -0.026 A 
ATOM     21  C   UNL     1       0.065  -0.517   2.450  0.00  0.00    +0.007 A 
ATOM     22  C   UNL     1       0.730  -0.963   3.576  0.00  0.00    +0.022 A 
ATOM     23  C   UNL     1       2.052  -1.361   3.486  0.00  0.00    +0.059 A 
ATOM     24  C   UNL     1       2.708  -1.312   2.268  0.00  0.00    +0.060 A 
ATOM     25  C   UNL     1       2.038  -0.870   1.140  0.00  0.00    +0.027 A 
ATOM     26 CL   UNL     1       4.367  -1.810   2.154  0.00  0.00    -0.082 Cl
ATOM     27 CL   UNL     1       2.889  -1.920   4.901  0.00  0.00    -0.082 Cl
ENDBRANCH  19  20
ENDBRANCH   1  19
TORSDOF 4
