REMARK  Name = ZINC12794993
REMARK  9 active torsions:
REMARK  status: ('A' for Active; 'I' for Inactive)
REMARK    1  A    between atoms: C_1  and  N_2
REMARK    2  A    between atoms: N_4  and  N_16
REMARK    3  A    between atoms: C_5  and  C_8
REMARK    4  A    between atoms: C_11  and  O_15
REMARK    5  A    between atoms: C_13  and  O_14
REMARK    6  A    between atoms: C_17  and  C_18
REMARK    7  A    between atoms: C_21  and  O_26
REMARK    8  A    between atoms: C_22  and  O_24
REMARK    9  A    between atoms: O_24  and  C_25
REMARK                            x       y       z     vdW  Elec       q    Type
REMARK                         _______ _______ _______ _____ _____    ______ ____
ROOT
ATOM      1  C   UNL     1       0.041  -7.367  -2.530  0.00  0.00    +0.173 C 
ATOM      2  N   UNL     1       0.058  -6.470  -1.372  0.00  0.00    -0.263 NA
ATOM      3  C   UNL     1      -0.003  -6.963  -0.160  0.00  0.00    +0.189 A 
ATOM      4  N   UNL     1      -0.000  -6.302   1.052  0.00  0.00    -0.208 N 
ATOM      5  C   UNL     1      -0.079  -7.044   2.200  0.00  0.00    +0.085 A 
ATOM      6  C   UNL     1      -0.150  -8.389   2.123  0.00  0.00    +0.077 A 
ATOM      7  S   UNL     1      -0.108  -8.668   0.360  0.00  0.00    -0.056 S 
ENDROOT
BRANCH   5   8
ATOM      8  C   UNL     1      -0.085  -6.375   3.519  0.00  0.00    +0.043 A 
ATOM      9  C   UNL     1      -0.715  -5.140   3.674  0.00  0.00    +0.017 A 
ATOM     10  C   UNL     1      -0.719  -4.518   4.905  0.00  0.00    +0.046 A 
ATOM     11  C   UNL     1      -0.097  -5.118   5.992  0.00  0.00    +0.120 A 
ATOM     12  C   UNL     1       0.532  -6.346   5.847  0.00  0.00    +0.091 A 
ATOM     13  C   UNL     1       0.537  -6.981   4.617  0.00  0.00    +0.129 A 
BRANCH  13  14
ATOM     14  O   UNL     1       1.147  -8.186   4.475  0.00  0.00    -0.506 OA
ATOM     15  H   UNL     1       2.080  -8.128   4.230  0.00  0.00    +0.292 HD
ENDBRANCH  13  14
BRANCH  11  16
ATOM     16  O   UNL     1      -0.104  -4.499   7.202  0.00  0.00    -0.507 OA
ATOM     17  H   UNL     1      -0.860  -4.731   7.758  0.00  0.00    +0.292 HD
ENDBRANCH  11  16
ENDBRANCH   5   8
BRANCH   4  18
ATOM     18  N   UNL     1       0.075  -4.904   1.106  0.00  0.00    -0.172 NA
ATOM     19  C   UNL     1       0.613  -4.245   0.126  0.00  0.00    +0.141 C 
BRANCH  19  20
ATOM     20  C   UNL     1       0.577  -2.771   0.121  0.00  0.00    -0.002 A 
ATOM     21  C   UNL     1      -0.037  -2.082   1.171  0.00  0.00    +0.013 A 
ATOM     22  C   UNL     1      -0.070  -0.704   1.164  0.00  0.00    +0.050 A 
ATOM     23  C   UNL     1       0.504   0.002   0.117  0.00  0.00    +0.158 A 
ATOM     24  C   UNL     1       1.113  -0.678  -0.936  0.00  0.00    +0.162 A 
ATOM     25  C   UNL     1       1.155  -2.060  -0.933  0.00  0.00    +0.059 A 
BRANCH  24  26
ATOM     26  O   UNL     1       1.670   0.018  -1.963  0.00  0.00    -0.491 OA
ATOM     27  C   UNL     1       2.277  -0.744  -3.009  0.00  0.00    +0.277 C 
ENDBRANCH  24  26
BRANCH  23  28
ATOM     28  O   UNL     1       0.467   1.361   0.114  0.00  0.00    -0.503 OA
ATOM     29  H   UNL     1       1.225   1.776   0.549  0.00  0.00    +0.292 HD
ENDBRANCH  23  28
ENDBRANCH  19  20
ENDBRANCH   4  18
TORSDOF 7
