REMARK  Name = ZINC39330855
REMARK  13 active torsions:
REMARK  status: ('A' for Active; 'I' for Inactive)
REMARK    1  A    between atoms: C_1  and  O_2
REMARK    2  A    between atoms: O_2  and  C_3
REMARK    3  A    between atoms: C_9  and  C_12
REMARK    4  A    between atoms: C_12  and  C_13
REMARK    5  A    between atoms: C_13  and  N_14
REMARK    6  A    between atoms: N_14  and  C_15
REMARK    7  A    between atoms: C_15  and  C_16
REMARK    8  A    between atoms: C_16  and  C_18
REMARK    9  A    between atoms: C_16  and  O_39
REMARK   10  A    between atoms: C_18  and  N_19
REMARK   11  A    between atoms: C_21  and  C_29
REMARK   12  A    between atoms: C_30  and  C_31
REMARK   13  A    between atoms: C_31  and  C_33
REMARK                            x       y       z     vdW  Elec       q    Type
REMARK                         _______ _______ _______ _____ _____    ______ ____
ROOT
ATOM      1  C   UNL     1      -2.582  -8.350  -0.996  0.00  0.00    +0.115 C 
ENDROOT
BRANCH   1   2
ATOM      2  O   UNL     1      -2.601  -8.051   0.401  0.00  0.00    -0.392 OA
ATOM      3  H   UNL     1      -3.208  -7.338   0.642  0.00  0.00    +0.210 HD
ENDBRANCH   1   2
BRANCH   1   4
ATOM      4  C   UNL     1      -2.153  -7.106  -1.778  0.00  0.00    -0.049 C 
BRANCH   4   5
ATOM      5  N   UNL     1      -0.766  -6.766  -1.435  0.00  0.00    +0.381 N 
ATOM      6  H   UNL     1      -0.161  -7.538  -1.673  0.00  0.00    -0.086 HD
ATOM      7  H   UNL     1      -0.700  -6.580  -0.445  0.00  0.00    -0.086 HD
BRANCH   5   8
ATOM      8  C   UNL     1      -0.354  -5.573  -2.186  0.00  0.00    -0.078 C 
BRANCH   8   9
ATOM      9  C   UNL     1       1.091  -5.218  -1.828  0.00  0.00    +0.018 C 
BRANCH   9  16
ATOM     10  C   UNL     1       0.606  -0.608  -1.056  0.00  0.00    +0.121 A 
ATOM     11  C   UNL     1       1.169   0.167  -2.067  0.00  0.00    +0.047 A 
ATOM     12  C   UNL     1       1.785  -0.428  -3.146  0.00  0.00    +0.030 A 
ATOM     13  C   UNL     1       1.849  -1.815  -3.233  0.00  0.00    +0.047 A 
ATOM     14  N   UNL     1       2.383  -2.682  -4.162  0.00  0.00    -0.360 N 
ATOM     15  C   UNL     1       2.173  -3.974  -3.767  0.00  0.00    +0.087 A 
ATOM     16  C   UNL     1       1.513  -3.994  -2.598  0.00  0.00    -0.024 A 
ATOM     17  C   UNL     1       1.281  -2.599  -2.213  0.00  0.00    +0.006 A 
ATOM     18  C   UNL     1       0.664  -1.986  -1.121  0.00  0.00    +0.056 A 
ATOM     19  H   UNL     1       2.839  -2.415  -4.976  0.00  0.00    +0.165 HD
BRANCH  10  21
ATOM     20  C   UNL     1      -0.017   1.425   0.010  0.00  0.00    +0.277 C 
ATOM     21  O   UNL     1       0.002  -0.004   0.002  0.00  0.00    -0.495 OA
ENDBRANCH  10  21
ENDBRANCH   9  16
ENDBRANCH   8   9
ENDBRANCH   5   8
ENDBRANCH   4   5
ENDBRANCH   1   4
BRANCH   1  22
ATOM     22  C   UNL     1      -3.980  -8.777  -1.445  0.00  0.00    +0.134 C 
BRANCH  22  23
ATOM     23  N   UNL     1      -4.391  -9.968  -0.697  0.00  0.00    -0.326 N 
ATOM     24  C   UNL     1      -4.135 -11.350  -1.111  0.00  0.00    +0.117 C 
ATOM     25  C   UNL     1      -4.753 -12.223  -0.007  0.00  0.00    +0.061 C 
ATOM     26  C   UNL     1      -5.330 -11.233   0.981  0.00  0.00    -0.018 A 
ATOM     27  C   UNL     1      -5.077  -9.951   0.518  0.00  0.00    +0.034 A 
ATOM     28  C   UNL     1      -5.515  -8.860   1.273  0.00  0.00    +0.023 A 
ATOM     29  C   UNL     1      -6.184  -9.060   2.461  0.00  0.00    +0.002 A 
ATOM     30  C   UNL     1      -6.427 -10.344   2.916  0.00  0.00    +0.000 A 
ATOM     31  C   UNL     1      -6.005 -11.429   2.170  0.00  0.00    +0.006 A 
BRANCH  25  32
ATOM     32  C   UNL     1      -5.841 -13.098  -0.575  0.00  0.00    -0.013 C 
ATOM     33  C   UNL     1      -5.741 -14.423  -0.490  0.00  0.00    +0.048 C 
BRANCH  33  34
ATOM     34  C   UNL     1      -6.802 -15.277  -1.044  0.00  0.00    +0.186 C 
ATOM     35  O   UNL     1      -7.771 -14.772  -1.579  0.00  0.00    -0.287 OA
BRANCH  34  36
ATOM     36  C   UNL     1      -6.692 -16.748  -0.951  0.00  0.00    +0.022 A 
ATOM     37  C   UNL     1      -5.583 -17.330  -0.332  0.00  0.00    +0.012 A 
ATOM     38  C   UNL     1      -5.487 -18.703  -0.248  0.00  0.00    +0.001 A 
ATOM     39  C   UNL     1      -6.484 -19.504  -0.776  0.00  0.00    +0.000 A 
ATOM     40  C   UNL     1      -7.585 -18.933  -1.391  0.00  0.00    +0.001 A 
ATOM     41  C   UNL     1      -7.698 -17.561  -1.476  0.00  0.00    +0.012 A 
ENDBRANCH  34  36
ENDBRANCH  33  34
ENDBRANCH  25  32
ENDBRANCH  22  23
ENDBRANCH   1  22
TORSDOF 12
