REMARK  Name = ZINC60361512
REMARK  8 active torsions:
REMARK  status: ('A' for Active; 'I' for Inactive)
REMARK    1  A    between atoms: C_1  and  C_2
REMARK    2  A    between atoms: C_3  and  C_13
REMARK    3  A    between atoms: C_4  and  C_12
REMARK    4  A    between atoms: C_13  and  C_14
REMARK    5  A    between atoms: N_16  and  C_17
REMARK    6  A    between atoms: C_17  and  C_19
REMARK    7  A    between atoms: C_17  and  C_26
REMARK    8  A    between atoms: C_19  and  C_20
REMARK                            x       y       z     vdW  Elec       q    Type
REMARK                         _______ _______ _______ _____ _____    ______ ____
ROOT
ATOM      1  C   UNL     1      -2.798   0.384   1.591  0.00  0.00    +0.218 C 
ATOM      2  O   UNL     1      -2.140  -0.002   2.533  0.00  0.00    -0.275 OA
ATOM      3  N   UNL     1      -3.948   1.055   1.801  0.00  0.00    -0.308 N 
ATOM      4  H   UNL     1      -4.474   1.363   1.047  0.00  0.00    +0.149 HD
ENDROOT
BRANCH   1   5
ATOM      5  C   UNL     1      -2.331   0.112   0.184  0.00  0.00    +0.134 C 
BRANCH   5   8
ATOM      6  C   UNL     1       0.194   1.538   0.444  0.00  0.00    +0.066 C 
ATOM      7  C   UNL     1       0.185   0.034   0.350  0.00  0.00    +0.047 A 
ATOM      8  C   UNL     1      -1.030  -0.649   0.225  0.00  0.00    +0.004 A 
ATOM      9  C   UNL     1      -1.024  -2.005   0.141  0.00  0.00    +0.049 A 
ATOM     10  N   UNL     1       0.164  -2.662   0.181  0.00  0.00    -0.199 N 
ATOM     11  C   UNL     1       1.333  -1.966   0.303  0.00  0.00    +0.255 A 
ATOM     12  N   UNL     1       1.318  -0.630   0.380  0.00  0.00    -0.216 NA
ATOM     13  N   UNL     1       2.323  -2.853   0.316  0.00  0.00    -0.176 NA
ATOM     14  C   UNL     1       1.826  -4.082   0.207  0.00  0.00    +0.234 A 
ATOM     15  N   UNL     1       0.513  -4.018   0.121  0.00  0.00    -0.128 NA
ATOM     16  N   UNL     1       2.577  -5.255   0.186  0.00  0.00    -0.326 N 
ATOM     17  C   UNL     1      -2.316  -2.768   0.006  0.00  0.00    +0.066 C 
ATOM     18  H   UNL     1       3.543  -5.213   0.255  0.00  0.00    +0.145 HD
ATOM     19  H   UNL     1       2.133  -6.113   0.102  0.00  0.00    +0.145 HD
ENDBRANCH   5   8
ENDBRANCH   1   5
BRANCH   3  20
ATOM     20  C   UNL     1      -4.402   1.319   3.168  0.00  0.00    +0.103 C 
BRANCH  20  21
ATOM     21  C   UNL     1      -3.744   2.574   3.683  0.00  0.00    -0.027 A 
ATOM     22  C   UNL     1      -3.587   3.664   2.848  0.00  0.00    +0.005 A 
ATOM     23  C   UNL     1      -2.984   4.815   3.320  0.00  0.00    +0.000 A 
ATOM     24  C   UNL     1      -2.536   4.875   4.626  0.00  0.00    +0.000 A 
ATOM     25  C   UNL     1      -2.693   3.785   5.461  0.00  0.00    +0.000 A 
ATOM     26  C   UNL     1      -3.301   2.636   4.991  0.00  0.00    +0.005 A 
ENDBRANCH  20  21
BRANCH  20  27
ATOM     27  C   UNL     1      -5.921   1.501   3.175  0.00  0.00    +0.030 C 
BRANCH  27  28
ATOM     28  C   UNL     1      -6.594   0.186   2.775  0.00  0.00    -0.009 C 
ATOM     29  C   UNL     1      -8.102   0.406   2.640  0.00  0.00    +0.003 C 
ATOM     30  C   UNL     1      -8.774  -0.909   2.240  0.00  0.00    +0.000 C 
ATOM     31  C   UNL     1      -8.507  -1.966   3.314  0.00  0.00    +0.000 C 
ATOM     32  C   UNL     1      -6.999  -2.185   3.449  0.00  0.00    +0.000 C 
ATOM     33  C   UNL     1      -6.326  -0.870   3.849  0.00  0.00    +0.003 C 
ENDBRANCH  27  28
ENDBRANCH  20  27
ENDBRANCH   3  20
TORSDOF 6
