REMARK  Name = ZINC11865546
REMARK  12 active torsions:
REMARK  status: ('A' for Active; 'I' for Inactive)
REMARK    1  A    between atoms: C_1  and  C_2
REMARK    2  A    between atoms: C_12  and  C_13
REMARK    3  A    between atoms: C_13  and  C_14
REMARK    4  A    between atoms: N_16  and  CA_17
REMARK    5  A    between atoms: CA_17  and  CB_19
REMARK    6  A    between atoms: CA_17  and  C_27
REMARK    7  A    between atoms: CB_19  and  CG_20
REMARK    8  A    between atoms: CZ_23  and  OH_26
REMARK    9  A    between atoms: C_31  and  C_32
REMARK   10  A    between atoms: C_32  and  C_33
REMARK   11  A    between atoms: C_32  and  C_34
REMARK   12  A    between atoms: C_32  and  C_35
REMARK                            x       y       z     vdW  Elec       q    Type
REMARK                         _______ _______ _______ _____ _____    ______ ____
ROOT
ATOM      1  C   UNK A   0      -0.018   1.503   0.010  0.00  0.00    +0.045 C 
ATOM      2  C   UNK A   0       0.002  -0.004   0.002  0.00  0.00    -0.029 A 
ATOM      3  C   UNK A   0      -0.006  -0.750  -1.260  0.00  0.00    +0.022 A 
ATOM      4  C   UNK A   0      -0.021  -0.081  -2.484  0.00  0.00    +0.023 A 
ATOM      5  C   UNK A   0      -0.024  -0.818  -3.661  0.00  0.00    +0.025 A 
ATOM      6  C   UNK A   0      -0.005  -2.227  -3.622  0.00  0.00    +0.139 A 
ATOM      7  C   UNK A   0       0.016  -2.884  -2.401  0.00  0.00    +0.093 A 
ATOM      8  C   UNK A   0       0.018  -2.160  -1.222  0.00  0.00    +0.143 A 
ATOM      9  O   UNK A   0       0.038  -2.796  -0.029  0.00  0.00    -0.422 OA
ATOM     10  C   UNK A   0       0.041  -2.118   1.129  0.00  0.00    +0.341 A 
ATOM     11  O   UNK A   0       0.059  -2.736   2.178  0.00  0.00    -0.245 OA
ATOM     12  C   UNK A   0       0.023  -0.707   1.163  0.00  0.00    +0.049 A 
ATOM     13  O   UNK A   0      -0.013  -2.659  -4.900  0.00  0.00    -0.463 OA
ATOM     14  C   UNK A   0      -0.035  -1.624  -5.758  0.00  0.00    +0.200 A 
ATOM     15  C   UNK A   0      -0.043  -0.465  -5.087  0.00  0.00    +0.003 A 
ENDROOT
BRANCH  15  16
ATOM     16  C   UNK A   0      -0.068   0.922  -5.677  0.00  0.00    -0.009 C 
ATOM     17  C   UNK A   0      -0.082   0.827  -7.204  0.00  0.00    +0.015 C 
ATOM     18  C   UNK A   0      -1.322   1.657  -5.200  0.00  0.00    +0.015 C 
ATOM     19  C   UNK A   0       1.176   1.690  -5.225  0.00  0.00    +0.015 C 
ENDBRANCH  15  16
BRANCH  12  20
ATOM     20  C   UNK A   0       0.025   0.017   2.485  0.00  0.00    +0.138 C 
BRANCH  20  21
ATOM     21  C   UNK A   0      -1.394   0.239   2.939  0.00  0.00    +0.218 C 
ATOM     22  O   UNK A   0      -2.317  -0.152   2.256  0.00  0.00    -0.275 OA
ATOM     23  N   TYR A   1      -1.638   0.872   4.103  0.00  0.00    -0.302 N 
ATOM     24  H   TYR A   1      -0.900   1.184   4.649  0.00  0.00    +0.150 HD
BRANCH  23  25
ATOM     25  CA  TYR A   1      -3.018   1.087   4.545  0.00  0.00    +0.191 C 
BRANCH  25  26
ATOM     26  C   TYR A   1      -3.510  -0.137   5.274  0.00  0.00    +0.376 C 
ATOM     27  O   TYR A   1      -2.782  -1.091   5.410  0.00  0.00    -0.244 OA
ATOM     28  OXT TYR A   1      -4.756  -0.166   5.771  0.00  0.00    -0.244 OA
ENDBRANCH  25  26
BRANCH  25  29
ATOM     29  CB  TYR A   1      -3.071   2.295   5.482  0.00  0.00    +0.069 C 
BRANCH  29  30
ATOM     30  CG  TYR A   1      -2.697   3.540   4.720  0.00  0.00    -0.045 A 
ATOM     31  CD2 TYR A   1      -1.375   3.942   4.660  0.00  0.00    +0.007 A 
ATOM     32  CE2 TYR A   1      -1.030   5.080   3.957  0.00  0.00    +0.045 A 
ATOM     33  CZ  TYR A   1      -2.011   5.825   3.320  0.00  0.00    +0.117 A 
ATOM     34  CE1 TYR A   1      -3.337   5.423   3.386  0.00  0.00    +0.045 A 
ATOM     35  CD1 TYR A   1      -3.677   4.281   4.086  0.00  0.00    +0.007 A 
BRANCH  33  36
ATOM     36  OH  TYR A   1      -1.673   6.948   2.632  0.00  0.00    -0.507 OA
ATOM     37  HH  TYR A   1      -1.686   7.754   3.165  0.00  0.00    +0.292 HD
ENDBRANCH  33  36
ENDBRANCH  29  30
ENDBRANCH  25  29
ENDBRANCH  23  25
ENDBRANCH  20  21
ENDBRANCH  12  20
TORSDOF 8
