REMARK  Name = ZINC12375654
REMARK  4 active torsions:
REMARK  status: ('A' for Active; 'I' for Inactive)
REMARK    1  A    between atoms: C_5  and  N_7
REMARK    2  A    between atoms: N_7  and  S_8
REMARK    3  A    between atoms: S_8  and  C_11
REMARK    4  A    between atoms: C_24  and  C_27
REMARK                            x       y       z     vdW  Elec       q    Type
REMARK                         _______ _______ _______ _____ _____    ______ ____
ROOT
ATOM      1  C   UNL     1       1.321   1.845   0.127  0.00  0.00    +0.109 A 
ATOM      2  C   UNL     1       0.111   1.179   0.204  0.00  0.00    +0.030 A 
ATOM      3  C   UNL     1      -1.062   1.902   0.293  0.00  0.00    +0.025 A 
ATOM      4  C   UNL     1      -1.024   3.290   0.317  0.00  0.00    +0.031 A 
ATOM      5  C   UNL     1       0.187   3.962   0.240  0.00  0.00    -0.018 A 
ATOM      6  C   UNL     1       1.359   3.224   0.145  0.00  0.00    +0.034 A 
ATOM      7  C   UNL     1       0.277   5.455   0.256  0.00  0.00    +0.049 C 
ATOM      8  C   UNL     1       0.764   5.964   1.591  0.00  0.00    -0.023 C 
ATOM      9  C   UNL     1       0.162   7.088   1.895  0.00  0.00    -0.030 C 
ATOM     10  C   UNL     1      -0.806   7.485   0.797  0.00  0.00    +0.033 C 
ATOM     11  C   UNL     1      -1.090   6.141   0.064  0.00  0.00    +0.029 C 
ATOM     12  C   UNL     1      -2.163   5.401   0.869  0.00  0.00    +0.105 C 
ATOM     13  N   UNL     1      -2.221   4.008   0.415  0.00  0.00    -0.336 N 
ATOM     14  H   UNL     1      -3.068   3.594   0.189  0.00  0.00    +0.147 HD
ENDROOT
BRANCH  12  15
ATOM     15  C   UNL     1      -1.811   5.441   2.334  0.00  0.00    -0.027 A 
ATOM     16  C   UNL     1      -0.877   4.559   2.844  0.00  0.00    +0.008 A 
ATOM     17  C   UNL     1      -0.550   4.598   4.186  0.00  0.00    +0.038 A 
ATOM     18  C   UNL     1      -1.166   5.514   5.022  0.00  0.00    +0.123 A 
ATOM     19  C   UNL     1      -2.105   6.394   4.511  0.00  0.00    +0.038 A 
ATOM     20  C   UNL     1      -2.427   6.356   3.167  0.00  0.00    +0.008 A 
ATOM     21  F   UNL     1      -0.851   5.550   6.335  0.00  0.00    -0.205 F 
ENDBRANCH  12  15
BRANCH   1  22
ATOM     22  S   UNL     1       2.821   0.927   0.005  0.00  0.00    +0.072 S 
ATOM     23  O   UNL     1       3.854   1.771   0.496  0.00  0.00    -0.150 OA
ATOM     24  O   UNL     1       2.558  -0.355   0.557  0.00  0.00    -0.150 OA
BRANCH  22  25
ATOM     25  N   UNL     1       3.124   0.697  -1.607  0.00  0.00    -0.213 N 
ATOM     26  H   UNL     1       3.177  -0.203  -1.966  0.00  0.00    +0.174 HD
BRANCH  25  31
ATOM     27  C   UNL     1       4.120   4.023  -2.814  0.00  0.00    +0.002 A 
ATOM     28  C   UNL     1       3.658   3.979  -4.117  0.00  0.00    +0.003 A 
ATOM     29  C   UNL     1       3.019   2.848  -4.590  0.00  0.00    +0.040 A 
ATOM     30  C   UNL     1       2.845   1.754  -3.762  0.00  0.00    +0.146 A 
ATOM     31  C   UNL     1       3.303   1.798  -2.449  0.00  0.00    +0.083 A 
ATOM     32  C   UNL     1       3.944   2.937  -1.979  0.00  0.00    +0.027 A 
ATOM     33  F   UNL     1       2.226   0.646  -4.225  0.00  0.00    -0.204 F 
ENDBRANCH  25  31
ENDBRANCH  22  25
ENDBRANCH   1  22
TORSDOF 4
