REMARK  Name = ZINC12560398
REMARK  5 active torsions:
REMARK  status: ('A' for Active; 'I' for Inactive)
REMARK    1  A    between atoms: C_4  and  C_7
REMARK    2  A    between atoms: C_8  and  C_25
REMARK    3  A    between atoms: C_9  and  C_15
REMARK    4  A    between atoms: C_18  and  O_21
REMARK    5  A    between atoms: O_21  and  C_22
REMARK                            x       y       z     vdW  Elec       q    Type
REMARK                         _______ _______ _______ _____ _____    ______ ____
ROOT
ATOM      1  C   UNL     1      -0.004   0.010  -0.076  0.00  0.00    +0.049 C 
ATOM      2  C   UNL     1       1.160  -0.651  -0.294  0.00  0.00    +0.024 C 
ATOM      3  C   UNL     1       2.449   0.141  -0.202  0.00  0.00    +0.139 C 
ATOM      4  N   UNL     1       2.335   1.573   0.117  0.00  0.00    -0.288 N 
ATOM      5  C   UNL     1       1.109   2.098   0.309  0.00  0.00    +0.305 C 
ATOM      6  O   UNL     1       1.012   3.281   0.572  0.00  0.00    -0.252 OA
ATOM      7  N   UNL     1      -0.006   1.363   0.219  0.00  0.00    -0.269 N 
ATOM      8  H   UNL     1       3.127   2.128   0.188  0.00  0.00    +0.151 HD
ATOM      9  H   UNL     1      -0.859   1.801   0.364  0.00  0.00    +0.156 HD
ENDROOT
BRANCH   2  10
ATOM     10  C   UNL     1       1.171  -2.085  -0.607  0.00  0.00    +0.072 A 
ATOM     11  C   UNL     1       1.841  -2.975   0.256  0.00  0.00    +0.029 A 
ATOM     12  C   UNL     1       1.854  -4.307  -0.022  0.00  0.00    +0.012 A 
ATOM     13  C   UNL     1       1.195  -4.755  -1.187  0.00  0.00    +0.000 A 
ATOM     14  C   UNL     1       1.175  -6.114  -1.533  0.00  0.00    +0.010 A 
ATOM     15  C   UNL     1       0.529  -6.513  -2.664  0.00  0.00    +0.001 A 
ATOM     16  C   UNL     1      -0.112  -5.588  -3.485  0.00  0.00    +0.002 A 
ATOM     17  C   UNL     1      -0.112  -4.261  -3.180  0.00  0.00    +0.028 A 
ATOM     18  C   UNL     1       0.543  -3.811  -2.020  0.00  0.00    +0.072 A 
ATOM     19  N   UNL     1       0.557  -2.515  -1.699  0.00  0.00    -0.247 NA
ENDBRANCH   2  10
BRANCH   1  23
ATOM     20  C   UNL     1      -3.687  -2.092  -0.302  0.00  0.00    +0.000 A 
ATOM     21  C   UNL     1      -2.643  -2.610   0.444  0.00  0.00    +0.001 A 
ATOM     22  C   UNL     1      -1.444  -1.932   0.522  0.00  0.00    +0.010 A 
ATOM     23  C   UNL     1      -1.285  -0.722  -0.155  0.00  0.00    -0.003 A 
ATOM     24  C   UNL     1      -2.344  -0.202  -0.903  0.00  0.00    +0.010 A 
ATOM     25  C   UNL     1      -3.536  -0.893  -0.976  0.00  0.00    +0.001 A 
ENDBRANCH   1  23
BRANCH   3  26
ATOM     26  C   UNL     1       3.164   0.017  -1.523  0.00  0.00    -0.022 A 
ATOM     27  C   UNL     1       2.772   0.795  -2.596  0.00  0.00    +0.009 A 
ATOM     28  C   UNL     1       3.429   0.687  -3.806  0.00  0.00    +0.046 A 
ATOM     29  C   UNL     1       4.477  -0.212  -3.947  0.00  0.00    +0.127 A 
ATOM     30  C   UNL     1       4.864  -0.996  -2.871  0.00  0.00    +0.046 A 
ATOM     31  C   UNL     1       4.207  -0.880  -1.661  0.00  0.00    +0.009 A 
BRANCH  29  32
ATOM     32  O   UNL     1       5.122  -0.324  -5.138  0.00  0.00    -0.434 OA
BRANCH  32  33
ATOM     33  C   UNL     1       4.669   0.515  -6.203  0.00  0.00    +0.541 C 
ATOM     34  F   UNL     1       3.325   0.237  -6.476  0.00  0.00    -0.166 F 
ATOM     35  F   UNL     1       4.801   1.857  -5.828  0.00  0.00    -0.166 F 
ENDBRANCH  32  33
ENDBRANCH  29  32
ENDBRANCH   3  26
TORSDOF 5
