REMARK  Name = ZINC32072020
REMARK  8 active torsions:
REMARK  status: ('A' for Active; 'I' for Inactive)
REMARK    1  A    between atoms: C_1  and  C_2
REMARK    2  A    between atoms: C_7  and  N_8
REMARK    3  A    between atoms: C_15  and  O_17
REMARK    4  A    between atoms: C_20  and  C_30
REMARK    5  A    between atoms: N_24  and  C_27
REMARK    6  A    between atoms: C_27  and  C_28
REMARK    7  A    between atoms: C_30  and  C_31
REMARK    8  A    between atoms: C_30  and  C_32
REMARK                            x       y       z     vdW  Elec       q    Type
REMARK                         _______ _______ _______ _____ _____    ______ ____
ROOT
ATOM      1  N   UNL     1       0.168   0.117   2.335  0.00  0.00    -0.214 N 
ATOM      2  C   UNL     1       0.377  -0.365   3.581  0.00  0.00    +0.164 A 
ATOM      3  C   UNL     1       0.368   0.724   4.447  0.00  0.00    +0.036 A 
ATOM      4  C   UNL     1       0.158   1.863   3.692  0.00  0.00    +0.142 A 
ATOM      5  N   UNL     1       0.044   1.512   2.431  0.00  0.00    -0.173 NA
ATOM      6  C   UNL     1       0.560   0.545   5.926  0.00  0.00    +0.112 C 
ATOM      7  C   UNL     1       1.410  -0.702   6.163  0.00  0.00    +0.121 C 
ATOM      8  C   UNL     1       1.007  -1.822   5.246  0.00  0.00    +0.191 C 
ATOM      9  N   UNL     1       0.552  -1.635   4.043  0.00  0.00    -0.197 NA
ATOM     10  C   UNL     1      -0.750   0.452   6.639  0.00  0.00    -0.006 A 
ATOM     11  C   UNL     1      -1.791  -0.446   6.529  0.00  0.00    +0.010 A 
ATOM     12  C   UNL     1      -2.889  -0.243   7.357  0.00  0.00    -0.044 A 
ATOM     13  C   UNL     1      -2.933   0.809   8.248  0.00  0.00    +0.006 A 
ATOM     14  C   UNL     1      -1.891   1.716   8.365  0.00  0.00    +0.024 A 
ATOM     15  C   UNL     1      -0.782   1.524   7.540  0.00  0.00    +0.042 A 
ATOM     16  N   UNL     1       0.384   2.264   7.447  0.00  0.00    -0.259 N 
ATOM     17  C   UNL     1       1.231   1.761   6.524  0.00  0.00    +0.236 C 
ATOM     18  O   UNL     1       2.322   2.201   6.230  0.00  0.00    -0.274 OA
ENDROOT
BRANCH   1  25
ATOM     19  C   UNL     1      -1.979   0.628   0.538  0.00  0.00    +0.046 C 
ATOM     20  C   UNL     1      -0.937  -0.423   0.255  0.00  0.00    -0.025 A 
ATOM     21  C   UNL     1      -1.004  -1.168  -0.907  0.00  0.00    +0.005 A 
ATOM     22  C   UNL     1      -0.048  -2.132  -1.167  0.00  0.00    +0.000 A 
ATOM     23  C   UNL     1       0.977  -2.355  -0.267  0.00  0.00    +0.002 A 
ATOM     24  C   UNL     1       1.050  -1.614   0.897  0.00  0.00    +0.028 A 
ATOM     25  C   UNL     1       0.094  -0.641   1.159  0.00  0.00    +0.071 A 
ENDBRANCH   1  25
BRANCH  12  26
ATOM     26  C   UNL     1      -4.057  -1.193   7.279  0.00  0.00    +0.013 C 
ATOM     27  C   UNL     1      -4.264  -1.859   8.641  0.00  0.00    +0.012 C 
ATOM     28  C   UNL     1      -5.319  -0.420   6.892  0.00  0.00    +0.012 C 
ENDBRANCH  12  26
BRANCH   8  29
ATOM     29  O   UNL     1       1.124  -3.088   5.695  0.00  0.00    -0.495 OA
ATOM     30  H   UNL     1       0.848  -3.759   5.056  0.00  0.00    +0.293 HD
ENDBRANCH   8  29
BRANCH  16  31
ATOM     31  C   UNL     1       0.665   3.453   8.256  0.00  0.00    +0.202 C 
BRANCH  31  32
ATOM     32  C   UNL     1       1.344   3.052   9.499  0.00  0.00    -0.086 C 
ATOM     33  C   UNL     1       1.886   2.732  10.490  0.00  0.00    +0.005 C 
ENDBRANCH  31  32
ENDBRANCH  16  31
TORSDOF 5
