REMARK  Name = ZINC15369303
REMARK  10 active torsions:
REMARK  status: ('A' for Active; 'I' for Inactive)
REMARK    1  A    between atoms: C_1  and  C_2
REMARK    2  A    between atoms: C_5  and  O_24
REMARK    3  A    between atoms: C_6  and  N_8
REMARK    4  A    between atoms: C_9  and  C_11
REMARK    5  A    between atoms: C_11  and  C_13
REMARK    6  A    between atoms: C_11  and  N_14
REMARK    7  A    between atoms: C_15  and  C_23
REMARK    8  A    between atoms: C_16  and  N_20
REMARK    9  A    between atoms: C_17  and  C_19
REMARK   10  A    between atoms: O_24  and  C_25
REMARK                            x       y       z     vdW  Elec       q    Type
REMARK                         _______ _______ _______ _____ _____    ______ ____
ROOT
ATOM      1  N   UNL     1      -2.418  -0.038   0.037  0.00  0.00    -0.281 N 
ATOM      2  C   UNL     1      -3.573  -0.727  -0.052  0.00  0.00    +0.242 C 
ATOM      3  O   UNL     1      -3.557  -1.940  -0.059  0.00  0.00    -0.273 OA
ATOM      4  H   UNL     1      -2.435   0.928   0.123  0.00  0.00    +0.155 HD
ENDROOT
BRANCH   1  10
ATOM      5  C   UNL     1       0.203  -3.978  -1.300  0.00  0.00    +0.044 C 
ATOM      6  C   UNL     1       0.106  -2.628  -0.637  0.00  0.00    -0.048 A 
ATOM      7  C   UNL     1       1.227  -2.064  -0.055  0.00  0.00    +0.007 A 
ATOM      8  C   UNL     1       1.145  -0.826   0.555  0.00  0.00    +0.048 A 
ATOM      9  C   UNL     1      -0.063  -0.147   0.585  0.00  0.00    +0.141 A 
ATOM     10  C   UNL     1      -1.193  -0.718   0.004  0.00  0.00    +0.076 A 
ATOM     11  C   UNL     1      -1.102  -1.958  -0.611  0.00  0.00    +0.030 A 
BRANCH   9  12
ATOM     12  O   UNL     1      -0.145   1.070   1.185  0.00  0.00    -0.493 OA
ATOM     13  C   UNL     1       1.052   1.590   1.765  0.00  0.00    +0.277 C 
ENDBRANCH   9  12
ENDBRANCH   1  10
BRANCH   2  14
ATOM     14  C   UNL     1      -4.885   0.010  -0.143  0.00  0.00    +0.190 C 
ATOM     15  C   UNL     1      -4.886   0.896  -1.390  0.00  0.00    +0.042 C 
BRANCH  14  16
ATOM     16  N   UNL     1      -5.983  -0.957  -0.230  0.00  0.00    -0.254 N 
ATOM     17  C   UNL     1      -7.006  -1.076   0.643  0.00  0.00    +0.067 A 
ATOM     18  C   UNL     1      -7.802  -2.080   0.209  0.00  0.00    +0.169 A 
ATOM     19  C   UNL     1      -7.247  -2.592  -0.969  0.00  0.00    +0.090 A 
ATOM     20  N   UNL     1      -6.160  -1.915  -1.235  0.00  0.00    -0.173 NA
ATOM     21  C   UNL     1      -7.809  -3.723  -1.792  0.00  0.00    +0.070 C 
ATOM     22  C   UNL     1      -7.222  -0.241   1.879  0.00  0.00    +0.068 C 
BRANCH  18  23
ATOM     23  N   UNL     1      -9.042  -2.554   0.865  0.00  0.00    +0.060 N 
ATOM     24  O   UNL     1     -10.115  -2.058   0.569  0.00  0.00    -0.126 OA
ATOM     25  O   UNL     1      -8.990  -3.438   1.700  0.00  0.00    -0.126 OA
ENDBRANCH  18  23
ENDBRANCH  14  16
ENDBRANCH   2  14
TORSDOF 5
