REMARK  Name = ZINC42500555
REMARK  9 active torsions:
REMARK  status: ('A' for Active; 'I' for Inactive)
REMARK    1  A    between atoms: C_1  and  N_2
REMARK    2  A    between atoms: N_2  and  C_3
REMARK    3  A    between atoms: N_2  and  C_10
REMARK    4  A    between atoms: C_3  and  C_4
REMARK    5  A    between atoms: C_4  and  C_6
REMARK    6  A    between atoms: C_4  and  O_9
REMARK    7  A    between atoms: C_6  and  O_7
REMARK    8  A    between atoms: O_7  and  C_8
REMARK    9  A    between atoms: C_15  and  N_16
REMARK                            x       y       z     vdW  Elec       q    Type
REMARK                         _______ _______ _______ _____ _____    ______ ____
ROOT
ATOM      1  C   UNL     1       0.000  -0.698  -1.214  0.00  0.00    +0.052 A 
ATOM      2  C   UNL     1       1.199  -1.028  -1.823  0.00  0.00    +0.048 A 
ATOM      3  C   UNL     1       1.203  -1.718  -3.033  0.00  0.00    +0.039 A 
ATOM      4  C   UNL     1      -0.009  -2.067  -3.616  0.00  0.00    -0.016 A 
ATOM      5  C   UNL     1      -1.205  -1.741  -3.015  0.00  0.00    +0.030 A 
ATOM      6  C   UNL     1      -1.210  -1.058  -1.807  0.00  0.00    +0.046 A 
ATOM      7  C   UNL     1       0.330  -2.792  -4.899  0.00  0.00    +0.133 C 
ATOM      8  C   UNL     1       1.843  -2.792  -4.934  0.00  0.00    +0.222 C 
ATOM      9  O   UNL     1       2.543  -3.274  -5.800  0.00  0.00    -0.275 OA
ATOM     10  N   UNL     1       2.265  -2.156  -3.829  0.00  0.00    -0.285 N 
ATOM     11  H   UNL     1       3.200  -2.018  -3.608  0.00  0.00    +0.155 HD
ENDROOT
BRANCH   6  12
ATOM     12  N   UNL     1      -2.424  -0.729  -1.188  0.00  0.00    -0.357 N 
ATOM     13  H   UNL     1      -2.424  -0.249  -0.345  0.00  0.00    +0.142 HD
ATOM     14  H   UNL     1      -3.264  -0.982  -1.603  0.00  0.00    +0.142 HD
ENDBRANCH   6  12
BRANCH   1  16
ATOM     15  C   UNL     1      -0.018   1.461   0.010  0.00  0.00    +0.129 C 
ATOM     16  N   UNL     1       0.002  -0.004   0.002  0.00  0.00    -0.329 N 
BRANCH  16  17
ATOM     17  C   UNL     1       0.024  -0.743   1.267  0.00  0.00    +0.138 C 
BRANCH  17  18
ATOM     18  C   UNL     1      -1.411  -1.020   1.720  0.00  0.00    +0.157 C 
BRANCH  18  19
ATOM     19  O   UNL     1      -2.099   0.218   1.905  0.00  0.00    -0.388 OA
ATOM     20  H   UNL     1      -1.697   0.797   2.567  0.00  0.00    +0.210 HD
ENDBRANCH  18  19
BRANCH  18  21
ATOM     21  C   UNL     1      -1.387  -1.792   3.041  0.00  0.00    +0.192 C 
BRANCH  21  22
ATOM     22  O   UNL     1      -2.721  -2.152   3.406  0.00  0.00    -0.380 OA
ATOM     23  C   UNL     1      -2.812  -2.881   4.632  0.00  0.00    +0.194 C 
ENDBRANCH  21  22
ENDBRANCH  18  21
ENDBRANCH  17  18
ENDBRANCH  16  17
ENDBRANCH   1  16
TORSDOF 7
