REMARK  Name = ZINC38693546
REMARK  3 active torsions:
REMARK  status: ('A' for Active; 'I' for Inactive)
REMARK    1  A    between atoms: C_3  and  N_11
REMARK    2  A    between atoms: C_4  and  C_8
REMARK    3  A    between atoms: C_12  and  C_14
REMARK                            x       y       z     vdW  Elec       q    Type
REMARK                         _______ _______ _______ _____ _____    ______ ____
ROOT
ATOM      1  C   UNL     1       0.056   1.173   0.663  0.00  0.00    +0.022 A 
ATOM      2  C   UNL     1       1.232   1.896   0.642  0.00  0.00    +0.025 A 
ATOM      3  C   UNL     1       2.351   1.386  -0.002  0.00  0.00    +0.048 A 
ATOM      4  C   UNL     1       2.280   0.132  -0.631  0.00  0.00    +0.086 A 
ATOM      5  C   UNL     1       1.082  -0.589  -0.601  0.00  0.00    +0.037 A 
ATOM      6  C   UNL     1      -0.018  -0.065   0.044  0.00  0.00    +0.042 A 
ATOM      7 CL   UNL     1      -1.505  -0.961   0.081  0.00  0.00    -0.084 Cl
ENDROOT
BRANCH   3   8
ATOM      8  N   UNL     1       3.537   2.114  -0.025  0.00  0.00    -0.283 N 
ATOM      9  C   UNL     1       3.502   3.458  -0.109  0.00  0.00    +0.246 C 
ATOM     10  O   UNL     1       2.437   4.040  -0.083  0.00  0.00    -0.273 OA
ATOM     11  H   UNL     1       4.390   1.653   0.019  0.00  0.00    +0.155 HD
BRANCH   9  12
ATOM     12  C   UNL     1       4.784   4.240  -0.236  0.00  0.00    +0.215 C 
ATOM     13  C   UNL     1       5.425   4.417   1.123  0.00  0.00    +0.025 C 
ATOM     14  C   UNL     1       5.478   5.732   1.334  0.00  0.00    +0.034 C 
ATOM     15  C   UNL     1       4.905   6.434   0.185  0.00  0.00    +0.121 C 
ATOM     16  N   UNL     1       4.505   5.599  -0.719  0.00  0.00    -0.274 NA
ATOM     17 BR   UNL     1       6.185   6.562   2.880  0.00  0.00    -0.049 Br
ENDBRANCH   9  12
ENDBRANCH   3   8
BRANCH   4  18
ATOM     18  C   UNL     1       3.459  -0.420  -1.317  0.00  0.00    +0.388 C 
ATOM     19  O   UNL     1       3.369  -1.469  -1.940  0.00  0.00    -0.241 OA
ATOM     20  O   UNL     1       4.529   0.171  -1.266  0.00  0.00    -0.241 OA
ENDBRANCH   4  18
TORSDOF 3
