REMARK  Name = ZINC59915543
REMARK  12 active torsions:
REMARK  status: ('A' for Active; 'I' for Inactive)
REMARK    1  A    between atoms: C_1  and  C_2
REMARK    2  A    between atoms: C_2  and  C_3
REMARK    3  A    between atoms: C_3  and  C_4
REMARK    4  A    between atoms: C_4  and  C_5
REMARK    5  A    between atoms: C_5  and  C_30
REMARK    6  A    between atoms: N_6  and  N_7
REMARK    7  A    between atoms: C_11  and  S_14
REMARK    8  A    between atoms: N_12  and  N_13
REMARK    9  A    between atoms: S_14  and  C_15
REMARK   10  A    between atoms: C_15  and  C_16
REMARK   11  A    between atoms: N_18  and  C_19
REMARK   12  A    between atoms: C_20  and  C_28
REMARK                            x       y       z     vdW  Elec       q    Type
REMARK                         _______ _______ _______ _____ _____    ______ ____
ROOT
ATOM      1  N   UNL     1       3.204  -3.606  -3.557  0.00  0.00    -0.204 N 
ATOM      2  C   UNL     1       4.401  -4.301  -3.447  0.00  0.00    +0.254 A 
ATOM      3  N   UNL     1       5.017  -4.603  -2.330  0.00  0.00    -0.109 NA
ATOM      4  N   UNL     1       6.185  -5.304  -2.656  0.00  0.00    -0.119 NA
ATOM      5  C   UNL     1       6.245  -5.407  -3.962  0.00  0.00    +0.210 A 
ATOM      6  N   UNL     1       5.141  -4.795  -4.485  0.00  0.00    -0.211 N 
ATOM      7  H   UNL     1       2.822  -3.433  -4.431  0.00  0.00    +0.177 HD
ENDROOT
BRANCH   1   9
ATOM      8  C   UNL     1       1.444  -2.513  -2.505  0.00  0.00    +0.034 C 
ATOM      9  N   UNL     1       2.548  -3.154  -2.404  0.00  0.00    -0.189 NA
ATOM     10  C   UNL     1       0.851  -2.245  -3.864  0.00  0.00    +0.062 C 
BRANCH   8  11
ATOM     11  C   UNL     1       0.739  -2.027  -1.265  0.00  0.00    +0.052 C 
BRANCH  11  12
ATOM     12  C   UNL     1       0.718  -0.497  -1.257  0.00  0.00    +0.006 C 
BRANCH  12  14
ATOM     13  C   UNL     1      -0.019   1.526   0.010  0.00  0.00    +0.004 C 
ATOM     14  C   UNL     1       0.002  -0.004   0.002  0.00  0.00    -0.003 C 
ENDBRANCH  12  14
ENDBRANCH  11  12
ENDBRANCH   8  11
ENDBRANCH   1   9
BRANCH   6  15
ATOM     15  N   UNL     1       4.832  -4.692  -5.811  0.00  0.00    -0.294 N 
ATOM     16  H   UNL     1       5.226  -3.853  -6.210  0.00  0.00    +0.163 HD
ATOM     17  H   UNL     1       5.136  -5.511  -6.318  0.00  0.00    +0.163 HD
ENDBRANCH   6  15
BRANCH   5  18
ATOM     18  S   UNL     1       7.521  -6.202  -4.881  0.00  0.00    -0.075 S 
BRANCH  18  19
ATOM     19  C   UNL     1       8.666  -6.805  -3.611  0.00  0.00    +0.173 C 
BRANCH  19  20
ATOM     20  C   UNL     1       9.820  -7.515  -4.271  0.00  0.00    +0.228 C 
ATOM     21  O   UNL     1       9.866  -7.604  -5.479  0.00  0.00    -0.275 OA
ATOM     22  N   UNL     1      10.802  -8.050  -3.518  0.00  0.00    -0.278 N 
ATOM     23  H   UNL     1      10.765  -7.978  -2.551  0.00  0.00    +0.155 HD
BRANCH  22  24
ATOM     24  C   UNL     1      11.865  -8.703  -4.126  0.00  0.00    +0.090 A 
ATOM     25  C   UNL     1      12.950  -9.312  -3.517  0.00  0.00    +0.084 A 
ATOM     26  C   UNL     1      13.936  -9.933  -4.384  0.00  0.00    -0.018 A 
ATOM     27  C   UNL     1      13.656  -9.830  -5.702  0.00  0.00    -0.004 A 
ATOM     28  S   UNL     1      12.127  -8.942  -5.767  0.00  0.00    -0.077 S 
ATOM     29  C   UNL     1      14.472 -10.362  -6.839  0.00  0.00    +0.043 C 
ATOM     30  C   UNL     1      15.868 -10.715  -6.306  0.00  0.00    +0.005 C 
ATOM     31  C   UNL     1      15.716 -11.536  -5.023  0.00  0.00    +0.005 C 
ATOM     32  C   UNL     1      15.187 -10.648  -3.895  0.00  0.00    +0.037 C 
BRANCH  25  33
ATOM     33  C   UNL     1      13.094  -9.329  -2.093  0.00  0.00    +0.102 C 
ATOM     34  N   UNL     1      13.208  -9.343  -0.963  0.00  0.00    -0.191 NA
ENDBRANCH  25  33
ENDBRANCH  22  24
ENDBRANCH  19  20
ENDBRANCH  18  19
ENDBRANCH   5  18
TORSDOF 10
