REMARK  Name = ZINC40426304
REMARK  10 active torsions:
REMARK  status: ('A' for Active; 'I' for Inactive)
REMARK    1  A    between atoms: C_1  and  C_2
REMARK    2  A    between atoms: C_2  and  N_3
REMARK    3  A    between atoms: N_3  and  C_4
REMARK    4  A    between atoms: N_7  and  C_8
REMARK    5  A    between atoms: C_9  and  C_22
REMARK    6  A    between atoms: N_11  and  C_14
REMARK    7  A    between atoms: C_12  and  N_13
REMARK    8  A    between atoms: C_22  and  C_23
REMARK    9  A    between atoms: C_22  and  C_24
REMARK   10  A    between atoms: C_22  and  C_25
REMARK                            x       y       z     vdW  Elec       q    Type
REMARK                         _______ _______ _______ _____ _____    ______ ____
ROOT
ATOM      1  C   UNL     1      -0.097  -1.184  -4.761  0.00  0.00    +0.098 A 
ATOM      2  C   UNL     1       0.382  -2.034  -5.765  0.00  0.00    +0.092 A 
ATOM      3  N   UNL     1      -0.641  -2.499  -6.438  0.00  0.00    -0.167 NA
ATOM      4  N   UNL     1      -1.813  -1.965  -5.889  0.00  0.00    -0.214 N 
ATOM      5  C   UNL     1      -1.458  -1.158  -4.850  0.00  0.00    +0.142 A 
ENDROOT
BRANCH   4   6
ATOM      6  C   UNL     1      -3.121  -2.219  -6.329  0.00  0.00    +0.105 A 
ATOM      7  C   UNL     1      -4.178  -1.469  -5.834  0.00  0.00    +0.069 A 
ATOM      8  C   UNL     1      -5.467  -1.721  -6.269  0.00  0.00    +0.126 A 
ATOM      9  C   UNL     1      -5.702  -2.722  -7.198  0.00  0.00    +0.041 A 
ATOM     10  C   UNL     1      -4.650  -3.470  -7.693  0.00  0.00    +0.043 A 
ATOM     11  C   UNL     1      -3.359  -3.218  -7.265  0.00  0.00    +0.149 A 
ATOM     12  F   UNL     1      -2.331  -3.947  -7.753  0.00  0.00    -0.203 F 
ATOM     13  F   UNL     1      -6.497  -0.992  -5.788  0.00  0.00    -0.205 F 
ENDBRANCH   4   6
BRANCH   1  18
ATOM     14  N   UNL     1       1.152   0.071  -1.599  0.00  0.00    -0.289 N 
ATOM     15  C   UNL     1       2.445   0.626  -2.007  0.00  0.00    +0.133 C 
ATOM     16  C   UNL     1       0.326  -0.461  -2.521  0.00  0.00    +0.306 C 
ATOM     17  O   UNL     1      -0.748  -0.922  -2.182  0.00  0.00    -0.252 OA
ATOM     18  N   UNL     1       0.689  -0.483  -3.819  0.00  0.00    -0.265 N 
ATOM     19  H   UNL     1       1.489  -0.017  -4.106  0.00  0.00    +0.157 HD
BRANCH  14  21
ATOM     20  C   UNL     1       0.005   1.393   0.109  0.00  0.00    +0.024 C 
ATOM     21  C   UNL     1       0.757   0.094  -0.188  0.00  0.00    +0.105 C 
ENDBRANCH  14  21
ENDBRANCH   1  18
BRANCH   2  22
ATOM     22  C   UNL     1       1.830  -2.358  -6.028  0.00  0.00    +0.008 C 
ATOM     23  C   UNL     1       2.441  -3.009  -4.786  0.00  0.00    +0.017 C 
ATOM     24  C   UNL     1       1.930  -3.323  -7.211  0.00  0.00    +0.017 C 
ATOM     25  C   UNL     1       2.590  -1.071  -6.355  0.00  0.00    +0.017 C 
ENDBRANCH   2  22
BRANCH   5  26
ATOM     26  N   UNL     1      -2.327  -0.437  -4.030  0.00  0.00    -0.342 N 
ATOM     27  H   UNL     1      -2.060   0.429  -3.683  0.00  0.00    +0.144 HD
ATOM     28  H   UNL     1      -3.198  -0.801  -3.807  0.00  0.00    +0.144 HD
ENDBRANCH   5  26
TORSDOF 5
