REMARK  Name = ZINC59669476
REMARK  9 active torsions:
REMARK  status: ('A' for Active; 'I' for Inactive)
REMARK    1  A    between atoms: C_1  and  C_2
REMARK    2  A    between atoms: C_4  and  C_27
REMARK    3  A    between atoms: C_6  and  C_14
REMARK    4  A    between atoms: C_17  and  O_22
REMARK    5  A    between atoms: C_18  and  O_20
REMARK    6  A    between atoms: O_20  and  C_21
REMARK    7  A    between atoms: O_22  and  C_23
REMARK    8  A    between atoms: C_23  and  C_24
REMARK    9  A    between atoms: N_29  and  C_30
REMARK                            x       y       z     vdW  Elec       q    Type
REMARK                         _______ _______ _______ _____ _____    ______ ____
ROOT
ATOM      1  C   UNL     1      -0.019   1.510   0.022  0.00  0.00    +0.028 C 
ATOM      2  C   UNL     1       0.005  -0.020   0.003  0.00  0.00    +0.084 C 
ATOM      3  C   UNL     1       0.729  -0.507  -1.257  0.00  0.00    +0.124 C 
ATOM      4  C   UNL     1       2.146   0.076  -1.299  0.00  0.00    +0.154 C 
ATOM      5  N   UNL     1       2.786  -0.145  -0.002  0.00  0.00    -0.225 N 
ATOM      6  C   UNL     1       2.116  -0.423   1.142  0.00  0.00    +0.214 A 
ATOM      7  N   UNL     1       2.993  -0.563   2.100  0.00  0.00    -0.202 NA
ATOM      8  C   UNL     1       4.223  -0.381   1.609  0.00  0.00    +0.247 A 
ATOM      9  N   UNL     1       4.142  -0.123   0.328  0.00  0.00    -0.156 NA
ATOM     10  N   UNL     1       0.728  -0.519   1.189  0.00  0.00    -0.310 N 
ATOM     11  H   UNL     1       0.262  -0.892   1.954  0.00  0.00    +0.149 HD
ENDROOT
BRANCH   4  12
ATOM     12  C   UNL     1       2.942  -0.606  -2.381  0.00  0.00    -0.019 A 
ATOM     13  C   UNL     1       3.141  -1.974  -2.332  0.00  0.00    +0.009 A 
ATOM     14  C   UNL     1       3.870  -2.605  -3.323  0.00  0.00    +0.050 A 
ATOM     15  C   UNL     1       4.403  -1.867  -4.367  0.00  0.00    +0.163 A 
ATOM     16  C   UNL     1       4.203  -0.491  -4.417  0.00  0.00    +0.162 A 
ATOM     17  C   UNL     1       3.467   0.135  -3.423  0.00  0.00    +0.055 A 
BRANCH  16  18
ATOM     18  O   UNL     1       4.724   0.238  -5.440  0.00  0.00    -0.491 OA
ATOM     19  C   UNL     1       4.478   1.645  -5.426  0.00  0.00    +0.277 C 
ENDBRANCH  16  18
BRANCH  15  20
ATOM     20  O   UNL     1       5.121  -2.486  -5.342  0.00  0.00    -0.479 OA
BRANCH  20  21
ATOM     21  C   UNL     1       5.287  -3.901  -5.226  0.00  0.00    +0.324 C 
BRANCH  21  22
ATOM     22  C   UNL     1       6.104  -4.408  -6.388  0.00  0.00    +0.248 C 
ATOM     23  O   UNL     1       6.504  -3.634  -7.231  0.00  0.00    -0.272 OA
ATOM     24  N   UNL     1       6.389  -5.721  -6.489  0.00  0.00    -0.327 N 
ATOM     25  H   UNL     1       6.069  -6.340  -5.814  0.00  0.00    +0.145 HD
ATOM     26  H   UNL     1       6.914  -6.047  -7.236  0.00  0.00    +0.145 HD
ENDBRANCH  21  22
ENDBRANCH  20  21
ENDBRANCH  15  20
ENDBRANCH   4  12
BRANCH   3  27
ATOM     27  C   UNL     1      -0.033  -0.059  -2.478  0.00  0.00    +0.224 C 
ATOM     28  O   UNL     1       0.501   0.658  -3.296  0.00  0.00    -0.275 OA
ATOM     29  N   UNL     1      -1.308  -0.456  -2.659  0.00  0.00    -0.285 N 
ATOM     30  H   UNL     1      -1.714  -1.084  -2.041  0.00  0.00    +0.155 HD
BRANCH  29  31
ATOM     31  C   UNL     1      -2.047   0.036  -3.741  0.00  0.00    +0.033 A 
ATOM     32  C   UNL     1      -3.407   0.279  -3.602  0.00  0.00    +0.023 A 
ATOM     33  C   UNL     1      -4.133   0.765  -4.671  0.00  0.00    +0.002 A 
ATOM     34  C   UNL     1      -3.507   1.011  -5.879  0.00  0.00    +0.000 A 
ATOM     35  C   UNL     1      -2.153   0.770  -6.021  0.00  0.00    +0.002 A 
ATOM     36  C   UNL     1      -1.420   0.289  -4.954  0.00  0.00    +0.023 A 
ENDBRANCH  29  31
ENDBRANCH   3  27
TORSDOF 7
