REMARK  Name = ZINC04660475
REMARK  5 active torsions:
REMARK  status: ('A' for Active; 'I' for Inactive)
REMARK    1  A    between atoms: C_9  and  C_12
REMARK    2  A    between atoms: C_12  and  N_13
REMARK    3  A    between atoms: C_14  and  C_16
REMARK    4  A    between atoms: C_19  and  N_25
REMARK    5  A    between atoms: C_20  and  N_22
REMARK                            x       y       z     vdW  Elec       q    Type
REMARK                         _______ _______ _______ _____ _____    ______ ____
ROOT
ATOM      1  N   UNL     1      -0.712   1.740  -3.662  0.00  0.00    -0.308 N 
ATOM      2  C   UNL     1      -0.262   1.443  -4.897  0.00  0.00    +0.244 C 
ATOM      3  O   UNL     1       0.693   0.702  -5.035  0.00  0.00    -0.270 OA
ATOM      4  H   UNL     1      -1.473   2.331  -3.552  0.00  0.00    +0.149 HD
ENDROOT
BRANCH   2   5
ATOM      5  C   UNL     1      -0.926   2.017  -6.082  0.00  0.00    +0.039 A 
ATOM      6  C   UNL     1      -2.024   2.869  -5.926  0.00  0.00    +0.015 A 
ATOM      7  C   UNL     1      -2.641   3.404  -7.033  0.00  0.00    +0.026 A 
ATOM      8  C   UNL     1      -2.175   3.097  -8.309  0.00  0.00    +0.055 A 
ATOM      9  C   UNL     1      -1.082   2.249  -8.468  0.00  0.00    +0.147 A 
ATOM     10  C   UNL     1      -0.457   1.715  -7.364  0.00  0.00    +0.047 A 
BRANCH   9  11
ATOM     11  N   UNL     1      -0.588   1.926  -9.825  0.00  0.00    +0.058 N 
ATOM     12  O   UNL     1       0.296   1.102  -9.971  0.00  0.00    -0.126 OA
ATOM     13  O   UNL     1      -1.067   2.485 -10.796  0.00  0.00    -0.126 OA
ENDBRANCH   9  11
BRANCH   8  14
ATOM     14  N   UNL     1      -2.801   3.638  -9.426  0.00  0.00    -0.356 N 
ATOM     15  H   UNL     1      -3.292   4.471  -9.350  0.00  0.00    +0.142 HD
ATOM     16  H   UNL     1      -2.746   3.183 -10.281  0.00  0.00    +0.142 HD
ENDBRANCH   8  14
ENDBRANCH   2   5
BRANCH   1  17
ATOM     17  C   UNL     1      -0.052   1.170  -2.485  0.00  0.00    +0.152 C 
BRANCH  17  26
ATOM     18  C   UNL     1      -4.089   1.408   2.436  0.00  0.00    +0.004 A 
ATOM     19  C   UNL     1      -4.785   1.163   1.267  0.00  0.00    +0.004 A 
ATOM     20  C   UNL     1      -4.112   1.073   0.064  0.00  0.00    +0.049 A 
ATOM     21  C   UNL     1      -2.734   1.228   0.026  0.00  0.00    +0.163 A 
ATOM     22  C   UNL     1      -2.034   1.476   1.200  0.00  0.00    +0.162 A 
ATOM     23  C   UNL     1      -2.716   1.565   2.405  0.00  0.00    +0.049 A 
ATOM     24  O   UNL     1      -0.681   1.636   1.185  0.00  0.00    -0.485 OA
ATOM     25  C   UNL     1       0.008   1.170   0.020  0.00  0.00    +0.275 C 
ATOM     26  C   UNL     1      -0.754   1.662  -1.218  0.00  0.00    +0.228 C 
ATOM     27  O   UNL     1      -2.083   1.133  -1.166  0.00  0.00    -0.480 OA
ENDBRANCH  17  26
ENDBRANCH   1  17
TORSDOF 5
