REMARK  Name = ZINC66651191
REMARK  10 active torsions:
REMARK  status: ('A' for Active; 'I' for Inactive)
REMARK    1  A    between atoms: C_1  and  C_2
REMARK    2  A    between atoms: C_2  and  C_3
REMARK    3  A    between atoms: C_3  and  C_5
REMARK    4  A    between atoms: C_3  and  C_6
REMARK    5  A    between atoms: C_6  and  C_8
REMARK    6  A    between atoms: C_6  and  N_27
REMARK    7  A    between atoms: C_13  and  C_16
REMARK    8  A    between atoms: C_16  and  C_17
REMARK    9  A    between atoms: N_22  and  C_25
REMARK   10  A    between atoms: C_25  and  C_26
REMARK                            x       y       z     vdW  Elec       q    Type
REMARK                         _______ _______ _______ _____ _____    ______ ____
ROOT
ATOM      1  C   UNL     1       0.940  -2.654   0.044  0.00  0.00    +0.236 C 
ATOM      2  O   UNL     1       0.159  -3.317   0.693  0.00  0.00    -0.274 OA
ATOM      3  N   UNL     1       2.185  -2.431   0.511  0.00  0.00    -0.300 N 
ATOM      4  C   UNL     1       3.169  -1.702  -0.301  0.00  0.00    +0.108 C 
ATOM      5  C   UNL     1       4.439  -2.552  -0.416  0.00  0.00    +0.023 C 
ATOM      6  C   UNL     1       4.929  -2.920   0.986  0.00  0.00    +0.001 C 
ATOM      7  C   UNL     1       3.859  -3.747   1.702  0.00  0.00    +0.023 C 
ATOM      8  C   UNL     1       2.581  -2.906   1.844  0.00  0.00    +0.108 C 
ENDROOT
BRANCH   1   9
ATOM      9  C   UNL     1       0.519  -2.079  -1.284  0.00  0.00    +0.163 C 
BRANCH   9  10
ATOM     10  N   UNL     1      -0.555  -2.898  -1.851  0.00  0.00    -0.288 N 
ATOM     11  C   UNL     1      -0.753  -2.920  -3.184  0.00  0.00    +0.298 C 
ATOM     12  O   UNL     1      -0.041  -2.259  -3.916  0.00  0.00    -0.253 OA
ATOM     13  N   UNL     1      -1.742  -3.673  -3.707  0.00  0.00    -0.313 N 
ATOM     14  H   UNL     1      -1.123  -3.425  -1.268  0.00  0.00    +0.151 HD
ATOM     15  H   UNL     1      -2.310  -4.200  -3.123  0.00  0.00    +0.146 HD
ATOM     16  H   UNL     1      -1.884  -3.688  -4.666  0.00  0.00    +0.146 HD
ENDBRANCH   9  10
BRANCH   9  17
ATOM     17  C   UNL     1       0.017  -0.648  -1.084  0.00  0.00    +0.015 C 
ATOM     18  C   UNL     1       1.175   0.237  -0.618  0.00  0.00    +0.010 C 
BRANCH  17  20
ATOM     19  C   UNL     1      -1.677   0.771   0.082  0.00  0.00    +0.004 C 
ATOM     20  C   UNL     1      -1.090  -0.638  -0.028  0.00  0.00    +0.002 C 
ENDBRANCH  17  20
ENDBRANCH   9  17
ENDBRANCH   1   9
BRANCH   6  21
ATOM     21  C   UNL     1       6.217  -3.740   0.876  0.00  0.00    +0.099 C 
BRANCH  21  22
ATOM     22  C   UNL     1       6.767  -3.998   2.255  0.00  0.00    +0.216 C 
ATOM     23  O   UNL     1       6.187  -3.570   3.230  0.00  0.00    -0.276 OA
ATOM     24  N   UNL     1       7.904  -4.706   2.405  0.00  0.00    -0.305 N 
ATOM     25  C   UNL     1       8.628  -5.231   1.237  0.00  0.00    +0.089 C 
ATOM     26  C   UNL     1      10.101  -4.826   1.357  0.00  0.00    -0.060 C 
ATOM     27  N   UNL     1      10.629  -5.279   2.651  0.00  0.00    +0.382 N 
ATOM     28  C   UNL     1       9.938  -4.583   3.743  0.00  0.00    -0.060 C 
ATOM     29  C   UNL     1       8.460  -4.971   3.741  0.00  0.00    +0.089 C 
ATOM     30  H   UNL     1      10.484  -6.273   2.742  0.00  0.00    -0.082 HD
BRANCH  27  31
ATOM     31  C   UNL     1      12.067  -4.989   2.720  0.00  0.00    -0.082 C 
ATOM     32  C   UNL     1      12.643  -5.570   4.012  0.00  0.00    -0.017 C 
ENDBRANCH  27  31
ENDBRANCH  21  22
ENDBRANCH   6  21
TORSDOF 7
