REMARK  Name = ZINC04011028
REMARK  6 active torsions:
REMARK  status: ('A' for Active; 'I' for Inactive)
REMARK    1  A    between atoms: C_1  and  C_2
REMARK    2  A    between atoms: C_7  and  O_9
REMARK    3  A    between atoms: O_9  and  C_10
REMARK    4  A    between atoms: C_10  and  C_12
REMARK    5  A    between atoms: C_13  and  C_27
REMARK    6  A    between atoms: C_18  and  C_20
REMARK                            x       y       z     vdW  Elec       q    Type
REMARK                         _______ _______ _______ _____ _____    ______ ____
ROOT
ATOM      1  C   UNL     1      -2.499   1.223  -2.709  0.00  0.00    +0.078 C 
ATOM      2  C   UNL     1      -3.383   0.394  -3.305  0.00  0.00    +0.021 C 
ATOM      3  N   UNL     1      -4.070   0.781  -4.420  0.00  0.00    -0.273 N 
ATOM      4  C   UNL     1      -3.930   1.980  -5.000  0.00  0.00    +0.304 C 
ATOM      5  O   UNL     1      -4.586   2.234  -5.991  0.00  0.00    -0.252 OA
ATOM      6  N   UNL     1      -3.085   2.914  -4.521  0.00  0.00    -0.288 N 
ATOM      7  C   UNL     1      -2.301   2.597  -3.315  0.00  0.00    +0.143 C 
ATOM      8  C   UNL     1      -3.615  -0.980  -2.731  0.00  0.00    +0.061 C 
ATOM      9  H   UNL     1      -4.695   0.152  -4.814  0.00  0.00    +0.156 HD
ATOM     10  H   UNL     1      -2.999   3.776  -4.957  0.00  0.00    +0.151 HD
ENDROOT
BRANCH   7  11
ATOM     11  C   UNL     1      -0.842   2.745  -3.664  0.00  0.00    -0.022 A 
ATOM     12  C   UNL     1      -0.347   2.174  -4.821  0.00  0.00    +0.007 A 
ATOM     13  C   UNL     1       0.989   2.314  -5.144  0.00  0.00    +0.020 A 
ATOM     14  C   UNL     1       1.834   3.017  -4.304  0.00  0.00    +0.041 A 
ATOM     15  C   UNL     1       1.339   3.583  -3.143  0.00  0.00    +0.020 A 
ATOM     16  C   UNL     1       0.001   3.447  -2.823  0.00  0.00    +0.007 A 
ATOM     17 CL   UNL     1       3.514   3.188  -4.706  0.00  0.00    -0.084 Cl
ENDBRANCH   7  11
BRANCH   1  18
ATOM     18  C   UNL     1      -1.787   0.823  -1.554  0.00  0.00    +0.339 C 
ATOM     19  O   UNL     1      -2.035  -0.244  -1.024  0.00  0.00    -0.245 OA
BRANCH  18  20
ATOM     20  O   UNL     1      -0.831   1.626  -1.039  0.00  0.00    -0.458 OA
BRANCH  20  26
ATOM     21  C   UNL     1       2.293   0.577   0.199  0.00  0.00    +0.011 C 
ATOM     22  C   UNL     1       1.279   1.722   0.166  0.00  0.00    +0.027 C 
ATOM     23  C   UNL     1       1.389   2.562   1.455  0.00  0.00    +0.007 C 
ATOM     24  C   UNL     1       0.293   1.980   2.382  0.00  0.00    +0.004 C 
ATOM     25  C   UNL     1      -0.863   1.676   1.396  0.00  0.00    +0.045 C 
ATOM     26  C   UNL     1      -0.152   1.159   0.128  0.00  0.00    +0.180 C 
ENDBRANCH  20  26
ENDBRANCH  18  20
ENDBRANCH   1  18
TORSDOF 4
