REMARK  Name = ZINC42824548
REMARK  5 active torsions:
REMARK  status: ('A' for Active; 'I' for Inactive)
REMARK    1  A    between atoms: C_3  and  C_9
REMARK    2  A    between atoms: C_4  and  N_8
REMARK    3  A    between atoms: C_6  and  N_7
REMARK    4  A    between atoms: N_13  and  C_14
REMARK    5  A    between atoms: C_14  and  C_15
REMARK                            x       y       z     vdW  Elec       q    Type
REMARK                         _______ _______ _______ _____ _____    ______ ____
ROOT
ATOM      1  C   UNL     1       0.231   1.000  -0.948  0.00  0.00    +0.023 A 
ATOM      2  C   UNL     1       1.425   1.686  -0.976  0.00  0.00    +0.015 A 
ATOM      3  C   UNL     1       2.405   1.420  -0.019  0.00  0.00    +0.041 A 
ATOM      4  C   UNL     1       2.169   0.454   0.971  0.00  0.00    +0.037 A 
ATOM      5  C   UNL     1       0.964  -0.230   0.991  0.00  0.00    +0.046 A 
ATOM      6  C   UNL     1      -0.004   0.042   0.034  0.00  0.00    +0.026 A 
ENDROOT
BRANCH   3   7
ATOM      7  C   UNL     1       3.687   2.154  -0.047  0.00  0.00    +0.184 A 
ATOM      8  N   UNL     1       4.893   1.628   0.021  0.00  0.00    -0.108 NA
ATOM      9  N   UNL     1       5.788   2.547  -0.031  0.00  0.00    -0.023 NA
ATOM     10  N   UNL     1       5.239   3.708  -0.135  0.00  0.00    -0.044 NA
ATOM     11  N   UNL     1       3.848   3.502  -0.156  0.00  0.00    -0.223 N 
BRANCH  11  12
ATOM     12  C   UNL     1       2.798   4.518  -0.268  0.00  0.00    +0.179 C 
BRANCH  12  13
ATOM     13  C   UNL     1       2.481   5.078   1.121  0.00  0.00    +0.140 C 
ATOM     14  C   UNL     1       1.300   6.048   1.022  0.00  0.00    +0.033 C 
ATOM     15  C   UNL     1       1.027   6.649   2.404  0.00  0.00    +0.005 C 
ATOM     16  C   UNL     1       2.300   7.332   2.912  0.00  0.00    +0.028 C 
ATOM     17  C   UNL     1       3.442   6.313   2.938  0.00  0.00    +0.160 C 
ATOM     18  O   UNL     1       3.623   5.769   1.629  0.00  0.00    -0.375 OA
ENDBRANCH  12  13
ENDBRANCH  11  12
ENDBRANCH   3   7
BRANCH   6  19
ATOM     19  N   UNL     1      -1.216  -0.648   0.056  0.00  0.00    -0.358 N 
ATOM     20  H   UNL     1      -1.893  -0.460  -0.613  0.00  0.00    +0.142 HD
ATOM     21  H   UNL     1      -1.381  -1.317   0.739  0.00  0.00    +0.142 HD
ENDBRANCH   6  19
BRANCH   4  22
ATOM     22  N   UNL     1       3.143   0.183   1.929  0.00  0.00    -0.357 N 
ATOM     23  H   UNL     1       3.947   0.724   1.970  0.00  0.00    +0.142 HD
ATOM     24  H   UNL     1       3.016  -0.546   2.556  0.00  0.00    +0.142 HD
ENDBRANCH   4  22
TORSDOF 5
