REMARK  Name = ZINC24152432
REMARK  4 active torsions:
REMARK  status: ('A' for Active; 'I' for Inactive)
REMARK    1  A    between atoms: C_1  and  C_2
REMARK    2  A    between atoms: C_3  and  C_11
REMARK    3  A    between atoms: C_7  and  N_8
REMARK    4  A    between atoms: N_20  and  C_23
REMARK                            x       y       z     vdW  Elec       q    Type
REMARK                         _______ _______ _______ _____ _____    ______ ____
ROOT
ATOM      1  C   UNL     1      -0.769  -0.164  -2.475  0.00  0.00    +0.250 C 
ATOM      2  O   UNL     1      -0.933   1.039  -2.530  0.00  0.00    -0.270 OA
ATOM      3  N   UNL     1      -0.960  -0.921  -3.574  0.00  0.00    -0.261 N 
ATOM      4  C   UNL     1      -1.344  -0.326  -4.769  0.00  0.00    +0.165 A 
ATOM      5  N   UNL     1      -1.579  -0.899  -5.929  0.00  0.00    -0.229 NA
ATOM      6  C   UNL     1      -1.942  -0.198  -6.996  0.00  0.00    +0.056 A 
ATOM      7  C   UNL     1      -2.047   1.142  -6.793  0.00  0.00    +0.028 A 
ATOM      8  S   UNL     1      -1.628   1.306  -5.082  0.00  0.00    -0.055 S 
ATOM      9  C   UNL     1      -2.429   2.175  -7.798  0.00  0.00    +0.128 C 
ATOM     10  N   UNL     1      -2.338   1.563  -9.139  0.00  0.00    -0.300 NA
ATOM     11  C   UNL     1      -3.029   0.267  -9.168  0.00  0.00    +0.090 C 
ATOM     12  C   UNL     1      -2.237  -0.777  -8.374  0.00  0.00    +0.071 C 
ATOM     13  C   UNL     1      -2.871   2.467 -10.167  0.00  0.00    +0.105 C 
ATOM     14  H   UNL     1      -0.830  -1.881  -3.530  0.00  0.00    +0.157 HD
ENDROOT
BRANCH   1  17
ATOM     15  C   UNL     1      -0.618   1.432  -0.066  0.00  0.00    +0.047 C 
ATOM     16  C   UNL     1      -0.284  -0.038  -0.035  0.00  0.00    -0.008 A 
ATOM     17  C   UNL     1      -0.361  -0.797  -1.203  0.00  0.00    +0.042 A 
ATOM     18  C   UNL     1      -0.051  -2.158  -1.166  0.00  0.00    +0.013 A 
ATOM     19  C   UNL     1       0.329  -2.743   0.025  0.00  0.00    +0.003 A 
ATOM     20  C   UNL     1       0.402  -1.984   1.179  0.00  0.00    +0.033 A 
ATOM     21  C   UNL     1       0.102  -0.634   1.148  0.00  0.00    +0.130 A 
BRANCH  21  22
ATOM     22  N   UNL     1       0.190   0.171   2.386  0.00  0.00    +0.057 N 
ATOM     23  O   UNL     1       0.397  -0.371   3.447  0.00  0.00    -0.126 OA
ATOM     24  O   UNL     1       0.056   1.372   2.338  0.00  0.00    -0.126 OA
ENDBRANCH  21  22
ENDBRANCH   1  17
TORSDOF 2
