REMARK  Name = ZINC16011470
REMARK  5 active torsions:
REMARK  status: ('A' for Active; 'I' for Inactive)
REMARK    1  A    between atoms: C_5  and  C_7
REMARK    2  A    between atoms: C_7  and  N_8
REMARK    3  A    between atoms: C_13  and  C_31
REMARK    4  A    between atoms: C_31  and  C_32
REMARK    5  A    between atoms: C_32  and  C_33
REMARK                            x       y       z     vdW  Elec       q    Type
REMARK                         _______ _______ _______ _____ _____    ______ ____
ROOT
ATOM      1  N   UNL     1       1.606  -2.677   1.306  0.00  0.00    -0.237 N 
ATOM      2  C   UNL     1       2.880  -2.805   1.695  0.00  0.00    +0.227 C 
ATOM      3  O   UNL     1       3.849  -2.540   1.017  0.00  0.00    -0.275 OA
ATOM      4  C   UNL     1       2.922  -3.334   3.111  0.00  0.00    +0.107 C 
ATOM      5  C   UNL     1       3.491  -4.769   3.099  0.00  0.00    +0.068 C 
ATOM      6  N   UNL     1       2.578  -5.547   3.978  0.00  0.00    -0.295 NA
ATOM      7  C   UNL     1       1.238  -5.013   3.669  0.00  0.00    +0.136 C 
ATOM      8  C   UNL     1       1.421  -3.487   3.481  0.00  0.00    +0.122 C 
ATOM      9  C   UNL     1       0.705  -3.028   2.231  0.00  0.00    +0.229 C 
ATOM     10  O   UNL     1      -0.498  -2.987   2.087  0.00  0.00    -0.275 OA
ATOM     11  C   UNL     1       0.655  -5.664   2.448  0.00  0.00    +0.005 A 
ATOM     12  C   UNL     1       1.062  -5.753   1.135  0.00  0.00    +0.027 A 
ATOM     13  C   UNL     1       0.290  -6.443   0.216  0.00  0.00    +0.041 A 
ATOM     14  C   UNL     1      -0.891  -7.042   0.620  0.00  0.00    +0.022 A 
ATOM     15  C   UNL     1      -1.302  -6.953   1.933  0.00  0.00    +0.025 A 
ATOM     16  C   UNL     1      -0.531  -6.262   2.864  0.00  0.00    +0.039 A 
ATOM     17  N   UNL     1      -0.732  -6.036   4.228  0.00  0.00    -0.283 N 
ATOM     18  C   UNL     1       0.263  -5.311   4.775  0.00  0.00    +0.243 C 
ATOM     19  O   UNL     1       0.354  -4.965   5.934  0.00  0.00    -0.273 OA
ATOM     20 CL   UNL     1       0.801  -6.557  -1.439  0.00  0.00    -0.084 Cl
ATOM     21  H   UNL     1       2.631  -6.534   3.771  0.00  0.00    +0.123 HD
ATOM     22  H   UNL     1      -1.499  -6.364   4.724  0.00  0.00    +0.155 HD
ENDROOT
BRANCH   1  23
ATOM     23  C   UNL     1       1.229  -2.186  -0.022  0.00  0.00    +0.153 C 
BRANCH  23  28
ATOM     24  C   UNL     1      -0.655   1.071   0.286  0.00  0.00    +0.000 A 
ATOM     25  C   UNL     1       0.370   1.994   0.196  0.00  0.00    +0.001 A 
ATOM     26  C   UNL     1       1.674   1.565   0.035  0.00  0.00    +0.020 A 
ATOM     27  C   UNL     1       1.953   0.211  -0.035  0.00  0.00    +0.046 A 
ATOM     28  C   UNL     1       0.926  -0.712   0.055  0.00  0.00    -0.011 A 
ATOM     29  C   UNL     1      -0.378  -0.281   0.215  0.00  0.00    +0.006 A 
ATOM     30 CL   UNL     1       3.590  -0.329  -0.238  0.00  0.00    -0.083 Cl
ENDBRANCH  23  28
ENDBRANCH   1  23
BRANCH   5  31
ATOM     31  C   UNL     1       4.914  -4.783   3.659  0.00  0.00    +0.028 C 
BRANCH  31  32
ATOM     32  C   UNL     1       5.503  -6.189   3.523  0.00  0.00    +0.097 C 
BRANCH  32  33
ATOM     33  C   UNL     1       6.905  -6.202   4.075  0.00  0.00    +0.211 C 
ATOM     34  O   UNL     1       7.386  -5.187   4.533  0.00  0.00    -0.276 OA
ATOM     35  N   UNL     1       7.624  -7.342   4.061  0.00  0.00    -0.329 N 
ATOM     36  H   UNL     1       7.239  -8.153   3.695  0.00  0.00    +0.145 HD
ATOM     37  H   UNL     1       8.526  -7.350   4.416  0.00  0.00    +0.145 HD
ENDBRANCH  32  33
ENDBRANCH  31  32
ENDBRANCH   5  31
TORSDOF 5
