REMARK  Name = ZINC51092583
REMARK  4 active torsions:
REMARK  status: ('A' for Active; 'I' for Inactive)
REMARK    1  A    between atoms: C_6  and  C_7
REMARK    2  A    between atoms: N_9  and  C_10
REMARK    3  A    between atoms: C_10  and  C_11
REMARK    4  A    between atoms: N_15  and  N_16
REMARK                            x       y       z     vdW  Elec       q    Type
REMARK                         _______ _______ _______ _____ _____    ______ ____
ROOT
ATOM      1  C   UNL     1      -0.073   1.280   0.022  0.00  0.00    +0.033 A 
ATOM      2  C   UNL     1       1.069   2.063   0.025  0.00  0.00    +0.037 A 
ATOM      3  C   UNL     1       2.312   1.454  -0.003  0.00  0.00    +0.128 A 
ATOM      4  N   UNL     1       2.429   0.141  -0.034  0.00  0.00    -0.237 NA
ATOM      5  C   UNL     1       1.371  -0.654  -0.038  0.00  0.00    +0.144 A 
ATOM      6  C   UNL     1       0.074  -0.111  -0.010  0.00  0.00    +0.079 A 
ATOM      7  N   UNL     1       1.541  -2.026  -0.071  0.00  0.00    -0.267 N 
ATOM      8 BR   UNL     1       0.932   3.948   0.068  0.00  0.00    -0.049 Br
ATOM      9  H   UNL     1       0.772  -2.612   0.006  0.00  0.00    +0.167 HD
ENDROOT
BRANCH   6  10
ATOM     10  C   UNL     1      -1.108  -0.992  -0.015  0.00  0.00    +0.248 C 
ATOM     11  O   UNL     1      -0.969  -2.197   0.066  0.00  0.00    -0.270 OA
ATOM     12  N   UNL     1      -2.343  -0.460  -0.108  0.00  0.00    -0.303 N 
ATOM     13  H   UNL     1      -2.454   0.501  -0.172  0.00  0.00    +0.149 HD
BRANCH  12  14
ATOM     14  C   UNL     1      -3.518  -1.335  -0.112  0.00  0.00    +0.217 C 
BRANCH  14  15
ATOM     15  C   UNL     1      -4.786  -0.486  -0.226  0.00  0.00    +0.405 C 
ATOM     16  F   UNL     1      -4.748   0.251  -1.415  0.00  0.00    -0.169 F 
ATOM     17  F   UNL     1      -5.908  -1.321  -0.231  0.00  0.00    -0.169 F 
ATOM     18  F   UNL     1      -4.861   0.389   0.863  0.00  0.00    -0.169 F 
ENDBRANCH  14  15
ENDBRANCH  12  14
ENDBRANCH   6  10
BRANCH   7  19
ATOM     19  N   UNL     1       2.792  -2.556  -0.212  0.00  0.00    -0.255 NA
ATOM     20  H   UNL     1       3.411  -2.219   0.510  0.00  0.00    +0.140 HD
ATOM     21  H   UNL     1       2.759  -3.564  -0.219  0.00  0.00    +0.140 HD
ENDBRANCH   7  19
TORSDOF 4
