REMARK  Name = ZINC05152237
REMARK  12 active torsions:
REMARK  status: ('A' for Active; 'I' for Inactive)
REMARK    1  A    between atoms: C_1  and  C_2
REMARK    2  A    between atoms: C_5  and  C_28
REMARK    3  A    between atoms: C_6  and  O_8
REMARK    4  A    between atoms: O_8  and  C_9
REMARK    5  A    between atoms: C_11  and  N_24
REMARK    6  A    between atoms: C_13  and  O_23
REMARK    7  A    between atoms: C_15  and  O_22
REMARK    8  A    between atoms: C_17  and  C_20
REMARK    9  A    between atoms: C_20  and  O_21
REMARK   10  A    between atoms: C_25  and  C_27
REMARK   11  A    between atoms: C_28  and  C_29
REMARK   12  A    between atoms: C_28  and  C_30
REMARK                            x       y       z     vdW  Elec       q    Type
REMARK                         _______ _______ _______ _____ _____    ______ ____
ROOT
ATOM      1  C   UNL     1       3.531  -2.060  -0.043  0.00  0.00    +0.331 C 
ATOM      2  C   UNL     1       4.948  -2.623  -0.184  0.00  0.00    +0.173 C 
ATOM      3  C   UNL     1       4.888  -4.153  -0.131  0.00  0.00    +0.172 C 
ATOM      4  C   UNL     1       4.219  -4.581   1.179  0.00  0.00    +0.176 C 
ATOM      5  C   UNL     1       2.831  -3.942   1.268  0.00  0.00    +0.179 C 
ATOM      6  O   UNL     1       2.956  -2.521   1.181  0.00  0.00    -0.332 OA
ENDROOT
BRANCH   2   7
ATOM      7  N   UNL     1       5.518  -2.200  -1.466  0.00  0.00    -0.304 N 
ATOM      8  C   UNL     1       6.124  -1.002  -1.571  0.00  0.00    +0.210 C 
ATOM      9  O   UNL     1       6.198  -0.273  -0.604  0.00  0.00    -0.276 OA
ATOM     10  C   UNL     1       6.711  -0.567  -2.889  0.00  0.00    +0.109 C 
ATOM     11  H   UNL     1       5.459  -2.783  -2.239  0.00  0.00    +0.149 HD
ENDBRANCH   2   7
BRANCH   4  12
ATOM     12  O   UNL     1       4.092  -6.004   1.208  0.00  0.00    -0.387 OA
ATOM     13  H   UNL     1       3.672  -6.346   2.009  0.00  0.00    +0.210 HD
ENDBRANCH   4  12
BRANCH   3  14
ATOM     14  O   UNL     1       6.213  -4.686  -0.188  0.00  0.00    -0.387 OA
ATOM     15  H   UNL     1       6.250  -5.651  -0.151  0.00  0.00    +0.210 HD
ENDBRANCH   3  14
BRANCH   1  16
ATOM     16  O   UNL     1       3.586  -0.632  -0.036  0.00  0.00    -0.461 OA
BRANCH  16  22
ATOM     17  C   UNL     1      -1.293  -0.775   0.010  0.00  0.00    +0.044 C 
ATOM     18  C   UNL     1       0.002  -0.004   0.002  0.00  0.00    -0.047 A 
ATOM     19  C   UNL     1      -0.017   1.379   0.010  0.00  0.00    +0.004 A 
ATOM     20  C   UNL     1       1.170   2.088   0.002  0.00  0.00    +0.008 A 
ATOM     21  C   UNL     1       2.377   1.417  -0.013  0.00  0.00    -0.003 A 
ATOM     22  C   UNL     1       2.399   0.031  -0.021  0.00  0.00    +0.128 A 
ATOM     23  C   UNL     1       1.207  -0.679  -0.014  0.00  0.00    +0.049 A 
BRANCH  21  24
ATOM     24  C   UNL     1       3.670   2.192  -0.021  0.00  0.00    +0.016 C 
ATOM     25  C   UNL     1       3.725   3.080  -1.266  0.00  0.00    +0.012 C 
ATOM     26  C   UNL     1       3.749   3.066   1.233  0.00  0.00    +0.012 C 
ENDBRANCH  21  24
ENDBRANCH  16  22
ENDBRANCH   1  16
BRANCH   5  27
ATOM     27  C   UNL     1       2.181  -4.316   2.601  0.00  0.00    +0.190 C 
BRANCH  27  28
ATOM     28  O   UNL     1       0.843  -3.816   2.635  0.00  0.00    -0.392 OA
ATOM     29  H   UNL     1       0.368  -4.017   3.454  0.00  0.00    +0.210 HD
ENDBRANCH  27  28
ENDBRANCH   5  27
TORSDOF 8
