REMARK  Name = ZINC11520622
REMARK  8 active torsions:
REMARK  status: ('A' for Active; 'I' for Inactive)
REMARK    1  A    between atoms: C_1  and  C_2
REMARK    2  A    between atoms: C_2  and  C_3
REMARK    3  A    between atoms: C_3  and  C_5
REMARK    4  A    between atoms: C_3  and  N_6
REMARK    5  A    between atoms: C_7  and  C_9
REMARK    6  A    between atoms: C_9  and  S_10
REMARK    7  A    between atoms: S_10  and  C_11
REMARK    8  A    between atoms: N_21  and  N_22
REMARK                            x       y       z     vdW  Elec       q    Type
REMARK                         _______ _______ _______ _____ _____    ______ ____
ROOT
ATOM      1  C   UNL     1      -6.997   1.099   2.998  0.00  0.00    +0.190 A 
ATOM      2  N   UNL     1      -6.994  -0.025   2.324  0.00  0.00    -0.222 NA
ATOM      3  C   UNL     1      -8.097  -0.794   2.227  0.00  0.00    +0.079 A 
ATOM      4  C   UNL     1      -8.092  -1.995   1.512  0.00  0.00    +0.028 A 
ATOM      5  C   UNL     1      -9.235  -2.741   1.435  0.00  0.00    +0.002 A 
ATOM      6  C   UNL     1     -10.404  -2.324   2.059  0.00  0.00    +0.001 A 
ATOM      7  C   UNL     1     -10.440  -1.154   2.766  0.00  0.00    +0.015 A 
ATOM      8  C   UNL     1      -9.289  -0.373   2.860  0.00  0.00    +0.066 A 
ATOM      9  C   UNL     1      -9.269   0.893   3.606  0.00  0.00    +0.279 A 
ATOM     10  O   UNL     1     -10.263   1.308   4.172  0.00  0.00    -0.265 OA
ATOM     11  N   UNL     1      -8.103   1.580   3.639  0.00  0.00    -0.209 N 
ENDROOT
BRANCH  11  12
ATOM     12  N   UNL     1      -8.032   2.763   4.319  0.00  0.00    -0.293 N 
ATOM     13  H   UNL     1      -8.920   2.991   4.740  0.00  0.00    +0.163 HD
ATOM     14  H   UNL     1      -7.299   2.739   5.011  0.00  0.00    +0.163 HD
ENDBRANCH  11  12
BRANCH   1  15
ATOM     15  S   UNL     1      -5.507   2.036   3.075  0.00  0.00    -0.077 S 
BRANCH  15  16
ATOM     16  C   UNL     1      -4.417   0.975   2.095  0.00  0.00    +0.173 C 
BRANCH  16  18
ATOM     17  N   UNL     1      -2.062   0.977   1.338  0.00  0.00    -0.312 N 
ATOM     18  C   UNL     1      -3.046   1.595   2.021  0.00  0.00    +0.224 C 
ATOM     19  O   UNL     1      -2.827   2.650   2.577  0.00  0.00    -0.275 OA
ATOM     20  H   UNL     1      -2.237   0.133   0.893  0.00  0.00    +0.149 HD
BRANCH  17  21
ATOM     21  C   UNL     1      -0.729   1.579   1.267  0.00  0.00    +0.070 C 
ATOM     22  C   UNL     1       0.079   1.179   2.503  0.00  0.00    +0.028 C 
BRANCH  21  24
ATOM     23  C   UNL     1      -0.753   1.593  -1.232  0.00  0.00    +0.005 C 
ATOM     24  C   UNL     1      -0.013   1.086   0.008  0.00  0.00    +0.018 C 
ENDBRANCH  21  24
ENDBRANCH  17  21
ENDBRANCH  16  18
ENDBRANCH  15  16
ENDBRANCH   1  15
TORSDOF 6
