REMARK  Name = ZINC58113461
REMARK  5 active torsions:
REMARK  status: ('A' for Active; 'I' for Inactive)
REMARK    1  A    between atoms: C_1  and  C_2
REMARK    2  A    between atoms: C_2  and  C_3
REMARK    3  A    between atoms: C_5  and  C_14
REMARK    4  A    between atoms: C_14  and  C_16
REMARK    5  A    between atoms: C_14  and  O_17
REMARK                            x       y       z     vdW  Elec       q    Type
REMARK                         _______ _______ _______ _____ _____    ______ ____
ROOT
ATOM      1  C   UNL     1       0.707  -0.490  -1.238  0.00  0.00    -0.026 A 
ATOM      2  C   UNL     1      -0.021  -0.817  -2.365  0.00  0.00    +0.011 A 
ATOM      3  C   UNL     1       0.625  -1.263  -3.503  0.00  0.00    -0.019 A 
ATOM      4  C   UNL     1       2.003  -1.384  -3.517  0.00  0.00    +0.011 A 
ATOM      5  C   UNL     1       2.737  -1.058  -2.394  0.00  0.00    -0.025 A 
ATOM      6  C   UNL     1       2.091  -0.604  -1.251  0.00  0.00    +0.040 A 
ATOM      7  N   UNL     1       2.835  -0.269  -0.116  0.00  0.00    -0.285 N 
ATOM      8  C   UNL     1       4.153  -0.017  -0.214  0.00  0.00    +0.218 C 
ATOM      9  O   UNL     1       4.787   0.258   0.782  0.00  0.00    -0.275 OA
ATOM     10  C   UNL     1       4.850  -0.071  -1.547  0.00  0.00    +0.101 C 
ATOM     11  C   UNL     1       4.237  -1.188  -2.405  0.00  0.00    +0.046 C 
ATOM     12  H   UNL     1       2.398  -0.217   0.749  0.00  0.00    +0.155 HD
ENDROOT
BRANCH   1  14
ATOM     13  C   UNL     1      -0.019   1.526   0.010  0.00  0.00    +0.009 C 
ATOM     14  C   UNL     1       0.002  -0.004   0.002  0.00  0.00    +0.033 C 
ENDBRANCH   1  14
BRANCH   3  15
ATOM     15  C   UNL     1      -0.173  -1.620  -4.730  0.00  0.00    +0.141 C 
ATOM     16  C   UNL     1      -0.767  -3.020  -4.564  0.00  0.00    +0.043 C 
BRANCH  15  17
ATOM     17  O   UNL     1      -1.229  -0.672  -4.903  0.00  0.00    -0.387 OA
ATOM     18  H   UNL     1      -1.786  -0.840  -5.676  0.00  0.00    +0.210 HD
ENDBRANCH  15  17
ENDBRANCH   3  15
TORSDOF 3
