REMARK  Name = ZINC49402905
REMARK  8 active torsions:
REMARK  status: ('A' for Active; 'I' for Inactive)
REMARK    1  A    between atoms: C_1  and  C_2
REMARK    2  A    between atoms: C_2  and  O_3
REMARK    3  A    between atoms: O_3  and  C_4
REMARK    4  A    between atoms: C_9  and  N_10
REMARK    5  A    between atoms: C_11  and  C_13
REMARK    6  A    between atoms: C_13  and  N_14
REMARK    7  A    between atoms: C_17  and  C_22
REMARK    8  A    between atoms: C_25  and  C_28
REMARK                            x       y       z     vdW  Elec       q    Type
REMARK                         _______ _______ _______ _____ _____    ______ ____
ROOT
ATOM      1  N   UNL     1      -7.556  -2.010  -0.250  0.00  0.00    -0.247 N 
ATOM      2  C   UNL     1      -7.995  -2.379  -1.488  0.00  0.00    +0.065 C 
ATOM      3  C   UNL     1      -9.107  -3.129  -1.639  0.00  0.00    +0.082 C 
ATOM      4  C   UNL     1      -9.852  -3.547  -0.389  0.00  0.00    +0.144 C 
ATOM      5  N   UNL     1      -9.297  -3.097   0.899  0.00  0.00    -0.288 N 
ATOM      6  C   UNL     1      -8.172  -2.355   0.888  0.00  0.00    +0.307 C 
ATOM      7  O   UNL     1      -7.703  -1.984   1.946  0.00  0.00    -0.252 OA
ATOM      8  C   UNL     1      -9.336  -3.367  -3.007  0.00  0.00    +0.339 C 
ATOM      9  O   UNL     1     -10.267  -4.014  -3.448  0.00  0.00    -0.245 OA
ATOM     10  O   UNL     1      -8.387  -2.782  -3.762  0.00  0.00    -0.455 OA
ATOM     11  C   UNL     1      -7.472  -2.117  -2.882  0.00  0.00    +0.284 C 
ATOM     12  H   UNL     1      -9.729  -3.332   1.735  0.00  0.00    +0.151 HD
ENDROOT
BRANCH   4  13
ATOM     13  C   UNL     1      -9.915  -5.053  -0.367  0.00  0.00    -0.022 A 
ATOM     14  C   UNL     1      -8.823  -5.784   0.065  0.00  0.00    +0.006 A 
ATOM     15  C   UNL     1      -8.880  -7.165   0.086  0.00  0.00    +0.004 A 
ATOM     16  C   UNL     1     -10.029  -7.815  -0.325  0.00  0.00    -0.050 A 
ATOM     17  C   UNL     1     -11.120  -7.084  -0.756  0.00  0.00    +0.004 A 
ATOM     18  C   UNL     1     -11.065  -5.703  -0.773  0.00  0.00    +0.006 A 
ATOM     19  C   UNL     1     -10.091  -9.321  -0.303  0.00  0.00    +0.044 C 
ENDBRANCH   4  13
BRANCH   1  20
ATOM     20  C   UNL     1      -6.341  -1.195  -0.160  0.00  0.00    +0.211 C 
BRANCH  20  22
ATOM     21  N   UNL     1      -3.903  -1.566   0.030  0.00  0.00    -0.281 N 
ATOM     22  C   UNL     1      -5.138  -2.097  -0.062  0.00  0.00    +0.235 C 
ATOM     23  O   UNL     1      -5.280  -3.302  -0.067  0.00  0.00    -0.274 OA
ATOM     24  H   UNL     1      -3.793  -0.606   0.115  0.00  0.00    +0.155 HD
BRANCH  21  30
ATOM     25  C   UNL     1      -1.584  -1.981   0.589  0.00  0.00    +0.142 A 
ATOM     26  C   UNL     1      -0.476  -2.812   0.565  0.00  0.00    +0.047 A 
ATOM     27  C   UNL     1      -0.554  -4.051  -0.043  0.00  0.00    +0.004 A 
ATOM     28  C   UNL     1      -1.736  -4.465  -0.628  0.00  0.00    +0.002 A 
ATOM     29  C   UNL     1      -2.846  -3.643  -0.608  0.00  0.00    +0.027 A 
ATOM     30  C   UNL     1      -2.777  -2.400   0.004  0.00  0.00    +0.076 A 
BRANCH  25  31
ATOM     31  O   UNL     1      -1.509  -0.762   1.187  0.00  0.00    -0.490 OA
BRANCH  31  33
ATOM     32  C   UNL     1      -0.362   0.995   2.386  0.00  0.00    +0.048 C 
ATOM     33  C   UNL     1      -0.254  -0.400   1.765  0.00  0.00    +0.226 C 
ENDBRANCH  31  33
ENDBRANCH  25  31
ENDBRANCH  21  30
ENDBRANCH  20  22
ENDBRANCH   1  20
TORSDOF 6
