REMARK  Name = ZINC61832480
REMARK  6 active torsions:
REMARK  status: ('A' for Active; 'I' for Inactive)
REMARK    1  A    between atoms: C_1  and  C_2
REMARK    2  A    between atoms: C_12  and  C_14
REMARK    3  A    between atoms: C_14  and  C_15
REMARK    4  A    between atoms: C_15  and  C_17
REMARK    5  A    between atoms: C_15  and  C_18
REMARK    6  A    between atoms: C_18  and  C_19
REMARK                            x       y       z     vdW  Elec       q    Type
REMARK                         _______ _______ _______ _____ _____    ______ ____
ROOT
ATOM      1  C   UNL     1       0.015   1.527  -0.011  0.00  0.00    +0.028 C 
ATOM      2  C   UNL     1       0.015  -0.003  -0.006  0.00  0.00    +0.074 C 
ATOM      3  C   UNL     1       0.630  -0.520  -1.310  0.00  0.00    +0.022 C 
ATOM      4  C   UNL     1       0.755  -2.044  -1.242  0.00  0.00    +0.003 C 
ATOM      5  C   UNL     1       1.679  -2.430  -0.085  0.00  0.00    +0.019 C 
ATOM      6  C   UNL     1       1.076  -1.935   1.233  0.00  0.00    +0.109 C 
ATOM      7  N   UNL     1       0.815  -0.493   1.125  0.00  0.00    -0.283 N 
ATOM      8  C   UNL     1       1.304   0.365   2.042  0.00  0.00    +0.309 C 
ATOM      9  O   UNL     1       0.996   1.540   2.000  0.00  0.00    -0.252 OA
ATOM     10  N   UNL     1       2.134  -0.080   3.006  0.00  0.00    -0.240 N 
ATOM     11  C   UNL     1       2.539   0.753   3.985  0.00  0.00    +0.221 C 
ATOM     12  O   UNL     1       2.156   1.903   3.998  0.00  0.00    -0.275 OA
ATOM     13  H   UNL     1       2.440  -1.001   2.995  0.00  0.00    +0.159 HD
ENDROOT
BRANCH  11  14
ATOM     14  C   UNL     1       3.467   0.255   5.062  0.00  0.00    +0.100 C 
BRANCH  14  15
ATOM     15  C   UNL     1       3.769   1.392   6.041  0.00  0.00    +0.005 C 
ATOM     16  C   UNL     1       4.543   2.496   5.318  0.00  0.00    +0.008 C 
BRANCH  15  17
ATOM     17  C   UNL     1       4.609   0.856   7.202  0.00  0.00    +0.129 C 
BRANCH  17  18
ATOM     18  C   UNL     1       4.802   1.944   8.226  0.00  0.00    +0.356 C 
ATOM     19  O   UNL     1       4.314   3.046   8.045  0.00  0.00    -0.246 OA
ATOM     20  O   UNL     1       5.448   1.723   9.237  0.00  0.00    -0.246 OA
ENDBRANCH  17  18
ENDBRANCH  15  17
ENDBRANCH  14  15
ENDBRANCH  11  14
TORSDOF 4
