REMARK  Name = ZINC32672477
REMARK  10 active torsions:
REMARK  status: ('A' for Active; 'I' for Inactive)
REMARK    1  A    between atoms: C_1  and  C_2
REMARK    2  A    between atoms: C_2  and  C_3
REMARK    3  A    between atoms: C_2  and  C_4
REMARK    4  A    between atoms: C_2  and  C_5
REMARK    5  A    between atoms: C_7  and  C_10
REMARK    6  A    between atoms: C_10  and  C_11
REMARK    7  A    between atoms: C_11  and  C_12
REMARK    8  A    between atoms: N_14  and  C_15
REMARK    9  A    between atoms: C_15  and  C_16
REMARK   10  A    between atoms: C_16  and  C_17
REMARK                            x       y       z     vdW  Elec       q    Type
REMARK                         _______ _______ _______ _____ _____    ______ ____
ROOT
ATOM      1  C   UNL     1      -7.255   1.322   2.339  0.00  0.00    +0.213 C 
ATOM      2  O   UNL     1      -6.859   2.020   3.248  0.00  0.00    -0.276 OA
ATOM      3  N   UNL     1      -6.430   1.013   1.318  0.00  0.00    -0.315 N 
ATOM      4  H   UNL     1      -6.789   0.380   0.493  0.00  0.00    +0.149 HD
ENDROOT
BRANCH   1   5
ATOM      5  C   UNL     1      -8.668   0.800   2.349  0.00  0.00    +0.105 C 
BRANCH   5   6
ATOM      6  C   UNL     1      -9.385   1.294   3.608  0.00  0.00    +0.108 C 
BRANCH   6   9
ATOM      7  C   UNL     1     -12.535  -0.400   3.916  0.00  0.00    +0.177 A 
ATOM      8  N   UNL     1     -11.210  -0.357   4.143  0.00  0.00    -0.196 NA
ATOM      9  C   UNL     1     -10.798   0.772   3.619  0.00  0.00    +0.228 A 
ATOM     10  O   UNL     1     -11.873   1.375   3.101  0.00  0.00    -0.338 OA
ATOM     11  N   UNL     1     -12.855   0.685   3.276  0.00  0.00    -0.061 NA
BRANCH   7  13
ATOM     12  C   UNL     1     -13.448  -1.657   5.848  0.00  0.00    +0.019 C 
ATOM     13  C   UNL     1     -13.475  -1.504   4.326  0.00  0.00    +0.025 C 
ATOM     14  C   UNL     1     -14.896  -1.159   3.873  0.00  0.00    +0.019 C 
ATOM     15  C   UNL     1     -13.037  -2.816   3.674  0.00  0.00    +0.019 C 
ENDBRANCH   7  13
ENDBRANCH   6   9
ENDBRANCH   5   6
ENDBRANCH   1   5
BRANCH   3  16
ATOM     16  C   UNL     1      -5.056   1.520   1.308  0.00  0.00    +0.104 C 
BRANCH  16  17
ATOM     17  C   UNL     1      -4.340   1.027   0.049  0.00  0.00    +0.025 C 
BRANCH  17  18
ATOM     18  C   UNL     1      -2.904   1.556   0.038  0.00  0.00    -0.027 C 
ATOM     19  C   UNL     1      -2.188   1.063  -1.221  0.00  0.00    +0.010 C 
ATOM     20  C   UNL     1      -0.753   1.593  -1.232  0.00  0.00    -0.010 C 
ATOM     21  C   UNL     1      -0.013   1.086   0.008  0.00  0.00    +0.007 C 
ATOM     22  C   UNL     1      -0.729   1.579   1.267  0.00  0.00    -0.010 C 
ATOM     23  C   UNL     1      -2.164   1.050   1.278  0.00  0.00    +0.010 C 
ATOM     24  C   UNL     1      -0.750   3.109   1.275  0.00  0.00    +0.007 C 
ATOM     25  C   UNL     1      -1.490   3.616   0.036  0.00  0.00    -0.010 C 
ATOM     26  C   UNL     1      -0.773   3.123  -1.223  0.00  0.00    +0.007 C 
ATOM     27  C   UNL     1      -2.925   3.086   0.047  0.00  0.00    +0.010 C 
ENDBRANCH  17  18
ENDBRANCH  16  17
ENDBRANCH   3  16
TORSDOF 7
