REMARK  Name = ZINC39560157
REMARK  16 active torsions:
REMARK  status: ('A' for Active; 'I' for Inactive)
REMARK    1  A    between atoms: C_1  and  C_2
REMARK    2  A    between atoms: C_2  and  C_4
REMARK    3  A    between atoms: C_4  and  C_5
REMARK    4  A    between atoms: C_5  and  C_6
REMARK    5  A    between atoms: C_6  and  C_7
REMARK    6  A    between atoms: C_7  and  C_8
REMARK    7  A    between atoms: C_8  and  C_9
REMARK    8  A    between atoms: C_9  and  C_10
REMARK    9  A    between atoms: C_10  and  C_11
REMARK   10  A    between atoms: C_21  and  O_23
REMARK   11  A    between atoms: O_23  and  C_24
REMARK   12  A    between atoms: C_26  and  O_39
REMARK   13  A    between atoms: C_28  and  O_38
REMARK   14  A    between atoms: C_30  and  O_37
REMARK   15  A    between atoms: C_32  and  C_35
REMARK   16  A    between atoms: C_35  and  O_36
REMARK                            x       y       z     vdW  Elec       q    Type
REMARK                         _______ _______ _______ _____ _____    ______ ____
ROOT
ATOM      1  C   UNL     1      -4.024  -9.713   0.194  0.00  0.00    +0.063 A 
ATOM      2  N   UNL     1      -3.663 -10.482  -0.866  0.00  0.00    -0.355 N 
ATOM      3  C   UNL     1      -3.250 -11.784  -0.704  0.00  0.00    +0.051 A 
ATOM      4  C   UNL     1      -2.881 -12.562  -1.798  0.00  0.00    +0.026 A 
ATOM      5  C   UNL     1      -2.472 -13.863  -1.604  0.00  0.00    +0.002 A 
ATOM      6  C   UNL     1      -2.424 -14.408  -0.328  0.00  0.00    +0.001 A 
ATOM      7  C   UNL     1      -2.782 -13.662   0.760  0.00  0.00    +0.014 A 
ATOM      8  C   UNL     1      -3.198 -12.342   0.586  0.00  0.00    +0.049 A 
ATOM      9  C   UNL     1      -3.592 -11.504   1.730  0.00  0.00    +0.231 A 
ATOM     10  O   UNL     1      -3.564 -11.940   2.870  0.00  0.00    -0.283 OA
ATOM     11  C   UNL     1      -3.997 -10.172   1.466  0.00  0.00    +0.190 A 
ATOM     12  H   UNL     1      -3.696 -10.103  -1.758  0.00  0.00    +0.166 HD
ENDROOT
BRANCH   1  13
ATOM     13  C   UNL     1      -4.465  -8.293  -0.056  0.00  0.00    +0.057 C 
BRANCH  13  14
ATOM     14  C   UNL     1      -3.236  -7.390  -0.171  0.00  0.00    +0.006 C 
BRANCH  14  15
ATOM     15  C   UNL     1      -3.678  -5.972  -0.540  0.00  0.00    +0.000 C 
BRANCH  15  16
ATOM     16  C   UNL     1      -2.444  -5.097  -0.770  0.00  0.00    +0.000 C 
BRANCH  16  17
ATOM     17  C   UNL     1      -2.883  -3.654  -1.024  0.00  0.00    +0.000 C 
BRANCH  17  18
ATOM     18  C   UNL     1      -1.648  -2.758  -1.137  0.00  0.00    +0.007 C 
BRANCH  18  19
ATOM     19  C   UNL     1      -2.087  -1.314  -1.391  0.00  0.00    +0.074 C 
BRANCH  19  21
ATOM     20  C   UNL     1      -1.031   1.046  -1.754  0.00  0.00    +0.086 C 
ATOM     21  C   UNL     1      -0.870  -0.432  -1.503  0.00  0.00    +0.130 C 
ATOM     22  O   UNL     1       0.234  -0.908  -1.391  0.00  0.00    -0.298 OA
ENDBRANCH  19  21
ENDBRANCH  18  19
ENDBRANCH  17  18
ENDBRANCH  16  17
ENDBRANCH  15  16
ENDBRANCH  14  15
ENDBRANCH  13  14
ENDBRANCH   1  13
BRANCH  11  23
ATOM     23  O   UNL     1      -4.365  -9.356   2.492  0.00  0.00    -0.455 OA
BRANCH  23  24
ATOM     24  C   UNL     1      -5.545  -9.713   3.214  0.00  0.00    +0.339 C 
ATOM     25  C   UNL     1      -5.699  -8.793   4.428  0.00  0.00    +0.214 C 
ATOM     26  C   UNL     1      -6.997  -9.143   5.162  0.00  0.00    +0.180 C 
ATOM     27  C   UNL     1      -8.172  -9.020   4.187  0.00  0.00    +0.177 C 
ATOM     28  C   UNL     1      -7.922  -9.931   2.982  0.00  0.00    +0.179 C 
ATOM     29  O   UNL     1      -6.685  -9.573   2.364  0.00  0.00    -0.331 OA
BRANCH  27  30
ATOM     30  O   UNL     1      -9.380  -9.413   4.842  0.00  0.00    -0.386 OA
ATOM     31  H   UNL     1      -9.597  -8.879   5.619  0.00  0.00    +0.210 HD
ENDBRANCH  27  30
BRANCH  26  32
ATOM     32  O   UNL     1      -7.185  -8.242   6.256  0.00  0.00    -0.386 OA
ATOM     33  H   UNL     1      -6.473  -8.263   6.910  0.00  0.00    +0.210 HD
ENDBRANCH  26  32
BRANCH  25  34
ATOM     34  O   UNL     1      -4.588  -8.973   5.308  0.00  0.00    -0.383 OA
ATOM     35  H   UNL     1      -3.731  -8.773   4.905  0.00  0.00    +0.210 HD
ENDBRANCH  25  34
BRANCH  28  36
ATOM     36  C   UNL     1      -9.063  -9.770   1.975  0.00  0.00    +0.190 C 
BRANCH  36  37
ATOM     37  O   UNL     1      -8.898 -10.711   0.913  0.00  0.00    -0.392 OA
ATOM     38  H   UNL     1      -9.542 -10.615   0.199  0.00  0.00    +0.210 HD
ENDBRANCH  36  37
ENDBRANCH  28  36
ENDBRANCH  23  24
ENDBRANCH  11  23
TORSDOF 15
