REMARK  Name = ZINC44011851
REMARK  3 active torsions:
REMARK  status: ('A' for Active; 'I' for Inactive)
REMARK    1  A    between atoms: C_3  and  O_20
REMARK    2  A    between atoms: C_4  and  C_8
REMARK    3  A    between atoms: N_9  and  C_10
REMARK                            x       y       z     vdW  Elec       q    Type
REMARK                         _______ _______ _______ _____ _____    ______ ____
ROOT
ATOM      1  C   UNL     1       3.691  -0.691  -0.037  0.00  0.00    +0.090 C 
ATOM      2  N   UNL     1       4.800  -0.031  -0.142  0.00  0.00    -0.387 N 
ATOM      3  H   UNL     1       4.790   0.939  -0.137  0.00  0.00    +0.159 HD
ENDROOT
BRANCH   2   4
ATOM      4  C   UNL     1       6.071  -0.749  -0.269  0.00  0.00    +0.079 C 
ATOM      5  C   UNL     1       6.985  -0.377   0.899  0.00  0.00    +0.029 C 
ATOM      6  C   UNL     1       8.311  -1.129   0.769  0.00  0.00    +0.067 C 
ATOM      7  C   UNL     1       8.983  -0.751  -0.552  0.00  0.00    +0.170 C 
ATOM      8  C   UNL     1       8.069  -1.118  -1.723  0.00  0.00    +0.067 C 
ATOM      9  C   UNL     1       6.744  -0.365  -1.588  0.00  0.00    +0.029 C 
ATOM     10  O   UNL     1       9.238   0.663  -0.570  0.00  0.00    -0.346 OA
ATOM     11  C   UNL     1      10.609   0.797  -0.123  0.00  0.00    +0.191 C 
ATOM     12  C   UNL     1      11.270  -0.454  -0.755  0.00  0.00    +0.191 C 
ATOM     13  O   UNL     1      10.229  -1.448  -0.676  0.00  0.00    -0.346 OA
ENDBRANCH   2   4
BRANCH   1  17
ATOM     14  C   UNL     1      -0.017   1.381   0.009  0.00  0.00    +0.023 A 
ATOM     15  C   UNL     1       1.165   2.096   0.014  0.00  0.00    +0.047 A 
ATOM     16  C   UNL     1       2.381   1.430  -0.001  0.00  0.00    +0.125 A 
ATOM     17  C   UNL     1       2.405   0.028  -0.021  0.00  0.00    +0.033 A 
ATOM     18  C   UNL     1       1.203  -0.683  -0.025  0.00  0.00    +0.033 A 
ATOM     19  C   UNL     1       0.002  -0.004  -0.010  0.00  0.00    +0.042 A 
ATOM     20 CL   UNL     1      -1.492  -0.889  -0.015  0.00  0.00    -0.084 Cl
BRANCH  16  21
ATOM     21  O   UNL     1       3.543   2.131   0.002  0.00  0.00    -0.506 OA
ATOM     22  H   UNL     1       3.884   2.323   0.887  0.00  0.00    +0.292 HD
ENDBRANCH  16  21
ENDBRANCH   1  17
TORSDOF 3
