REMARK  Name = ZINC23632294
REMARK  10 active torsions:
REMARK  status: ('A' for Active; 'I' for Inactive)
REMARK    1  A    between atoms: C_1  and  C_2
REMARK    2  A    between atoms: C_8  and  N_10
REMARK    3  A    between atoms: C_14  and  C_16
REMARK    4  A    between atoms: C_16  and  S_17
REMARK    5  A    between atoms: S_17  and  C_18
REMARK    6  A    between atoms: C_21  and  C_24
REMARK    7  A    between atoms: N_22  and  N_23
REMARK    8  A    between atoms: C_24  and  C_25
REMARK    9  A    between atoms: C_24  and  C_26
REMARK   10  A    between atoms: C_24  and  C_27
REMARK                            x       y       z     vdW  Elec       q    Type
REMARK                         _______ _______ _______ _____ _____    ______ ____
ROOT
ATOM      1  N   UNL     1      -3.401   1.977   1.704  0.00  0.00    -0.296 N 
ATOM      2  C   UNL     1      -2.280   1.310   1.366  0.00  0.00    +0.306 C 
ATOM      3  O   UNL     1      -2.316   0.106   1.199  0.00  0.00    -0.252 OA
ATOM      4  N   UNL     1      -1.119   1.977   1.212  0.00  0.00    -0.239 N 
ATOM      5  C   UNL     1       0.002   1.310   0.875  0.00  0.00    +0.231 C 
ATOM      6  O   UNL     1      -0.033   0.110   0.709  0.00  0.00    -0.274 OA
ATOM      7  H   UNL     1      -3.369   3.066   1.854  0.00  0.00    +0.151 HD
ATOM      8  H   UNL     1      -1.087   3.066   1.363  0.00  0.00    +0.159 HD
ENDROOT
BRANCH   1  15
ATOM      9  C   UNL     1      -5.753   2.767   0.210  0.00  0.00    +0.009 C 
ATOM     10  C   UNL     1      -5.835   2.205   1.631  0.00  0.00    +0.006 C 
ATOM     11  C   UNL     1      -7.153   1.448   1.805  0.00  0.00    +0.005 C 
ATOM     12  C   UNL     1      -7.234   0.886   3.226  0.00  0.00    +0.000 C 
ATOM     13  C   UNL     1      -6.062  -0.068   3.465  0.00  0.00    +0.002 C 
ATOM     14  C   UNL     1      -4.745   0.690   3.291  0.00  0.00    +0.022 C 
ATOM     15  C   UNL     1      -4.663   1.251   1.870  0.00  0.00    +0.077 C 
ENDBRANCH   1  15
BRANCH   5  16
ATOM     16  C   UNL     1       1.299   2.057   0.697  0.00  0.00    +0.173 C 
BRANCH  16  17
ATOM     17  S   UNL     1       2.608   0.893   0.240  0.00  0.00    -0.075 S 
BRANCH  17  18
ATOM     18  C   UNL     1       3.969   2.004   0.101  0.00  0.00    +0.209 A 
ATOM     19  N   UNL     1       3.940   3.303   0.289  0.00  0.00    -0.121 NA
ATOM     20  N   UNL     1       5.112   3.797   0.107  0.00  0.00    -0.131 NA
ATOM     21  C   UNL     1       5.951   2.853  -0.214  0.00  0.00    +0.156 A 
ATOM     22  N   UNL     1       5.253   1.677  -0.230  0.00  0.00    -0.227 N 
BRANCH  21  23
ATOM     23  C   UNL     1       7.418   3.025  -0.512  0.00  0.00    +0.024 C 
ATOM     24  C   UNL     1       7.735   2.413  -1.878  0.00  0.00    +0.019 C 
ATOM     25  C   UNL     1       7.763   4.515  -0.528  0.00  0.00    +0.019 C 
ATOM     26  C   UNL     1       8.244   2.321   0.566  0.00  0.00    +0.019 C 
ENDBRANCH  21  23
BRANCH  22  27
ATOM     27  N   UNL     1       5.740   0.433  -0.516  0.00  0.00    -0.295 N 
ATOM     28  H   UNL     1       6.802   0.303  -0.769  0.00  0.00    +0.163 HD
ATOM     29  H   UNL     1       5.069  -0.439  -0.494  0.00  0.00    +0.163 HD
ENDBRANCH  22  27
ENDBRANCH  17  18
ENDBRANCH  16  17
ENDBRANCH   5  16
TORSDOF 6
