REMARK  Name = ZINC66908063
REMARK  9 active torsions:
REMARK  status: ('A' for Active; 'I' for Inactive)
REMARK    1  A    between atoms: C_1  and  C_2
REMARK    2  A    between atoms: C_2  and  C_3
REMARK    3  A    between atoms: C_2  and  C_4
REMARK    4  A    between atoms: C_2  and  N_5
REMARK    5  A    between atoms: C_6  and  C_8
REMARK    6  A    between atoms: C_8  and  N_9
REMARK    7  A    between atoms: N_12  and  C_13
REMARK    8  A    between atoms: C_13  and  C_14
REMARK    9  A    between atoms: C_14  and  O_24
REMARK                            x       y       z     vdW  Elec       q    Type
REMARK                         _______ _______ _______ _____ _____    ______ ____
ROOT
ATOM      1  N   UNL     1       4.202  -0.422  -2.478  0.00  0.00    -0.291 N 
ATOM      2  C   UNL     1       4.958  -0.590  -3.581  0.00  0.00    +0.300 C 
ATOM      3  O   UNL     1       4.505  -1.178  -4.544  0.00  0.00    -0.253 OA
ATOM      4  N   UNL     1       6.215  -0.106  -3.617  0.00  0.00    -0.296 N 
ATOM      5  H   UNL     1       4.564   0.048  -1.709  0.00  0.00    +0.151 HD
ATOM      6  H   UNL     1       6.577   0.363  -2.849  0.00  0.00    +0.150 HD
ENDROOT
BRANCH   1   7
ATOM      7  C   UNL     1       2.836  -0.947  -2.438  0.00  0.00    +0.201 C 
BRANCH   7   9
ATOM      8  N   UNL     1       0.950  -1.017  -0.839  0.00  0.00    -0.309 N 
ATOM      9  C   UNL     1       2.213  -0.628  -1.104  0.00  0.00    +0.231 C 
ATOM     10  O   UNL     1       2.848  -0.022  -0.268  0.00  0.00    -0.274 OA
ATOM     11  H   UNL     1       0.442  -1.503  -1.508  0.00  0.00    +0.149 HD
BRANCH   8  13
ATOM     12  C   UNL     1       0.313   0.809   0.657  0.00  0.00    +0.031 C 
ATOM     13  C   UNL     1       0.344  -0.707   0.458  0.00  0.00    +0.026 C 
ATOM     14  C   UNL     1       1.170  -1.351   1.573  0.00  0.00    +0.031 C 
ATOM     15  C   UNL     1      -1.083  -1.256   0.499  0.00  0.00    +0.031 C 
ENDBRANCH   8  13
ENDBRANCH   7   9
ENDBRANCH   1   7
BRANCH   4  16
ATOM     16  C   UNL     1       7.037  -0.289  -4.816  0.00  0.00    +0.145 C 
BRANCH  16  17
ATOM     17  C   UNL     1       8.359   0.461  -4.648  0.00  0.00    +0.107 C 
ATOM     18  C   UNL     1       8.071   1.934  -4.369  0.00  0.00    +0.041 C 
ATOM     19  C   UNL     1       9.395   2.705  -4.420  0.00  0.00    +0.008 C 
ATOM     20  C   UNL     1       9.875   2.742  -5.870  0.00  0.00    +0.035 C 
ATOM     21  C   UNL     1       9.878   1.357  -6.462  0.00  0.00    -0.041 A 
ATOM     22  C   UNL     1       9.179   0.310  -5.903  0.00  0.00    -0.011 A 
ATOM     23  C   UNL     1       9.219  -0.941  -6.503  0.00  0.00    +0.007 A 
ATOM     24  C   UNL     1       9.955  -1.145  -7.652  0.00  0.00    +0.000 A 
ATOM     25  C   UNL     1      10.660  -0.096  -8.211  0.00  0.00    +0.000 A 
ATOM     26  C   UNL     1      10.620   1.149  -7.617  0.00  0.00    +0.004 A 
BRANCH  17  27
ATOM     27  O   UNL     1       9.079  -0.095  -3.546  0.00  0.00    -0.382 OA
ATOM     28  H   UNL     1       9.291  -1.033  -3.648  0.00  0.00    +0.211 HD
ENDBRANCH  17  27
ENDBRANCH  16  17
ENDBRANCH   4  16
TORSDOF 6
