REMARK  Name = ZINC61327143
REMARK  4 active torsions:
REMARK  status: ('A' for Active; 'I' for Inactive)
REMARK    1  A    between atoms: C_1  and  C_2
REMARK    2  A    between atoms: C_5  and  N_11
REMARK    3  A    between atoms: C_6  and  N_8
REMARK    4  A    between atoms: N_11  and  C_12
REMARK                            x       y       z     vdW  Elec       q    Type
REMARK                         _______ _______ _______ _____ _____    ______ ____
ROOT
ATOM      1  N   UNL     1       0.521  -4.118   0.145  0.00  0.00    -0.335 N 
ATOM      2  H   UNL     1       0.588  -4.552   1.010  0.00  0.00    +0.147 HD
ENDROOT
BRANCH   1   3
ATOM      3  C   UNL     1       0.682  -4.902  -1.081  0.00  0.00    +0.101 C 
ATOM      4  C   UNL     1       1.519  -6.148  -0.788  0.00  0.00    +0.027 C 
ATOM      5  C   UNL     1       1.541  -7.066  -2.013  0.00  0.00    +0.007 C 
ATOM      6  C   UNL     1       0.147  -7.687  -2.188  0.00  0.00    +0.043 C 
ATOM      7  C   UNL     1      -0.870  -6.598  -2.076  0.00  0.00    -0.005 A 
ATOM      8  C   UNL     1      -0.688  -5.337  -1.594  0.00  0.00    -0.017 A 
ATOM      9  C   UNL     1      -1.802  -4.498  -1.599  0.00  0.00    +0.013 A 
ATOM     10  C   UNL     1      -2.988  -4.949  -2.067  0.00  0.00    +0.046 A 
ATOM     11  S   UNL     1      -2.583  -6.632  -2.533  0.00  0.00    -0.101 S 
ENDBRANCH   1   3
BRANCH   1  16
ATOM     12  C   UNL     1      -0.497   1.452  -0.162  0.00  0.00    +0.044 C 
ATOM     13  C   UNL     1      -0.227  -0.029  -0.081  0.00  0.00    -0.048 A 
ATOM     14  C   UNL     1       0.053  -0.743  -1.231  0.00  0.00    +0.005 A 
ATOM     15  C   UNL     1       0.302  -2.100  -1.160  0.00  0.00    +0.025 A 
ATOM     16  C   UNL     1       0.270  -2.746   0.070  0.00  0.00    +0.058 A 
ATOM     17  C   UNL     1      -0.011  -2.026   1.223  0.00  0.00    +0.147 A 
ATOM     18  C   UNL     1      -0.254  -0.668   1.145  0.00  0.00    +0.038 A 
BRANCH  17  19
ATOM     19  N   UNL     1      -0.047  -2.710   2.534  0.00  0.00    +0.058 N 
ATOM     20  O   UNL     1      -0.495  -3.830   2.620  0.00  0.00    -0.126 OA
ATOM     21  O   UNL     1       0.373  -2.150   3.520  0.00  0.00    -0.126 OA
ENDBRANCH  17  19
ENDBRANCH   1  16
TORSDOF 3
