REMARK  Name = ZINC35966639
REMARK  15 active torsions:
REMARK  status: ('A' for Active; 'I' for Inactive)
REMARK    1  A    between atoms: C_1  and  C_2
REMARK    2  A    between atoms: C_2  and  N_3
REMARK    3  A    between atoms: C_6  and  C_11
REMARK    4  A    between atoms: C_16  and  C_17
REMARK    5  A    between atoms: N_23  and  C_25
REMARK    6  A    between atoms: C_25  and  C_27
REMARK    7  A    between atoms: C_25  and  C_31
REMARK    8  A    between atoms: C_27  and  C_28
REMARK    9  A    between atoms: C_28  and  C_29
REMARK   10  A    between atoms: C_28  and  C_30
REMARK   11  A    between atoms: N_33  and  C_34
REMARK   12  A    between atoms: C_34  and  C_35
REMARK   13  A    between atoms: C_35  and  N_36
REMARK   14  A    between atoms: N_36  and  C_37
REMARK   15  A    between atoms: N_36  and  C_38
REMARK                            x       y       z     vdW  Elec       q    Type
REMARK                         _______ _______ _______ _____ _____    ______ ____
ROOT
ATOM      1  N   UNL     1      -1.677   0.288  -0.396  0.00  0.00    -0.257 N 
ATOM      2  C   UNL     1      -2.171   0.172   0.872  0.00  0.00    +0.042 C 
ATOM      3  C   UNL     1      -3.377  -0.386   1.104  0.00  0.00    +0.058 C 
ATOM      4  C   UNL     1      -4.166  -0.881  -0.091  0.00  0.00    +0.142 C 
ATOM      5  N   UNL     1      -3.546  -0.710  -1.417  0.00  0.00    -0.288 N 
ATOM      6  C   UNL     1      -2.333  -0.127  -1.488  0.00  0.00    +0.307 C 
ATOM      7  O   UNL     1      -1.816   0.023  -2.578  0.00  0.00    -0.252 OA
ATOM      8  C   UNL     1      -3.658  -0.389   2.485  0.00  0.00    +0.247 C 
ATOM      9  O   UNL     1      -4.678  -0.834   2.979  0.00  0.00    -0.270 OA
ATOM     10  N   UNL     1      -2.651   0.162   3.187  0.00  0.00    -0.281 N 
ATOM     11  C   UNL     1      -1.618   0.568   2.222  0.00  0.00    +0.160 C 
ATOM     12  H   UNL     1      -4.002  -1.006  -2.220  0.00  0.00    +0.151 HD
ENDROOT
BRANCH   4  13
ATOM     13  C   UNL     1      -4.438  -2.349   0.107  0.00  0.00    -0.011 A 
ATOM     14  C   UNL     1      -3.406  -3.264   0.007  0.00  0.00    +0.006 A 
ATOM     15  C   UNL     1      -3.656  -4.611   0.190  0.00  0.00    +0.000 A 
ATOM     16  C   UNL     1      -4.938  -5.044   0.472  0.00  0.00    +0.001 A 
ATOM     17  C   UNL     1      -5.970  -4.130   0.573  0.00  0.00    +0.013 A 
ATOM     18  C   UNL     1      -5.719  -2.782   0.395  0.00  0.00    +0.060 A 
BRANCH  18  19
ATOM     19  C   UNL     1      -6.843  -1.785   0.509  0.00  0.00    +0.418 C 
ATOM     20  F   UNL     1      -8.016  -2.446   0.890  0.00  0.00    -0.166 F 
ATOM     21  F   UNL     1      -6.517  -0.823   1.472  0.00  0.00    -0.166 F 
ATOM     22  F   UNL     1      -7.040  -1.160  -0.727  0.00  0.00    -0.166 F 
ENDBRANCH  18  19
ENDBRANCH   4  13
BRANCH   1  24
ATOM     23  C   UNL     1      -0.526   2.416  -0.752  0.00  0.00    +0.025 C 
ATOM     24  C   UNL     1      -0.361   0.906  -0.573  0.00  0.00    +0.111 C 
ENDBRANCH   1  24
BRANCH  10  25
ATOM     25  C   UNL     1      -2.595   0.329   4.642  0.00  0.00    +0.163 C 
BRANCH  25  26
ATOM     26  C   UNL     1      -3.646   1.318   5.075  0.00  0.00    +0.234 C 
ATOM     27  O   UNL     1      -4.371   1.834   4.250  0.00  0.00    -0.274 OA
ATOM     28  N   UNL     1      -3.781   1.631   6.379  0.00  0.00    -0.316 N 
ATOM     29  H   UNL     1      -3.201   1.218   7.039  0.00  0.00    +0.149 HD
BRANCH  28  30
ATOM     30  C   UNL     1      -4.803   2.592   6.800  0.00  0.00    +0.085 C 
BRANCH  30  31
ATOM     31  C   UNL     1      -4.744   2.766   8.319  0.00  0.00    -0.061 C 
BRANCH  31  32
ATOM     32  N   UNL     1      -5.768   3.731   8.741  0.00  0.00    +0.377 N 
ATOM     33  C   UNL     1      -7.102   3.181   8.464  0.00  0.00    -0.097 C 
ATOM     34  C   UNL     1      -5.634   3.989  10.181  0.00  0.00    -0.097 C 
ATOM     35  H   UNL     1      -5.648   4.594   8.233  0.00  0.00    -0.083 HD
ENDBRANCH  31  32
ENDBRANCH  30  31
ENDBRANCH  28  30
ENDBRANCH  25  26
BRANCH  25  36
ATOM     36  C   UNL     1      -2.853  -1.018   5.319  0.00  0.00    +0.035 C 
BRANCH  36  37
ATOM     37  C   UNL     1      -1.686  -1.965   5.032  0.00  0.00    -0.015 C 
ATOM     38  C   UNL     1      -1.825  -3.222   5.894  0.00  0.00    +0.007 C 
ATOM     39  C   UNL     1      -1.699  -2.357   3.554  0.00  0.00    +0.007 C 
ENDBRANCH  36  37
ENDBRANCH  25  36
ENDBRANCH  10  25
TORSDOF 10
