REMARK  Name = ZINC20394328
REMARK  8 active torsions:
REMARK  status: ('A' for Active; 'I' for Inactive)
REMARK    1  A    between atoms: C_1  and  C_2
REMARK    2  A    between atoms: C_5  and  N_8
REMARK    3  A    between atoms: C_18  and  S_19
REMARK    4  A    between atoms: S_19  and  C_20
REMARK    5  A    between atoms: C_20  and  C_21
REMARK    6  A    between atoms: N_23  and  C_24
REMARK    7  A    between atoms: C_24  and  C_25
REMARK    8  A    between atoms: N_33  and  C_34
REMARK                            x       y       z     vdW  Elec       q    Type
REMARK                         _______ _______ _______ _____ _____    ______ ____
ROOT
ATOM      1  N   UNL     1       4.745  11.748  -5.351  0.00  0.00    -0.272 N 
ATOM      2  C   UNL     1       4.646  11.588  -6.712  0.00  0.00    +0.173 A 
ATOM      3  C   UNL     1       4.010  10.362  -6.917  0.00  0.00    +0.173 A 
ATOM      4  C   UNL     1       3.775   9.938  -8.248  0.00  0.00    +0.279 A 
ATOM      5  O   UNL     1       3.224   8.875  -8.478  0.00  0.00    -0.265 OA
ATOM      6  N   UNL     1       4.180  10.743  -9.255  0.00  0.00    -0.312 N 
ATOM      7  H   UNL     1       4.012  10.442 -10.300  0.00  0.00    +0.170 HD
ATOM      8  C   UNL     1       4.793  11.923  -8.987  0.00  0.00    +0.201 A 
ATOM      9  N   UNL     1       5.016  12.327  -7.767  0.00  0.00    -0.217 NA
ATOM     10  N   UNL     1       3.753   9.827  -5.697  0.00  0.00    -0.214 NA
ATOM     11  C   UNL     1       4.181  10.645  -4.767  0.00  0.00    +0.176 A 
ENDROOT
BRANCH   1  16
ATOM     12  C   UNL     1       7.058  16.168  -2.644  0.00  0.00    +0.044 C 
ATOM     13  C   UNL     1       6.444  14.995  -3.363  0.00  0.00    -0.050 A 
ATOM     14  C   UNL     1       7.021  13.742  -3.259  0.00  0.00    +0.005 A 
ATOM     15  C   UNL     1       6.460  12.665  -3.916  0.00  0.00    +0.026 A 
ATOM     16  C   UNL     1       5.316  12.840  -4.683  0.00  0.00    +0.050 A 
ATOM     17  C   UNL     1       4.743  14.100  -4.791  0.00  0.00    +0.026 A 
ATOM     18  C   UNL     1       5.305  15.172  -4.126  0.00  0.00    +0.005 A 
ENDBRANCH   1  16
BRANCH  11  19
ATOM     19  S   UNL     1       4.056  10.364  -3.032  0.00  0.00    -0.078 S 
BRANCH  19  20
ATOM     20  C   UNL     1       3.225   8.756  -3.032  0.00  0.00    +0.173 C 
BRANCH  20  21
ATOM     21  C   UNL     1       3.007   8.303  -1.611  0.00  0.00    +0.224 C 
ATOM     22  O   UNL     1       3.378   8.998  -0.690  0.00  0.00    -0.275 OA
ATOM     23  N   UNL     1       2.401   7.125  -1.365  0.00  0.00    -0.308 N 
ATOM     24  H   UNL     1       2.065   6.494  -2.202  0.00  0.00    +0.149 HD
BRANCH  23  25
ATOM     25  C   UNL     1       2.190   6.684   0.016  0.00  0.00    +0.178 C 
BRANCH  25  26
ATOM     26  C   UNL     1       1.497   5.345   0.015  0.00  0.00    +0.128 A 
ATOM     27  N   UNL     1       0.208   5.173   0.026  0.00  0.00    -0.231 NA
ATOM     28  C   UNL     1      -0.075   3.845   0.022  0.00  0.00    +0.089 A 
ATOM     29  C   UNL     1      -1.266   3.114   0.030  0.00  0.00    +0.030 A 
ATOM     30  C   UNL     1      -1.226   1.748   0.017  0.00  0.00    +0.002 A 
ATOM     31  C   UNL     1      -0.013   1.076   0.008  0.00  0.00    +0.002 A 
ATOM     32  C   UNL     1       1.175   1.777   0.000  0.00  0.00    +0.028 A 
ATOM     33  C   UNL     1       1.154   3.165   0.008  0.00  0.00    +0.069 A 
ATOM     34  N   UNL     1       2.130   4.141   0.003  0.00  0.00    -0.329 N 
ATOM     35  C   UNL     1       3.578   3.921  -0.011  0.00  0.00    +0.150 C 
ENDBRANCH  25  26
ENDBRANCH  23  25
ENDBRANCH  20  21
ENDBRANCH  19  20
ENDBRANCH  11  19
TORSDOF 6
