REMARK  Name = ZINC35344706
REMARK  5 active torsions:
REMARK  status: ('A' for Active; 'I' for Inactive)
REMARK    1  A    between atoms: C_1  and  N_2
REMARK    2  A    between atoms: C_3  and  C_5
REMARK    3  A    between atoms: C_5  and  N_6
REMARK    4  A    between atoms: N_6  and  C_7
REMARK    5  A    between atoms: C_12  and  N_13
REMARK                            x       y       z     vdW  Elec       q    Type
REMARK                         _______ _______ _______ _____ _____    ______ ____
ROOT
ATOM      1  C   UNL     1       1.482  -4.047   2.395  0.00  0.00    +0.051 A 
ATOM      2  C   UNL     1       0.957  -4.942   1.468  0.00  0.00    +0.026 A 
ATOM      3  C   UNL     1       1.103  -6.301   1.675  0.00  0.00    +0.019 A 
ATOM      4  C   UNL     1       1.764  -6.752   2.793  0.00  0.00    +0.041 A 
ATOM      5  C   UNL     1       2.311  -5.877   3.756  0.00  0.00    +0.100 A 
ATOM      6  C   UNL     1       2.154  -4.491   3.520  0.00  0.00    +0.073 A 
ATOM      7  N   UNL     1       2.919  -6.516   4.778  0.00  0.00    -0.246 NA
ATOM      8  C   UNL     1       2.981  -7.814   4.844  0.00  0.00    +0.157 A 
ATOM      9  S   UNL     1       2.182  -8.342   3.460  0.00  0.00    -0.075 S 
ENDROOT
BRANCH   6  10
ATOM     10  N   UNL     1       2.676  -3.565   4.432  0.00  0.00    -0.355 N 
ATOM     11  H   UNL     1       2.566  -2.614   4.274  0.00  0.00    +0.142 HD
ATOM     12  H   UNL     1       3.147  -3.874   5.221  0.00  0.00    +0.142 HD
ENDBRANCH   6  10
BRANCH   1  13
ATOM     13  N   UNL     1       1.333  -2.667   2.182  0.00  0.00    -0.334 N 
ATOM     14  H   UNL     1       1.700  -2.036   2.821  0.00  0.00    +0.147 HD
BRANCH  13  15
ATOM     15  C   UNL     1       0.625  -2.182   0.995  0.00  0.00    +0.197 C 
BRANCH  15  18
ATOM     16  C   UNL     1      -0.018   1.461   0.010  0.00  0.00    +0.128 C 
ATOM     17  N   UNL     1       0.002  -0.004   0.002  0.00  0.00    -0.317 N 
ATOM     18  C   UNL     1       0.604  -0.675   1.004  0.00  0.00    +0.230 C 
ATOM     19  O   UNL     1       1.130  -0.067   1.911  0.00  0.00    -0.274 OA
ATOM     20  H   UNL     1      -0.418  -0.491  -0.724  0.00  0.00    +0.148 HD
ENDBRANCH  15  18
ENDBRANCH  13  15
ENDBRANCH   1  13
TORSDOF 4
