REMARK  Name = ZINC27558209
REMARK  13 active torsions:
REMARK  status: ('A' for Active; 'I' for Inactive)
REMARK    1  A    between atoms: C_1  and  C_2
REMARK    2  A    between atoms: C_2  and  O_3
REMARK    3  A    between atoms: O_3  and  C_4
REMARK    4  A    between atoms: C_4  and  C_6
REMARK    5  A    between atoms: C_7  and  C_22
REMARK    6  A    between atoms: C_12  and  C_14
REMARK    7  A    between atoms: C_17  and  O_20
REMARK    8  A    between atoms: O_20  and  C_21
REMARK    9  A    between atoms: C_22  and  N_23
REMARK   10  A    between atoms: N_23  and  C_24
REMARK   11  A    between atoms: N_23  and  C_25
REMARK   12  A    between atoms: C_25  and  C_27
REMARK   13  A    between atoms: C_25  and  C_28
REMARK                            x       y       z     vdW  Elec       q    Type
REMARK                         _______ _______ _______ _____ _____    ______ ____
ROOT
ATOM      1  C   UNL     1      -0.488   1.540   3.222  0.00  0.00    +0.076 C 
ATOM      2  C   UNL     1      -0.238   1.027   4.446  0.00  0.00    +0.008 C 
ATOM      3  N   UNL     1      -1.072   1.277   5.498  0.00  0.00    -0.274 N 
ATOM      4  C   UNL     1      -2.176   2.030   5.409  0.00  0.00    +0.304 C 
ATOM      5  O   UNL     1      -2.857   2.195   6.402  0.00  0.00    -0.252 OA
ATOM      6  N   UNL     1      -2.557   2.609   4.253  0.00  0.00    -0.288 N 
ATOM      7  C   UNL     1      -1.720   2.406   3.058  0.00  0.00    +0.143 C 
ATOM      8  H   UNL     1      -0.852   0.850   6.488  0.00  0.00    +0.156 HD
ATOM      9  H   UNL     1      -3.468   3.221   4.189  0.00  0.00    +0.151 HD
ENDROOT
BRANCH   7  10
ATOM     10  C   UNL     1      -2.585   1.786   1.991  0.00  0.00    -0.022 A 
ATOM     11  C   UNL     1      -3.395   0.709   2.299  0.00  0.00    +0.009 A 
ATOM     12  C   UNL     1      -4.194   0.143   1.324  0.00  0.00    +0.046 A 
ATOM     13  C   UNL     1      -4.173   0.648   0.033  0.00  0.00    +0.120 A 
ATOM     14  C   UNL     1      -3.355   1.726  -0.275  0.00  0.00    +0.046 A 
ATOM     15  C   UNL     1      -2.563   2.292   0.705  0.00  0.00    +0.009 A 
BRANCH  13  16
ATOM     16  O   UNL     1      -4.953   0.089  -0.930  0.00  0.00    -0.495 OA
ATOM     17  C   UNL     1      -5.769  -1.017  -0.541  0.00  0.00    +0.277 C 
ENDBRANCH  13  16
ENDBRANCH   7  10
BRANCH   1  18
ATOM     18  C   UNL     1       0.376   1.282   2.131  0.00  0.00    +0.339 C 
ATOM     19  O   UNL     1       1.159   2.137   1.760  0.00  0.00    -0.245 OA
BRANCH  18  20
ATOM     20  O   UNL     1       0.331   0.089   1.502  0.00  0.00    -0.462 OA
BRANCH  20  22
ATOM     21  C   UNL     1       1.035  -1.503  -0.173  0.00  0.00    +0.048 C 
ATOM     22  C   UNL     1       1.230  -0.102   0.409  0.00  0.00    +0.229 C 
ENDBRANCH  20  22
ENDBRANCH  18  20
ENDBRANCH   1  18
BRANCH   2  23
ATOM     23  C   UNL     1       0.980   0.164   4.654  0.00  0.00    -0.026 C 
BRANCH  23  24
ATOM     24  N   UNL     1       1.886   0.819   5.607  0.00  0.00    +0.386 N 
ATOM     25  C   UNL     1       2.430   2.063   5.046  0.00  0.00    -0.095 C 
ATOM     26  H   UNL     1       1.304   1.078   6.504  0.00  0.00    -0.081 HD
BRANCH  24  27
ATOM     27  C   UNL     1       2.965  -0.090   6.017  0.00  0.00    -0.041 C 
ATOM     28  C   UNL     1       3.880  -0.367   4.822  0.00  0.00    -0.008 C 
BRANCH  27  29
ATOM     29  C   UNL     1       3.764   0.546   7.125  0.00  0.00    -0.061 A 
ATOM     30  C   UNL     1       5.134   0.367   7.179  0.00  0.00    +0.005 A 
ATOM     31  C   UNL     1       5.868   0.955   8.192  0.00  0.00    +0.038 A 
ATOM     32  C   UNL     1       5.230   1.713   9.158  0.00  0.00    +0.123 A 
ATOM     33  C   UNL     1       3.857   1.886   9.107  0.00  0.00    +0.038 A 
ATOM     34  C   UNL     1       3.126   1.302   8.090  0.00  0.00    +0.005 A 
ATOM     35  F   UNL     1       5.946   2.283  10.152  0.00  0.00    -0.205 F 
ENDBRANCH  27  29
ENDBRANCH  24  27
ENDBRANCH  23  24
ENDBRANCH   2  23
TORSDOF 9
