REMARK  Name = ZINC14623940
REMARK  12 active torsions:
REMARK  status: ('A' for Active; 'I' for Inactive)
REMARK    1  A    between atoms: C_1  and  C_2
REMARK    2  A    between atoms: C_2  and  C_3
REMARK    3  A    between atoms: C_3  and  C_4
REMARK    4  A    between atoms: C_4  and  N_5
REMARK    5  A    between atoms: C_6  and  N_36
REMARK    6  A    between atoms: C_7  and  N_14
REMARK    7  A    between atoms: N_14  and  C_15
REMARK    8  A    between atoms: C_15  and  C_16
REMARK    9  A    between atoms: C_16  and  C_17
REMARK   10  A    between atoms: C_17  and  C_18
REMARK   11  A    between atoms: C_19  and  C_21
REMARK   12  A    between atoms: C_21  and  N_22
REMARK                            x       y       z     vdW  Elec       q    Type
REMARK                         _______ _______ _______ _____ _____    ______ ____
ROOT
ATOM      1  N   UNL     1      -5.322  -3.614   2.434  0.00  0.00    -0.263 N 
ATOM      2  C   UNL     1      -4.714  -3.314   3.601  0.00  0.00    +0.239 C 
ATOM      3  O   UNL     1      -3.580  -2.883   3.601  0.00  0.00    -0.273 OA
ENDROOT
BRANCH   1   6
ATOM      4  N   UNL     1      -4.548  -2.118  -0.831  0.00  0.00    -0.280 N 
ATOM      5  C   UNL     1      -5.196  -2.375   0.355  0.00  0.00    +0.127 A 
ATOM      6  C   UNL     1      -4.681  -3.327   1.210  0.00  0.00    +0.140 A 
ATOM      7  C   UNL     1      -3.505  -4.008   0.842  0.00  0.00    +0.277 A 
ATOM      8  O   UNL     1      -3.029  -4.854   1.579  0.00  0.00    -0.266 OA
ATOM      9  N   UNL     1      -2.910  -3.717  -0.332  0.00  0.00    -0.273 N 
ATOM     10  H   UNL     1      -2.099  -4.186  -0.587  0.00  0.00    +0.173 HD
ATOM     11  C   UNL     1      -3.429  -2.790  -1.155  0.00  0.00    +0.331 A 
ATOM     12  O   UNL     1      -2.874  -2.551  -2.211  0.00  0.00    -0.246 OA
BRANCH   5  13
ATOM     13  N   UNL     1      -6.342  -1.692   0.684  0.00  0.00    -0.343 N 
ATOM     14  H   UNL     1      -6.662  -0.977   0.111  0.00  0.00    +0.144 HD
ATOM     15  H   UNL     1      -6.831  -1.924   1.488  0.00  0.00    +0.144 HD
ENDBRANCH   5  13
BRANCH   4  16
ATOM     16  C   UNL     1      -5.083  -1.109  -1.749  0.00  0.00    +0.128 C 
BRANCH  16  17
ATOM     17  C   UNL     1      -6.066  -1.771  -2.717  0.00  0.00    +0.021 C 
BRANCH  17  19
ATOM     18  C   UNL     1      -7.608  -1.380  -4.643  0.00  0.00    +0.004 C 
ATOM     19  C   UNL     1      -6.625  -0.718  -3.676  0.00  0.00    -0.002 C 
ENDBRANCH  17  19
ENDBRANCH  16  17
ENDBRANCH   4  16
ENDBRANCH   1   6
BRANCH   1  20
ATOM     20  C   UNL     1      -6.648  -4.237   2.438  0.00  0.00    +0.114 C 
BRANCH  20  21
ATOM     21  C   UNL     1      -6.499  -5.753   2.575  0.00  0.00    +0.019 C 
BRANCH  21  22
ATOM     22  C   UNL     1      -7.883  -6.404   2.579  0.00  0.00    -0.002 C 
ATOM     23  C   UNL     1      -7.734  -7.921   2.716  0.00  0.00    +0.004 C 
ENDBRANCH  21  22
ENDBRANCH  20  21
ENDBRANCH   1  20
BRANCH   2  24
ATOM     24  C   UNL     1      -5.443  -3.515   4.904  0.00  0.00    +0.227 C 
BRANCH  24  25
ATOM     25  N   UNL     1      -4.575  -3.120   6.016  0.00  0.00    -0.194 N 
ATOM     26  C   UNL     1      -3.601  -3.905   6.655  0.00  0.00    +0.061 A 
ATOM     27  C   UNL     1      -3.249  -5.224   6.376  0.00  0.00    +0.025 A 
ATOM     28  C   UNL     1      -2.257  -5.866   7.106  0.00  0.00    +0.002 A 
ATOM     29  C   UNL     1      -1.583  -5.252   8.121  0.00  0.00    +0.009 A 
ATOM     30  C   UNL     1      -1.903  -3.921   8.439  0.00  0.00    -0.014 A 
ATOM     31  C   UNL     1      -2.912  -3.279   7.691  0.00  0.00    +0.031 A 
ATOM     32  C   UNL     1      -3.259  -1.954   7.979  0.00  0.00    +0.118 A 
ATOM     33  C   UNL     1      -2.638  -1.282   8.966  0.00  0.00    +0.029 A 
ATOM     34  C   UNL     1      -1.634  -1.911   9.713  0.00  0.00    +0.003 A 
ATOM     35  C   UNL     1      -1.268  -3.201   9.465  0.00  0.00    +0.009 A 
ATOM     36  S   UNL     1      -4.529  -1.632   6.788  0.00  0.00    +0.076 S 
ATOM     37  O   UNL     1      -4.026  -0.678   5.862  0.00  0.00    -0.150 OA
ATOM     38  O   UNL     1      -5.752  -1.471   7.494  0.00  0.00    -0.150 OA
ENDBRANCH  24  25
ENDBRANCH   2  24
TORSDOF 10
