REMARK  Name = ZINC20709523
REMARK  6 active torsions:
REMARK  status: ('A' for Active; 'I' for Inactive)
REMARK    1  A    between atoms: C_2  and  C_3
REMARK    2  A    between atoms: C_3  and  N_4
REMARK    3  A    between atoms: C_5  and  C_7
REMARK    4  A    between atoms: C_14  and  C_23
REMARK    5  A    between atoms: C_25  and  N_30
REMARK    6  A    between atoms: C_28  and  O_29
REMARK                            x       y       z     vdW  Elec       q    Type
REMARK                         _______ _______ _______ _____ _____    ______ ____
ROOT
ATOM      1  C   UNL     1      -4.801   2.340   1.483  0.00  0.00    +0.058 A 
ATOM      2  C   UNL     1      -5.223   1.018   1.615  0.00  0.00    +0.015 A 
ATOM      3  C   UNL     1      -4.367  -0.014   1.299  0.00  0.00    +0.001 A 
ATOM      4  C   UNL     1      -3.089   0.264   0.845  0.00  0.00    +0.006 A 
ATOM      5  C   UNL     1      -2.657   1.565   0.703  0.00  0.00    -0.019 A 
ATOM      6  C   UNL     1      -3.499   2.632   1.028  0.00  0.00    +0.044 A 
ATOM      7  N   UNL     1      -3.130   3.965   0.955  0.00  0.00    -0.336 N 
ATOM      8  C   UNL     1      -1.789   4.273   0.435  0.00  0.00    +0.108 C 
ATOM      9  C   UNL     1      -0.853   3.192   0.934  0.00  0.00    +0.029 C 
ATOM     10  C   UNL     1      -1.301   1.884   0.205  0.00  0.00    +0.049 C 
ATOM     11  C   UNL     1      -0.142   0.980   0.402  0.00  0.00    -0.023 C 
ATOM     12  C   UNL     1       0.957   1.719   0.510  0.00  0.00    -0.030 C 
ATOM     13  C   UNL     1       0.596   3.205   0.433  0.00  0.00    +0.033 C 
ATOM     14  H   UNL     1      -3.799   4.780   1.268  0.00  0.00    +0.147 HD
ENDROOT
BRANCH   8  15
ATOM     15  C   UNL     1      -1.320   5.622   0.917  0.00  0.00    +0.017 A 
ATOM     16  C   UNL     1      -1.789   6.129   2.114  0.00  0.00    +0.041 A 
ATOM     17  C   UNL     1      -1.355   7.364   2.560  0.00  0.00    +0.127 A 
ATOM     18  C   UNL     1      -0.459   8.098   1.805  0.00  0.00    +0.036 A 
ATOM     19  C   UNL     1       0.008   7.598   0.605  0.00  0.00    +0.048 A 
ATOM     20  C   UNL     1      -0.421   6.357   0.158  0.00  0.00    +0.122 A 
BRANCH  17  21
ATOM     21  N   UNL     1      -1.854   7.902   3.845  0.00  0.00    +0.056 N 
ATOM     22  O   UNL     1      -1.476   8.992   4.237  0.00  0.00    -0.126 OA
ATOM     23  O   UNL     1      -2.643   7.256   4.511  0.00  0.00    -0.126 OA
ENDBRANCH  17  21
BRANCH  20  24
ATOM     24  O   UNL     1       0.037   5.862  -1.021  0.00  0.00    -0.506 OA
ATOM     25  H   UNL     1       0.750   6.446  -1.623  0.00  0.00    +0.292 HD
ENDBRANCH  20  24
ENDBRANCH   8  15
BRANCH   1  27
ATOM     26  N   UNL     1      -6.968   3.165   2.257  0.00  0.00    -0.308 N 
ATOM     27  C   UNL     1      -5.723   3.440   1.822  0.00  0.00    +0.246 C 
ATOM     28  O   UNL     1      -5.359   4.594   1.709  0.00  0.00    -0.270 OA
ATOM     29  H   UNL     1      -7.297   2.120   2.360  0.00  0.00    +0.149 HD
BRANCH  26  30
ATOM     30  C   UNL     1      -7.884   4.258   2.594  0.00  0.00    +0.131 C 
BRANCH  30  32
ATOM     31  C   UNL     1      -9.696   4.029   4.215  0.00  0.00    +0.005 C 
ATOM     32  C   UNL     1      -9.202   3.687   3.051  0.00  0.00    -0.016 C 
ENDBRANCH  30  32
ENDBRANCH  26  30
ENDBRANCH   1  27
TORSDOF 6
