REMARK  Name = ZINC10784968
REMARK  13 active torsions:
REMARK  status: ('A' for Active; 'I' for Inactive)
REMARK    1  A    between atoms: C_1  and  C_2
REMARK    2  A    between atoms: C_5  and  C_8
REMARK    3  A    between atoms: C_11  and  S_14
REMARK    4  A    between atoms: N_12  and  N_13
REMARK    5  A    between atoms: S_14  and  C_15
REMARK    6  A    between atoms: C_15  and  C_17
REMARK    7  A    between atoms: C_15  and  C_18
REMARK    8  A    between atoms: N_20  and  C_21
REMARK    9  A    between atoms: C_21  and  C_22
REMARK   10  A    between atoms: C_21  and  C_23
REMARK   11  A    between atoms: C_21  and  C_25
REMARK   12  A    between atoms: C_25  and  C_26
REMARK   13  A    between atoms: C_25  and  C_27
REMARK                            x       y       z     vdW  Elec       q    Type
REMARK                         _______ _______ _______ _____ _____    ______ ____
ROOT
ATOM      1  C   UNL     1       7.840   3.806   2.669  0.00  0.00    +0.182 A 
ATOM      2  N   UNL     1       7.466   3.929   1.417  0.00  0.00    -0.127 NA
ATOM      3  N   UNL     1       6.297   3.423   1.256  0.00  0.00    -0.121 NA
ATOM      4  C   UNL     1       5.851   2.944   2.396  0.00  0.00    +0.209 A 
ATOM      5  N   UNL     1       6.815   3.176   3.336  0.00  0.00    -0.224 N 
ENDROOT
BRANCH   1  10
ATOM      6  C   UNL     1      12.817   5.585   4.946  0.00  0.00    +0.044 C 
ATOM      7  C   UNL     1      11.514   5.119   4.350  0.00  0.00    -0.050 A 
ATOM      8  C   UNL     1      11.121   5.581   3.106  0.00  0.00    +0.004 A 
ATOM      9  C   UNL     1       9.929   5.158   2.555  0.00  0.00    +0.012 A 
ATOM     10  C   UNL     1       9.119   4.262   3.254  0.00  0.00    +0.021 A 
ATOM     11  C   UNL     1       9.518   3.804   4.510  0.00  0.00    +0.012 A 
ATOM     12  C   UNL     1      10.715   4.230   5.048  0.00  0.00    +0.004 A 
ENDBRANCH   1  10
BRANCH   5  13
ATOM     13  N   UNL     1       6.770   2.849   4.662  0.00  0.00    -0.295 N 
ATOM     14  H   UNL     1       5.885   2.343   5.074  0.00  0.00    +0.163 HD
ATOM     15  H   UNL     1       7.620   3.091   5.317  0.00  0.00    +0.163 HD
ENDBRANCH   5  13
BRANCH   4  16
ATOM     16  S   UNL     1       4.298   2.157   2.664  0.00  0.00    -0.072 S 
BRANCH  16  17
ATOM     17  C   UNL     1       3.613   2.235   0.990  0.00  0.00    +0.137 C 
ATOM     18  C   UNL     1       4.465   1.380   0.050  0.00  0.00    +0.029 C 
BRANCH  17  19
ATOM     19  C   UNL     1       2.200   1.713   1.001  0.00  0.00    +0.227 C 
ATOM     20  O   UNL     1       1.821   1.006   1.911  0.00  0.00    -0.275 OA
ATOM     21  N   UNL     1       1.356   2.033   0.000  0.00  0.00    -0.296 N 
ATOM     22  H   UNL     1       1.699   2.675  -0.825  0.00  0.00    +0.150 HD
BRANCH  21  23
ATOM     23  C   UNL     1      -0.019   1.526   0.010  0.00  0.00    +0.121 C 
ATOM     24  C   UNL     1       0.002  -0.004   0.002  0.00  0.00    +0.048 C 
BRANCH  23  25
ATOM     25  C   UNL     1      -0.759   2.033  -1.229  0.00  0.00    +0.020 C 
ATOM     26  C   UNL     1      -2.152   1.404  -1.284  0.00  0.00    +0.010 C 
ATOM     27  C   UNL     1      -0.888   3.555  -1.158  0.00  0.00    +0.010 C 
ENDBRANCH  23  25
BRANCH  23  28
ATOM     28  C   UNL     1      -0.708   2.001   1.222  0.00  0.00    +0.088 C 
ATOM     29  N   UNL     1      -1.239   2.367   2.156  0.00  0.00    -0.194 NA
ENDBRANCH  23  28
ENDBRANCH  21  23
ENDBRANCH  17  19
ENDBRANCH  16  17
ENDBRANCH   4  16
TORSDOF 8
