REMARK  Name = ZINC09583881
REMARK  6 active torsions:
REMARK  status: ('A' for Active; 'I' for Inactive)
REMARK    1  A    between atoms: C_1  and  C_2
REMARK    2  A    between atoms: C_7  and  O_8
REMARK    3  A    between atoms: O_8  and  C_9
REMARK    4  A    between atoms: C_9  and  C_10
REMARK    5  A    between atoms: C_22  and  O_34
REMARK    6  A    between atoms: C_26  and  C_28
REMARK                            x       y       z     vdW  Elec       q    Type
REMARK                         _______ _______ _______ _____ _____    ______ ____
ROOT
ATOM      1  C   UNL     1       1.266  -0.372  -0.011  0.00  0.00    +0.189 A 
ATOM      2  N   UNL     1       2.049   0.705  -0.013  0.00  0.00    -0.207 NA
ATOM      3  C   UNL     1       1.306   1.787  -0.001  0.00  0.00    +0.167 A 
ATOM      4  C   UNL     1       1.611   3.158   0.002  0.00  0.00    +0.070 A 
ATOM      5  C   UNL     1       0.551   4.024   0.010  0.00  0.00    +0.230 A 
ATOM      6  N   UNL     1      -0.711   3.566   0.023  0.00  0.00    -0.201 NA
ATOM      7  C   UNL     1      -1.022   2.293   0.019  0.00  0.00    +0.229 A 
ATOM      8  N   UNL     1      -0.017   1.383   0.010  0.00  0.00    -0.201 N 
ATOM      9  N   UNL     1       0.002  -0.004   0.002  0.00  0.00    -0.145 NA
ATOM     10  O   UNL     1       0.761   5.361   0.007  0.00  0.00    -0.437 OA
ATOM     11  C   UNL     1       1.952   5.869   0.405  0.00  0.00    +0.138 A 
ATOM     12  C   UNL     1       2.025   7.199   0.800  0.00  0.00    +0.092 A 
ATOM     13  C   UNL     1       3.234   7.735   1.212  0.00  0.00    +0.120 A 
ATOM     14  C   UNL     1       4.373   6.941   1.230  0.00  0.00    +0.046 A 
ATOM     15  C   UNL     1       4.299   5.620   0.836  0.00  0.00    +0.012 A 
ATOM     16  C   UNL     1       3.093   5.082   0.424  0.00  0.00    +0.007 A 
ATOM     17  C   UNL     1       3.029   3.640  -0.002  0.00  0.00    +0.091 C 
ENDROOT
BRANCH  17  18
ATOM     18  C   UNL     1       3.596   3.508  -1.392  0.00  0.00    -0.035 A 
ATOM     19  C   UNL     1       3.005   4.179  -2.446  0.00  0.00    +0.004 A 
ATOM     20  C   UNL     1       3.528   4.063  -3.720  0.00  0.00    +0.000 A 
ATOM     21  C   UNL     1       4.636   3.267  -3.942  0.00  0.00    +0.000 A 
ATOM     22  C   UNL     1       5.225   2.592  -2.889  0.00  0.00    +0.000 A 
ATOM     23  C   UNL     1       4.704   2.712  -1.614  0.00  0.00    +0.004 A 
ENDBRANCH  17  18
BRANCH  13  24
ATOM     24  O   UNL     1       3.306   9.036   1.598  0.00  0.00    -0.507 OA
ATOM     25  H   UNL     1       3.505   9.649   0.877  0.00  0.00    +0.292 HD
ENDBRANCH  13  24
BRANCH   1  26
ATOM     26  C   UNL     1       1.753  -1.798  -0.022  0.00  0.00    +0.306 C 
BRANCH  26  27
ATOM     27  O   UNL     1       1.895  -2.243  -1.373  0.00  0.00    -0.484 OA
BRANCH  27  34
ATOM     28  C   UNL     1       2.171  -3.145  -4.035  0.00  0.00    +0.047 C 
ATOM     29  C   UNL     1       2.485  -4.016  -2.845  0.00  0.00    -0.009 A 
ATOM     30  C   UNL     1       2.931  -5.309  -3.034  0.00  0.00    +0.007 A 
ATOM     31  C   UNL     1       3.213  -6.110  -1.943  0.00  0.00    +0.000 A 
ATOM     32  C   UNL     1       3.054  -5.617  -0.661  0.00  0.00    +0.004 A 
ATOM     33  C   UNL     1       2.613  -4.322  -0.467  0.00  0.00    +0.046 A 
ATOM     34  C   UNL     1       2.330  -3.517  -1.561  0.00  0.00    +0.124 A 
ENDBRANCH  27  34
ENDBRANCH  26  27
ENDBRANCH   1  26
TORSDOF 5
