REMARK  Name = ZINC06769318
REMARK  7 active torsions:
REMARK  status: ('A' for Active; 'I' for Inactive)
REMARK    1  A    between atoms: C_1  and  C_2
REMARK    2  A    between atoms: C_4  and  C_8
REMARK    3  A    between atoms: N_5  and  C_7
REMARK    4  A    between atoms: N_10  and  C_11
REMARK    5  A    between atoms: N_10  and  C_22
REMARK    6  A    between atoms: C_11  and  C_12
REMARK    7  A    between atoms: C_25  and  C_28
REMARK                            x       y       z     vdW  Elec       q    Type
REMARK                         _______ _______ _______ _____ _____    ______ ____
ROOT
ATOM      1  C   UNL     1      -0.993  -1.216  -2.356  0.00  0.00    +0.265 C 
ATOM      2  O   UNL     1      -1.518  -0.548  -3.227  0.00  0.00    -0.268 OA
ATOM      3  N   UNL     1      -0.108  -2.178  -2.685  0.00  0.00    -0.289 N 
ENDROOT
BRANCH   1   7
ATOM      4  C   UNL     1      -1.461   0.841   2.256  0.00  0.00    +0.067 C 
ATOM      5  C   UNL     1      -1.537  -0.090   1.074  0.00  0.00    +0.061 A 
ATOM      6  C   UNL     1      -1.015   0.153  -0.199  0.00  0.00    +0.057 A 
ATOM      7  C   UNL     1      -1.323  -0.973  -0.942  0.00  0.00    +0.123 A 
ATOM      8  N   UNL     1      -1.997  -1.813  -0.102  0.00  0.00    -0.262 N 
ATOM      9  N   UNL     1      -2.099  -1.272   1.059  0.00  0.00    -0.176 NA
ATOM     10  C   UNL     1      -2.520  -3.132  -0.467  0.00  0.00    +0.173 C 
ENDBRANCH   1   7
BRANCH   3  11
ATOM     11  C   UNL     1       0.260  -2.385  -4.088  0.00  0.00    +0.077 C 
ATOM     12  C   UNL     1       0.890  -1.107  -4.644  0.00  0.00    +0.023 C 
ATOM     13  C   UNL     1       1.274  -1.324  -6.109  0.00  0.00    +0.010 C 
ATOM     14  C   UNL     1       0.023  -1.671  -6.919  0.00  0.00    +0.019 C 
ATOM     15  C   UNL     1      -0.607  -2.949  -6.362  0.00  0.00    +0.010 C 
ATOM     16  C   UNL     1      -0.991  -2.732  -4.897  0.00  0.00    +0.023 C 
BRANCH  14  17
ATOM     17  C   UNL     1       0.401  -1.884  -8.362  0.00  0.00    -0.044 A 
ATOM     18  C   UNL     1       1.299  -2.879  -8.701  0.00  0.00    +0.004 A 
ATOM     19  C   UNL     1       1.646  -3.075 -10.024  0.00  0.00    +0.000 A 
ATOM     20  C   UNL     1       1.095  -2.277 -11.009  0.00  0.00    +0.000 A 
ATOM     21  C   UNL     1       0.197  -1.282 -10.670  0.00  0.00    +0.000 A 
ATOM     22  C   UNL     1      -0.153  -1.089  -9.347  0.00  0.00    +0.004 A 
ENDBRANCH  14  17
ENDBRANCH   3  11
BRANCH   3  23
ATOM     23  C   UNL     1       0.486  -3.015  -1.640  0.00  0.00    +0.150 C 
BRANCH  23  24
ATOM     24  C   UNL     1       1.430  -4.008  -2.268  0.00  0.00    +0.050 A 
ATOM     25  C   UNL     1       2.749  -3.735  -2.359  0.00  0.00    +0.097 A 
ATOM     26  N   UNL     1       3.592  -4.648  -2.932  0.00  0.00    -0.314 N 
ATOM     27  H   UNL     1       4.540  -4.452  -2.997  0.00  0.00    +0.170 HD
ATOM     28  C   UNL     1       3.119  -5.815  -3.406  0.00  0.00    +0.327 A 
ATOM     29  O   UNL     1       3.885  -6.612  -3.911  0.00  0.00    -0.247 OA
ATOM     30  N   UNL     1       1.808  -6.113  -3.328  0.00  0.00    -0.275 N 
ATOM     31  H   UNL     1       1.484  -6.959  -3.674  0.00  0.00    +0.173 HD
ATOM     32  C   UNL     1       0.946  -5.242  -2.766  0.00  0.00    +0.259 A 
ATOM     33  O   UNL     1      -0.239  -5.513  -2.690  0.00  0.00    -0.267 OA
ENDBRANCH  23  24
ENDBRANCH   3  23
TORSDOF 5
